MODEL 1
REMARK VINA RESULT:      -8.4      0.000      0.000
REMARK  Name = *****
REMARK                            x       y       z     vdW  Elec       q    Type
REMARK                         _______ _______ _______ _____ _____    ______ ____
ROOT
ATOM      1  C   LIG    1       26.386 -21.352   6.254  0.00  0.00    +0.069 C 
ENDROOT
BRANCH   1   2
ATOM      2  C   LIG    1       25.148 -20.629   5.703  0.00  0.00    -0.038 A 
ATOM      3  C   LIG    1       25.191 -20.040   4.426  0.00  0.00    +0.006 A 
ATOM      4  C   LIG    1       24.064 -19.406   3.891  0.00  0.00    +0.020 A 
ATOM      5  C   LIG    1       22.884 -19.355   4.626  0.00  0.00    +0.041 A 
ATOM      6 CL   LIG    1       21.504 -18.556   3.975  0.00  0.00    -0.084 Cl
ATOM      7  C   LIG    1       22.814 -19.949   5.883  0.00  0.00    +0.020 A 
ATOM      8  C   LIG    1       23.937 -20.591   6.416  0.00  0.00    +0.006 A 
ENDBRANCH   1   2
BRANCH   1   9
ATOM      9  C   LIG    1       27.543 -20.413   6.618  0.00  0.00    +0.049 A 
ATOM     10  N   LIG    1       27.921 -20.343   7.921  0.00  0.00    -0.259 NA
ATOM     11  C   LIG    1       28.997 -19.597   8.246  0.00  0.00    +0.111 A 
ATOM     12  C   LIG    1       29.729 -18.879   7.325  0.00  0.00    +0.020 A 
ATOM     13  C   LIG    1       29.324 -18.925   6.000  0.00  0.00    +0.003 A 
ATOM     14  C   LIG    1       28.225 -19.703   5.631  0.00  0.00    +0.024 A 
ENDBRANCH   1   9
BRANCH   1  15
ATOM     15  C   LIG    1       25.939 -22.260   7.427  0.00  0.00    +0.029 C 
BRANCH  15  16
ATOM     16  C   LIG    1       25.903 -23.763   7.085  0.00  0.00    +0.085 C 
BRANCH  16  18
ATOM     17  C   LIG    1       25.353 -25.281   5.291  0.00  0.00    +0.104 C 
ATOM     18  N   LIG    1       24.913 -24.096   6.035  0.00  0.00    -0.308 NA
ATOM     19  C   LIG    1       23.583 -24.345   6.599  0.00  0.00    +0.104 C 
ENDBRANCH  16  18
ENDBRANCH  15  16
ENDBRANCH   1  15
TORSDOF 5
ENDMDL
MODEL 2
REMARK VINA RESULT:      -8.3      1.229      4.998
REMARK  Name = *****
REMARK                            x       y       z     vdW  Elec       q    Type
REMARK                         _______ _______ _______ _____ _____    ______ ____
ROOT
ATOM      1  C   LIG    1       25.363 -22.975   7.126  0.00  0.00    +0.069 C 
ENDROOT
BRANCH   1   2
ATOM      2  C   LIG    1       24.558 -21.914   6.361  0.00  0.00    -0.038 A 
ATOM      3  C   LIG    1       23.574 -21.163   7.031  0.00  0.00    +0.006 A 
ATOM      4  C   LIG    1       22.852 -20.168   6.363  0.00  0.00    +0.020 A 
ATOM      5  C   LIG    1       23.107 -19.913   5.018  0.00  0.00    +0.041 A 
ATOM      6 CL   LIG    1       22.203 -18.703   4.191  0.00  0.00    -0.084 Cl
ATOM      7  C   LIG    1       24.089 -20.630   4.342  0.00  0.00    +0.020 A 
ATOM      8  C   LIG    1       24.818 -21.620   5.011  0.00  0.00    +0.006 A 
ENDBRANCH   1   2
BRANCH   1   9
ATOM      9  C   LIG    1       25.268 -24.382   6.521  0.00  0.00    +0.049 A 
ATOM     10  N   LIG    1       26.427 -25.026   6.223  0.00  0.00    -0.259 NA
ATOM     11  C   LIG    1       26.365 -26.300   5.781  0.00  0.00    +0.111 A 
ATOM     12  C   LIG    1       25.182 -26.982   5.594  0.00  0.00    +0.020 A 
ATOM     13  C   LIG    1       24.000 -26.314   5.867  0.00  0.00    +0.003 A 
ATOM     14  C   LIG    1       24.032 -25.002   6.343  0.00  0.00    +0.024 A 
ENDBRANCH   1   9
BRANCH   1  15
ATOM     15  C   LIG    1       26.819 -22.467   7.275  0.00  0.00    +0.029 C 
BRANCH  15  16
ATOM     16  C   LIG    1       26.943 -21.110   7.999  0.00  0.00    +0.085 C 
BRANCH  16  18
ATOM     17  C   LIG    1       29.343 -20.981   7.784  0.00  0.00    +0.104 C 
ATOM     18  N   LIG    1       28.077 -20.293   7.509  0.00  0.00    -0.308 NA
ATOM     19  C   LIG    1       27.975 -20.023   6.072  0.00  0.00    +0.104 C 
ENDBRANCH  16  18
ENDBRANCH  15  16
ENDBRANCH   1  15
TORSDOF 5
ENDMDL
MODEL 3
REMARK VINA RESULT:      -8.0      2.737      5.122
REMARK  Name = *****
REMARK                            x       y       z     vdW  Elec       q    Type
REMARK                         _______ _______ _______ _____ _____    ______ ____
ROOT
ATOM      1  C   LIG    1       25.757 -21.871   7.079  0.00  0.00    +0.069 C 
ENDROOT
BRANCH   1   2
ATOM      2  C   LIG    1       27.134 -21.191   7.043  0.00  0.00    -0.038 A 
ATOM      3  C   LIG    1       28.153 -21.624   7.912  0.00  0.00    +0.006 A 
ATOM      4  C   LIG    1       29.424 -21.041   7.873  0.00  0.00    +0.020 A 
ATOM      5  C   LIG    1       29.691 -20.021   6.963  0.00  0.00    +0.041 A 
ATOM      6 CL   LIG    1       31.250 -19.291   6.929  0.00  0.00    -0.084 Cl
ATOM      7  C   LIG    1       28.704 -19.592   6.081  0.00  0.00    +0.020 A 
ATOM      8  C   LIG    1       27.434 -20.180   6.114  0.00  0.00    +0.006 A 
ENDBRANCH   1   2
BRANCH   1   9
ATOM      9  C   LIG    1       24.725 -21.235   6.140  0.00  0.00    +0.049 A 
ATOM     10  N   LIG    1       24.859 -21.453   4.806  0.00  0.00    -0.259 NA
ATOM     11  C   LIG    1       23.907 -20.983   3.973  0.00  0.00    +0.111 A 
ATOM     12  C   LIG    1       22.808 -20.269   4.401  0.00  0.00    +0.020 A 
ATOM     13  C   LIG    1       22.689 -20.020   5.758  0.00  0.00    +0.003 A 
ATOM     14  C   LIG    1       23.648 -20.509   6.647  0.00  0.00    +0.024 A 
ENDBRANCH   1   9
BRANCH   1  15
ATOM     15  C   LIG    1       25.957 -23.388   6.837  0.00  0.00    +0.029 C 
BRANCH  15  16
ATOM     16  C   LIG    1       24.647 -24.203   6.820  0.00  0.00    +0.085 C 
BRANCH  16  18
ATOM     17  C   LIG    1       25.090 -25.334   4.736  0.00  0.00    +0.104 C 
ATOM     18  N   LIG    1       24.791 -25.520   6.159  0.00  0.00    -0.308 NA
ATOM     19  C   LIG    1       25.849 -26.326   6.775  0.00  0.00    +0.104 C 
ENDBRANCH  16  18
ENDBRANCH  15  16
ENDBRANCH   1  15
TORSDOF 5
ENDMDL
MODEL 4
REMARK VINA RESULT:      -8.0      2.726      5.040
REMARK  Name = *****
REMARK                            x       y       z     vdW  Elec       q    Type
REMARK                         _______ _______ _______ _____ _____    ______ ____
ROOT
ATOM      1  C   LIG    1       25.777 -21.943   7.047  0.00  0.00    +0.069 C 
ENDROOT
BRANCH   1   2
ATOM      2  C   LIG    1       27.164 -21.283   7.008  0.00  0.00    -0.038 A 
ATOM      3  C   LIG    1       27.410 -20.223   6.116  0.00  0.00    +0.006 A 
ATOM      4  C   LIG    1       28.655 -19.585   6.087  0.00  0.00    +0.020 A 
ATOM      5  C   LIG    1       29.666 -19.999   6.950  0.00  0.00    +0.041 A 
ATOM      6 CL   LIG    1       31.204 -19.226   6.899  0.00  0.00    -0.084 Cl
ATOM      7  C   LIG    1       29.436 -21.032   7.855  0.00  0.00    +0.020 A 
ATOM      8  C   LIG    1       28.189 -21.665   7.890  0.00  0.00    +0.006 A 
ENDBRANCH   1   2
BRANCH   1   9
ATOM      9  C   LIG    1       24.745 -21.273   6.132  0.00  0.00    +0.049 A 
ATOM     10  N   LIG    1       24.860 -21.467   4.793  0.00  0.00    -0.259 NA
ATOM     11  C   LIG    1       23.906 -20.966   3.980  0.00  0.00    +0.111 A 
ATOM     12  C   LIG    1       22.823 -20.245   4.435  0.00  0.00    +0.020 A 
ATOM     13  C   LIG    1       22.723 -20.021   5.799  0.00  0.00    +0.003 A 
ATOM     14  C   LIG    1       23.684 -20.543   6.666  0.00  0.00    +0.024 A 
ENDBRANCH   1   9
BRANCH   1  15
ATOM     15  C   LIG    1       25.952 -23.458   6.772  0.00  0.00    +0.029 C 
BRANCH  15  16
ATOM     16  C   LIG    1       24.633 -24.258   6.781  0.00  0.00    +0.085 C 
BRANCH  16  18
ATOM     17  C   LIG    1       25.057 -25.454   4.729  0.00  0.00    +0.104 C 
ATOM     18  N   LIG    1       24.761 -25.595   6.158  0.00  0.00    -0.308 NA
ATOM     19  C   LIG    1       25.812 -26.394   6.794  0.00  0.00    +0.104 C 
ENDBRANCH  16  18
ENDBRANCH  15  16
ENDBRANCH   1  15
TORSDOF 5
ENDMDL
MODEL 5
REMARK VINA RESULT:      -8.0      2.600      5.518
REMARK  Name = *****
REMARK                            x       y       z     vdW  Elec       q    Type
REMARK                         _______ _______ _______ _____ _____    ______ ____
ROOT
ATOM      1  C   LIG    1       25.660 -21.605   6.445  0.00  0.00    +0.069 C 
ENDROOT
BRANCH   1   2
ATOM      2  C   LIG    1       25.273 -23.091   6.407  0.00  0.00    -0.038 A 
ATOM      3  C   LIG    1       26.275 -24.078   6.475  0.00  0.00    +0.006 A 
ATOM      4  C   LIG    1       25.943 -25.437   6.477  0.00  0.00    +0.020 A 
ATOM      5  C   LIG    1       24.607 -25.824   6.412  0.00  0.00    +0.041 A 
ATOM      6 CL   LIG    1       24.201 -27.497   6.393  0.00  0.00    -0.084 Cl
ATOM      7  C   LIG    1       23.600 -24.864   6.364  0.00  0.00    +0.020 A 
ATOM      8  C   LIG    1       23.930 -23.504   6.371  0.00  0.00    +0.006 A 
ENDBRANCH   1   2
BRANCH   1   9
ATOM      9  C   LIG    1       24.686 -20.691   5.691  0.00  0.00    +0.049 A 
ATOM     10  N   LIG    1       25.067 -20.218   4.476  0.00  0.00    -0.259 NA
ATOM     11  C   LIG    1       24.185 -19.493   3.757  0.00  0.00    +0.111 A 
ATOM     12  C   LIG    1       22.917 -19.183   4.198  0.00  0.00    +0.020 A 
ATOM     13  C   LIG    1       22.541 -19.639   5.452  0.00  0.00    +0.003 A 
ATOM     14  C   LIG    1       23.424 -20.408   6.211  0.00  0.00    +0.024 A 
ENDBRANCH   1   9
BRANCH   1  15
ATOM     15  C   LIG    1       25.871 -21.194   7.923  0.00  0.00    +0.029 C 
BRANCH  15  16
ATOM     16  C   LIG    1       27.167 -20.398   8.179  0.00  0.00    +0.085 C 
BRANCH  16  18
ATOM     17  C   LIG    1       28.712 -19.630   6.492  0.00  0.00    +0.104 C 
ATOM     18  N   LIG    1       28.275 -20.788   7.278  0.00  0.00    -0.308 NA
ATOM     19  C   LIG    1       29.418 -21.328   8.021  0.00  0.00    +0.104 C 
ENDBRANCH  16  18
ENDBRANCH  15  16
ENDBRANCH   1  15
TORSDOF 5
ENDMDL
MODEL 6
REMARK VINA RESULT:      -7.9      2.607      4.530
REMARK  Name = *****
REMARK                            x       y       z     vdW  Elec       q    Type
REMARK                         _______ _______ _______ _____ _____    ______ ____
ROOT
ATOM      1  C   LIG    1       24.842 -21.183   7.314  0.00  0.00    +0.069 C 
ENDROOT
BRANCH   1   2
ATOM      2  C   LIG    1       24.750 -22.689   7.029  0.00  0.00    -0.038 A 
ATOM      3  C   LIG    1       23.493 -23.286   6.815  0.00  0.00    +0.006 A 
ATOM      4  C   LIG    1       23.388 -24.650   6.521  0.00  0.00    +0.020 A 
ATOM      5  C   LIG    1       24.537 -25.431   6.437  0.00  0.00    +0.041 A 
ATOM      6 CL   LIG    1       24.406 -27.113   6.096  0.00  0.00    -0.084 Cl
ATOM      7  C   LIG    1       25.791 -24.857   6.625  0.00  0.00    +0.020 A 
ATOM      8  C   LIG    1       25.898 -23.491   6.911  0.00  0.00    +0.006 A 
ENDBRANCH   1   2
BRANCH   1   9
ATOM      9  C   LIG    1       26.253 -20.605   7.149  0.00  0.00    +0.049 A 
ATOM     10  N   LIG    1       27.003 -20.425   8.267  0.00  0.00    -0.259 NA
ATOM     11  C   LIG    1       28.280 -20.009   8.133  0.00  0.00    +0.111 A 
ATOM     12  C   LIG    1       28.865 -19.735   6.915  0.00  0.00    +0.020 A 
ATOM     13  C   LIG    1       28.090 -19.888   5.777  0.00  0.00    +0.003 A 
ATOM     14  C   LIG    1       26.771 -20.334   5.883  0.00  0.00    +0.024 A 
ENDBRANCH   1   9
BRANCH   1  15
ATOM     15  C   LIG    1       23.777 -20.458   6.454  0.00  0.00    +0.029 C 
BRANCH  15  16
ATOM     16  C   LIG    1       23.810 -20.834   4.958  0.00  0.00    +0.085 C 
BRANCH  16  18
ATOM     17  C   LIG    1       22.357 -18.915   4.802  0.00  0.00    +0.104 C 
ATOM     18  N   LIG    1       23.318 -19.751   4.077  0.00  0.00    -0.308 NA
ATOM     19  C   LIG    1       24.413 -18.911   3.581  0.00  0.00    +0.104 C 
ENDBRANCH  16  18
ENDBRANCH  15  16
ENDBRANCH   1  15
TORSDOF 5
ENDMDL
MODEL 7
REMARK VINA RESULT:      -7.6      1.072      4.742
REMARK  Name = *****
REMARK                            x       y       z     vdW  Elec       q    Type
REMARK                         _______ _______ _______ _____ _____    ______ ____
ROOT
ATOM      1  C   LIG    1       25.403 -21.941   7.116  0.00  0.00    +0.069 C 
ENDROOT
BRANCH   1   2
ATOM      2  C   LIG    1       24.556 -21.003   6.243  0.00  0.00    -0.038 A 
ATOM      3  C   LIG    1       24.981 -20.684   4.940  0.00  0.00    +0.006 A 
ATOM      4  C   LIG    1       24.209 -19.860   4.115  0.00  0.00    +0.020 A 
ATOM      5  C   LIG    1       23.003 -19.346   4.584  0.00  0.00    +0.041 A 
ATOM      6 CL   LIG    1       22.062 -18.315   3.575  0.00  0.00    -0.084 Cl
ATOM      7  C   LIG    1       22.553 -19.666   5.861  0.00  0.00    +0.020 A 
ATOM      8  C   LIG    1       23.321 -20.498   6.684  0.00  0.00    +0.006 A 
ENDBRANCH   1   2
BRANCH   1   9
ATOM      9  C   LIG    1       25.143 -23.431   6.861  0.00  0.00    +0.049 A 
ATOM     10  N   LIG    1       23.855 -23.836   6.712  0.00  0.00    -0.259 NA
ATOM     11  C   LIG    1       23.613 -25.125   6.392  0.00  0.00    +0.111 A 
ATOM     12  C   LIG    1       24.607 -26.065   6.226  0.00  0.00    +0.020 A 
ATOM     13  C   LIG    1       25.918 -25.658   6.410  0.00  0.00    +0.003 A 
ATOM     14  C   LIG    1       26.201 -24.328   6.723  0.00  0.00    +0.024 A 
ENDBRANCH   1   9
BRANCH   1  15
ATOM     15  C   LIG    1       26.891 -21.541   6.958  0.00  0.00    +0.029 C 
BRANCH  15  16
ATOM     16  C   LIG    1       27.268 -20.220   7.662  0.00  0.00    +0.085 C 
BRANCH  16  18
ATOM     17  C   LIG    1       29.376 -21.387   7.794  0.00  0.00    +0.104 C 
ATOM     18  N   LIG    1       28.585 -20.278   8.336  0.00  0.00    -0.308 NA
ATOM     19  C   LIG    1       29.333 -19.027   8.179  0.00  0.00    +0.104 C 
ENDBRANCH  16  18
ENDBRANCH  15  16
ENDBRANCH   1  15
TORSDOF 5
ENDMDL
MODEL 8
REMARK VINA RESULT:      -7.5      2.866      5.542
REMARK  Name = *****
REMARK                            x       y       z     vdW  Elec       q    Type
REMARK                         _______ _______ _______ _____ _____    ______ ____
ROOT
ATOM      1  C   LIG    1       25.409 -21.610   6.295  0.00  0.00    +0.069 C 
ENDROOT
BRANCH   1   2
ATOM      2  C   LIG    1       26.832 -21.056   6.464  0.00  0.00    -0.038 A 
ATOM      3  C   LIG    1       27.293 -20.037   5.609  0.00  0.00    +0.006 A 
ATOM      4  C   LIG    1       28.573 -19.494   5.766  0.00  0.00    +0.020 A 
ATOM      5  C   LIG    1       29.404 -19.963   6.780  0.00  0.00    +0.041 A 
ATOM      6 CL   LIG    1       30.987 -19.308   6.960  0.00  0.00    -0.084 Cl
ATOM      7  C   LIG    1       28.960 -20.955   7.649  0.00  0.00    +0.020 A 
ATOM      8  C   LIG    1       27.677 -21.493   7.498  0.00  0.00    +0.006 A 
ENDBRANCH   1   2
BRANCH   1   9
ATOM      9  C   LIG    1       25.350 -23.137   6.159  0.00  0.00    +0.049 A 
ATOM     10  N   LIG    1       24.938 -23.655   4.972  0.00  0.00    -0.259 NA
ATOM     11  C   LIG    1       24.972 -24.993   4.802  0.00  0.00    +0.111 A 
ATOM     12  C   LIG    1       25.384 -25.873   5.780  0.00  0.00    +0.020 A 
ATOM     13  C   LIG    1       25.773 -25.346   7.000  0.00  0.00    +0.003 A 
ATOM     14  C   LIG    1       25.767 -23.964   7.200  0.00  0.00    +0.024 A 
ENDBRANCH   1   9
BRANCH   1  15
ATOM     15  C   LIG    1       24.533 -21.061   7.448  0.00  0.00    +0.029 C 
BRANCH  15  16
ATOM     16  C   LIG    1       23.190 -20.456   6.988  0.00  0.00    +0.085 C 
BRANCH  16  18
ATOM     17  C   LIG    1       22.053 -21.486   5.126  0.00  0.00    +0.104 C 
ATOM     18  N   LIG    1       23.025 -20.460   5.516  0.00  0.00    -0.308 NA
ATOM     19  C   LIG    1       22.582 -19.157   5.013  0.00  0.00    +0.104 C 
ENDBRANCH  16  18
ENDBRANCH  15  16
ENDBRANCH   1  15
TORSDOF 5
ENDMDL
MODEL 9
REMARK VINA RESULT:      -7.1      2.810      5.904
REMARK  Name = *****
REMARK                            x       y       z     vdW  Elec       q    Type
REMARK                         _______ _______ _______ _____ _____    ______ ____
ROOT
ATOM      1  C   LIG    1       24.872 -21.233   5.559  0.00  0.00    +0.069 C 
ENDROOT
BRANCH   1   2
ATOM      2  C   LIG    1       26.153 -20.697   6.214  0.00  0.00    -0.038 A 
ATOM      3  C   LIG    1       26.306 -20.760   7.612  0.00  0.00    +0.006 A 
ATOM      4  C   LIG    1       27.478 -20.308   8.227  0.00  0.00    +0.020 A 
ATOM      5  C   LIG    1       28.511 -19.789   7.451  0.00  0.00    +0.041 A 
ATOM      6 CL   LIG    1       29.945 -19.213   8.210  0.00  0.00    -0.084 Cl
ATOM      7  C   LIG    1       28.389 -19.736   6.066  0.00  0.00    +0.020 A 
ATOM      8  C   LIG    1       27.220 -20.196   5.449  0.00  0.00    +0.006 A 
ENDBRANCH   1   2
BRANCH   1   9
ATOM      9  C   LIG    1       24.570 -22.699   5.895  0.00  0.00    +0.049 A 
ATOM     10  N   LIG    1       23.387 -22.984   6.498  0.00  0.00    -0.259 NA
ATOM     11  C   LIG    1       23.063 -24.276   6.713  0.00  0.00    +0.111 A 
ATOM     12  C   LIG    1       23.881 -25.332   6.370  0.00  0.00    +0.020 A 
ATOM     13  C   LIG    1       25.101 -25.039   5.783  0.00  0.00    +0.003 A 
ATOM     14  C   LIG    1       25.457 -23.713   5.531  0.00  0.00    +0.024 A 
ENDBRANCH   1   9
BRANCH   1  15
ATOM     15  C   LIG    1       23.708 -20.271   5.906  0.00  0.00    +0.029 C 
BRANCH  15  16
ATOM     16  C   LIG    1       22.631 -20.162   4.808  0.00  0.00    +0.085 C 
BRANCH  16  18
ATOM     17  C   LIG    1       22.148 -17.805   4.621  0.00  0.00    +0.104 C 
ATOM     18  N   LIG    1       22.782 -18.953   3.965  0.00  0.00    -0.308 NA
ATOM     19  C   LIG    1       24.190 -18.645   3.702  0.00  0.00    +0.104 C 
ENDBRANCH  16  18
ENDBRANCH  15  16
ENDBRANCH   1  15
TORSDOF 5
ENDMDL
