MODEL 1
REMARK VINA RESULT:      -4.8      0.000      0.000
REMARK  Name = *****
REMARK                            x       y       z     vdW  Elec       q    Type
REMARK                         _______ _______ _______ _____ _____    ______ ____
ROOT
ATOM      1  C   LIG    1       24.929 -14.202   4.092  0.00  0.00    +0.179 C 
ATOM      2  C   LIG    1       26.349 -13.642   3.944  0.00  0.00    +0.177 C 
ATOM      3  C   LIG    1       27.373 -14.731   4.265  0.00  0.00    +0.180 C 
ATOM      4  C   LIG    1       27.099 -16.034   3.508  0.00  0.00    +0.214 C 
ATOM      5  C   LIG    1       25.628 -16.459   3.725  0.00  0.00    +0.339 C 
ATOM      6  O   LIG    1       24.762 -15.395   3.312  0.00  0.00    -0.331 OA
ENDROOT
BRANCH   2   7
ATOM      7  O   LIG    1       26.550 -12.543   4.843  0.00  0.00    -0.387 OA
ATOM      8  H   LIG    1       25.826 -11.909   4.670  0.00  0.00    +0.210 HD
ENDBRANCH   2   7
BRANCH   3   9
ATOM      9  O   LIG    1       28.703 -14.256   3.973  0.00  0.00    -0.386 OA
ATOM     10  H   LIG    1       29.329 -14.980   4.157  0.00  0.00    +0.210 HD
ENDBRANCH   3   9
BRANCH   4  11
ATOM     11  O   LIG    1       28.022 -17.028   3.985  0.00  0.00    -0.383 OA
ATOM     12  H   LIG    1       27.988 -17.765   3.344  0.00  0.00    +0.210 HD
ENDBRANCH   4  11
BRANCH   1  13
ATOM     13  C   LIG    1       23.865 -13.186   3.654  0.00  0.00    +0.190 C 
BRANCH  13  14
ATOM     14  O   LIG    1       23.848 -12.051   4.519  0.00  0.00    -0.392 OA
ATOM     15  H   LIG    1       23.073 -11.520   4.270  0.00  0.00    +0.209 HD
ENDBRANCH  13  14
ENDBRANCH   1  13
BRANCH   5  16
ATOM     16  O   LIG    1       25.371 -17.640   2.946  0.00  0.00    -0.461 OA
BRANCH  16  17
ATOM     17  C   LIG    1       24.745 -18.670   3.599  0.00  0.00    +0.124 A 
ATOM     18  C   LIG    1       23.391 -18.472   3.883  0.00  0.00    +0.049 A 
ATOM     19  C   LIG    1       22.655 -19.456   4.549  0.00  0.00    +0.049 A 
ATOM     20  C   LIG    1       23.279 -20.634   4.942  0.00  0.00    +0.117 A 
ATOM     21  C   LIG    1       24.632 -20.836   4.688  0.00  0.00    +0.049 A 
ATOM     22  C   LIG    1       25.366 -19.849   4.021  0.00  0.00    +0.049 A 
BRANCH  20  23
ATOM     23  O   LIG    1       22.530 -21.571   5.589  0.00  0.00    -0.507 OA
ATOM     24  H   LIG    1       22.052 -22.095   4.931  0.00  0.00    +0.292 HD
ENDBRANCH  20  23
ENDBRANCH  16  17
ENDBRANCH   5  16
TORSDOF 8
ENDMDL
MODEL 2
REMARK VINA RESULT:      -4.1      1.806      5.849
REMARK  Name = *****
REMARK                            x       y       z     vdW  Elec       q    Type
REMARK                         _______ _______ _______ _____ _____    ______ ____
ROOT
ATOM      1  C   LIG    1       25.070 -18.846   3.524  0.00  0.00    +0.179 C 
ATOM      2  C   LIG    1       25.636 -19.746   4.628  0.00  0.00    +0.177 C 
ATOM      3  C   LIG    1       27.159 -19.611   4.679  0.00  0.00    +0.180 C 
ATOM      4  C   LIG    1       27.616 -18.149   4.723  0.00  0.00    +0.214 C 
ATOM      5  C   LIG    1       26.943 -17.362   3.575  0.00  0.00    +0.339 C 
ATOM      6  O   LIG    1       25.521 -17.492   3.681  0.00  0.00    -0.331 OA
ENDROOT
BRANCH   2   7
ATOM      7  O   LIG    1       25.305 -21.118   4.375  0.00  0.00    -0.387 OA
ATOM      8  H   LIG    1       26.028 -21.653   4.759  0.00  0.00    +0.210 HD
ENDBRANCH   2   7
BRANCH   3   9
ATOM      9  O   LIG    1       27.679 -20.330   5.814  0.00  0.00    -0.386 OA
ATOM     10  H   LIG    1       28.279 -19.734   6.300  0.00  0.00    +0.210 HD
ENDBRANCH   3   9
BRANCH   4  11
ATOM     11  O   LIG    1       29.050 -18.129   4.622  0.00  0.00    -0.383 OA
ATOM     12  H   LIG    1       29.329 -17.223   4.859  0.00  0.00    +0.210 HD
ENDBRANCH   4  11
BRANCH   1  13
ATOM     13  C   LIG    1       23.535 -18.845   3.520  0.00  0.00    +0.190 C 
BRANCH  13  14
ATOM     14  O   LIG    1       23.015 -19.427   4.715  0.00  0.00    -0.392 OA
ATOM     15  H   LIG    1       23.511 -20.249   4.866  0.00  0.00    +0.209 HD
ENDBRANCH  13  14
ENDBRANCH   1  13
BRANCH   5  16
ATOM     16  O   LIG    1       27.324 -15.980   3.680  0.00  0.00    -0.461 OA
BRANCH  16  17
ATOM     17  C   LIG    1       26.340 -15.060   3.428  0.00  0.00    +0.124 A 
ATOM     18  C   LIG    1       26.641 -14.103   2.456  0.00  0.00    +0.049 A 
ATOM     19  C   LIG    1       25.712 -13.115   2.120  0.00  0.00    +0.049 A 
ATOM     20  C   LIG    1       24.484 -13.077   2.770  0.00  0.00    +0.117 A 
ATOM     21  C   LIG    1       24.178 -14.008   3.757  0.00  0.00    +0.049 A 
ATOM     22  C   LIG    1       25.110 -14.996   4.090  0.00  0.00    +0.049 A 
BRANCH  20  23
ATOM     23  O   LIG    1       23.602 -12.099   2.416  0.00  0.00    -0.507 OA
ATOM     24  H   LIG    1       24.042 -11.489   1.807  0.00  0.00    +0.292 HD
ENDBRANCH  20  23
ENDBRANCH  16  17
ENDBRANCH   5  16
TORSDOF 8
ENDMDL
MODEL 3
REMARK VINA RESULT:      -4.0      2.152      6.501
REMARK  Name = *****
REMARK                            x       y       z     vdW  Elec       q    Type
REMARK                         _______ _______ _______ _____ _____    ______ ____
ROOT
ATOM      1  C   LIG    1       27.338 -19.458   5.549  0.00  0.00    +0.179 C 
ATOM      2  C   LIG    1       26.565 -20.739   5.213  0.00  0.00    +0.177 C 
ATOM      3  C   LIG    1       25.162 -20.384   4.717  0.00  0.00    +0.180 C 
ATOM      4  C   LIG    1       25.181 -19.320   3.616  0.00  0.00    +0.214 C 
ATOM      5  C   LIG    1       26.019 -18.107   4.084  0.00  0.00    +0.339 C 
ATOM      6  O   LIG    1       27.334 -18.547   4.440  0.00  0.00    -0.331 OA
ENDROOT
BRANCH   2   7
ATOM      7  O   LIG    1       26.446 -21.572   6.374  0.00  0.00    -0.387 OA
ATOM      8  H   LIG    1       26.093 -22.429   6.064  0.00  0.00    +0.210 HD
ENDBRANCH   2   7
BRANCH   3   9
ATOM      9  O   LIG    1       24.491 -21.571   4.251  0.00  0.00    -0.386 OA
ATOM     10  H   LIG    1       25.169 -22.241   4.046  0.00  0.00    +0.210 HD
ENDBRANCH   3   9
BRANCH   4  11
ATOM     11  O   LIG    1       23.822 -18.956   3.326  0.00  0.00    -0.383 OA
ATOM     12  H   LIG    1       23.671 -18.091   3.756  0.00  0.00    +0.210 HD
ENDBRANCH   4  11
BRANCH   1  13
ATOM     13  C   LIG    1       28.797 -19.754   5.925  0.00  0.00    +0.190 C 
BRANCH  13  14
ATOM     14  O   LIG    1       28.966 -21.120   6.304  0.00  0.00    -0.392 OA
ATOM     15  H   LIG    1       29.569 -21.126   7.066  0.00  0.00    +0.209 HD
ENDBRANCH  13  14
ENDBRANCH   1  13
BRANCH   5  16
ATOM     16  O   LIG    1       26.088 -17.154   3.009  0.00  0.00    -0.461 OA
BRANCH  16  17
ATOM     17  C   LIG    1       25.724 -15.869   3.316  0.00  0.00    +0.124 A 
ATOM     18  C   LIG    1       24.417 -15.705   3.784  0.00  0.00    +0.049 A 
ATOM     19  C   LIG    1       23.938 -14.438   4.124  0.00  0.00    +0.049 A 
ATOM     20  C   LIG    1       24.765 -13.330   3.982  0.00  0.00    +0.117 A 
ATOM     21  C   LIG    1       26.060 -13.472   3.495  0.00  0.00    +0.049 A 
ATOM     22  C   LIG    1       26.537 -14.743   3.156  0.00  0.00    +0.049 A 
BRANCH  20  23
ATOM     23  O   LIG    1       24.264 -12.108   4.323  0.00  0.00    -0.507 OA
ATOM     24  H   LIG    1       24.668 -11.437   3.755  0.00  0.00    +0.292 HD
ENDBRANCH  20  23
ENDBRANCH  16  17
ENDBRANCH   5  16
TORSDOF 8
ENDMDL
MODEL 4
REMARK VINA RESULT:      -3.7      1.686      5.905
REMARK  Name = *****
REMARK                            x       y       z     vdW  Elec       q    Type
REMARK                         _______ _______ _______ _____ _____    ______ ____
ROOT
ATOM      1  C   LIG    1       23.427 -19.047   3.709  0.00  0.00    +0.179 C 
ATOM      2  C   LIG    1       23.791 -20.103   4.759  0.00  0.00    +0.177 C 
ATOM      3  C   LIG    1       25.265 -20.489   4.618  0.00  0.00    +0.180 C 
ATOM      4  C   LIG    1       26.188 -19.268   4.567  0.00  0.00    +0.214 C 
ATOM      5  C   LIG    1       25.681 -18.281   3.490  0.00  0.00    +0.339 C 
ATOM      6  O   LIG    1       24.323 -17.927   3.773  0.00  0.00    -0.331 OA
ENDROOT
BRANCH   2   7
ATOM      7  O   LIG    1       22.990 -21.280   4.585  0.00  0.00    -0.387 OA
ATOM      8  H   LIG    1       23.540 -21.919   4.091  0.00  0.00    +0.210 HD
ENDBRANCH   2   7
BRANCH   3   9
ATOM      9  O   LIG    1       25.650 -21.360   5.700  0.00  0.00    -0.386 OA
ATOM     10  H   LIG    1       24.913 -21.396   6.336  0.00  0.00    +0.210 HD
ENDBRANCH   3   9
BRANCH   4  11
ATOM     11  O   LIG    1       27.521 -19.729   4.290  0.00  0.00    -0.383 OA
ATOM     12  H   LIG    1       27.778 -19.329   3.437  0.00  0.00    +0.210 HD
ENDBRANCH   4  11
BRANCH   1  13
ATOM     13  C   LIG    1       21.994 -18.529   3.894  0.00  0.00    +0.190 C 
BRANCH  13  14
ATOM     14  O   LIG    1       21.948 -17.464   4.842  0.00  0.00    -0.392 OA
ATOM     15  H   LIG    1       22.788 -16.981   4.762  0.00  0.00    +0.209 HD
ENDBRANCH  13  14
ENDBRANCH   1  13
BRANCH   5  16
ATOM     16  O   LIG    1       26.515 -17.110   3.511  0.00  0.00    -0.461 OA
BRANCH  16  17
ATOM     17  C   LIG    1       25.867 -15.905   3.413  0.00  0.00    +0.124 A 
ATOM     18  C   LIG    1       26.515 -14.931   2.650  0.00  0.00    +0.049 A 
ATOM     19  C   LIG    1       25.947 -13.664   2.485  0.00  0.00    +0.049 A 
ATOM     20  C   LIG    1       24.735 -13.370   3.098  0.00  0.00    +0.117 A 
ATOM     21  C   LIG    1       24.089 -14.321   3.880  0.00  0.00    +0.049 A 
ATOM     22  C   LIG    1       24.660 -15.588   4.043  0.00  0.00    +0.049 A 
BRANCH  20  23
ATOM     23  O   LIG    1       24.211 -12.125   2.915  0.00  0.00    -0.507 OA
ATOM     24  H   LIG    1       24.746 -11.487   3.410  0.00  0.00    +0.292 HD
ENDBRANCH  20  23
ENDBRANCH  16  17
ENDBRANCH   5  16
TORSDOF 8
ENDMDL
MODEL 5
REMARK VINA RESULT:      -3.5      1.736      6.793
REMARK  Name = *****
REMARK                            x       y       z     vdW  Elec       q    Type
REMARK                         _______ _______ _______ _____ _____    ______ ____
ROOT
ATOM      1  C   LIG    1       25.860 -20.140   5.898  0.00  0.00    +0.179 C 
ATOM      2  C   LIG    1       24.608 -21.005   5.710  0.00  0.00    +0.177 C 
ATOM      3  C   LIG    1       23.464 -20.151   5.160  0.00  0.00    +0.180 C 
ATOM      4  C   LIG    1       23.883 -19.327   3.938  0.00  0.00    +0.214 C 
ATOM      5  C   LIG    1       25.170 -18.535   4.266  0.00  0.00    +0.339 C 
ATOM      6  O   LIG    1       26.193 -19.445   4.687  0.00  0.00    -0.331 OA
ENDROOT
BRANCH   2   7
ATOM      7  O   LIG    1       24.198 -21.572   6.962  0.00  0.00    -0.387 OA
ATOM      8  H   LIG    1       23.927 -20.823   7.529  0.00  0.00    +0.210 HD
ENDBRANCH   2   7
BRANCH   3   9
ATOM      9  O   LIG    1       22.339 -20.990   4.833  0.00  0.00    -0.386 OA
ATOM     10  H   LIG    1       21.955 -21.319   5.666  0.00  0.00    +0.210 HD
ENDBRANCH   3   9
BRANCH   4  11
ATOM     11  O   LIG    1       22.791 -18.460   3.592  0.00  0.00    -0.383 OA
ATOM     12  H   LIG    1       22.172 -18.481   4.348  0.00  0.00    +0.210 HD
ENDBRANCH   4  11
BRANCH   1  13
ATOM     13  C   LIG    1       27.074 -20.977   6.323  0.00  0.00    +0.190 C 
BRANCH  13  14
ATOM     14  O   LIG    1       28.285 -20.433   5.799  0.00  0.00    -0.392 OA
ATOM     15  H   LIG    1       28.058 -19.998   4.960  0.00  0.00    +0.209 HD
ENDBRANCH  13  14
ENDBRANCH   1  13
BRANCH   5  16
ATOM     16  O   LIG    1       25.588 -17.830   3.085  0.00  0.00    -0.461 OA
BRANCH  16  17
ATOM     17  C   LIG    1       26.033 -16.547   3.272  0.00  0.00    +0.124 A 
ATOM     18  C   LIG    1       27.334 -16.424   3.768  0.00  0.00    +0.049 A 
ATOM     19  C   LIG    1       27.889 -15.162   4.000  0.00  0.00    +0.049 A 
ATOM     20  C   LIG    1       27.134 -14.023   3.749  0.00  0.00    +0.117 A 
ATOM     21  C   LIG    1       25.829 -14.128   3.279  0.00  0.00    +0.049 A 
ATOM     22  C   LIG    1       25.277 -15.392   3.047  0.00  0.00    +0.049 A 
BRANCH  20  23
ATOM     23  O   LIG    1       27.707 -12.809   3.988  0.00  0.00    -0.507 OA
ATOM     24  H   LIG    1       27.123 -12.117   3.646  0.00  0.00    +0.292 HD
ENDBRANCH  20  23
ENDBRANCH  16  17
ENDBRANCH   5  16
TORSDOF 8
ENDMDL
MODEL 6
REMARK VINA RESULT:      -3.4      1.778      2.742
REMARK  Name = *****
REMARK                            x       y       z     vdW  Elec       q    Type
REMARK                         _______ _______ _______ _____ _____    ______ ____
ROOT
ATOM      1  C   LIG    1       24.112 -14.552   4.534  0.00  0.00    +0.179 C 
ATOM      2  C   LIG    1       24.098 -13.336   3.601  0.00  0.00    +0.177 C 
ATOM      3  C   LIG    1       25.495 -13.111   3.019  0.00  0.00    +0.180 C 
ATOM      4  C   LIG    1       26.095 -14.389   2.424  0.00  0.00    +0.214 C 
ATOM      5  C   LIG    1       26.012 -15.531   3.463  0.00  0.00    +0.339 C 
ATOM      6  O   LIG    1       24.650 -15.706   3.869  0.00  0.00    -0.331 OA
ENDROOT
BRANCH   2   7
ATOM      7  O   LIG    1       23.704 -12.159   4.318  0.00  0.00    -0.387 OA
ATOM      8  H   LIG    1       24.513 -11.810   4.742  0.00  0.00    +0.210 HD
ENDBRANCH   2   7
BRANCH   3   9
ATOM      9  O   LIG    1       25.451 -12.071   2.023  0.00  0.00    -0.386 OA
ATOM     10  H   LIG    1       26.292 -11.579   2.063  0.00  0.00    +0.210 HD
ENDBRANCH   3   9
BRANCH   4  11
ATOM     11  O   LIG    1       27.451 -14.107   2.041  0.00  0.00    -0.383 OA
ATOM     12  H   LIG    1       28.019 -14.499   2.732  0.00  0.00    +0.210 HD
ENDBRANCH   4  11
BRANCH   1  13
ATOM     13  C   LIG    1       22.705 -14.900   5.040  0.00  0.00    +0.190 C 
BRANCH  13  14
ATOM     14  O   LIG    1       22.401 -16.276   4.816  0.00  0.00    -0.392 OA
ATOM     15  H   LIG    1       23.209 -16.778   5.018  0.00  0.00    +0.209 HD
ENDBRANCH  13  14
ENDBRANCH   1  13
BRANCH   5  16
ATOM     16  O   LIG    1       26.509 -16.739   2.860  0.00  0.00    -0.461 OA
BRANCH  16  17
ATOM     17  C   LIG    1       26.171 -17.910   3.485  0.00  0.00    +0.124 A 
ATOM     18  C   LIG    1       27.139 -18.438   4.345  0.00  0.00    +0.049 A 
ATOM     19  C   LIG    1       26.902 -19.631   5.033  0.00  0.00    +0.049 A 
ATOM     20  C   LIG    1       25.701 -20.304   4.849  0.00  0.00    +0.117 A 
ATOM     21  C   LIG    1       24.737 -19.805   3.979  0.00  0.00    +0.049 A 
ATOM     22  C   LIG    1       24.976 -18.610   3.292  0.00  0.00    +0.049 A 
BRANCH  20  23
ATOM     23  O   LIG    1       25.504 -21.465   5.537  0.00  0.00    -0.507 OA
ATOM     24  H   LIG    1       26.017 -21.430   6.357  0.00  0.00    +0.292 HD
ENDBRANCH  20  23
ENDBRANCH  16  17
ENDBRANCH   5  16
TORSDOF 8
ENDMDL
MODEL 7
REMARK VINA RESULT:      -2.9      1.778      6.755
REMARK  Name = *****
REMARK                            x       y       z     vdW  Elec       q    Type
REMARK                         _______ _______ _______ _____ _____    ______ ____
ROOT
ATOM      1  C   LIG    1       25.234 -20.335   5.752  0.00  0.00    +0.179 C 
ATOM      2  C   LIG    1       23.831 -20.935   5.604  0.00  0.00    +0.177 C 
ATOM      3  C   LIG    1       22.842 -19.847   5.182  0.00  0.00    +0.180 C 
ATOM      4  C   LIG    1       23.340 -19.037   3.980  0.00  0.00    +0.214 C 
ATOM      5  C   LIG    1       24.772 -18.524   4.261  0.00  0.00    +0.339 C 
ATOM      6  O   LIG    1       25.624 -19.636   4.560  0.00  0.00    -0.331 OA
ENDROOT
BRANCH   2   7
ATOM      7  O   LIG    1       23.392 -21.496   6.849  0.00  0.00    -0.387 OA
ATOM      8  H   LIG    1       23.713 -22.419   6.864  0.00  0.00    +0.210 HD
ENDBRANCH   2   7
BRANCH   3   9
ATOM      9  O   LIG    1       21.560 -20.435   4.888  0.00  0.00    -0.386 OA
ATOM     10  H   LIG    1       21.698 -21.153   4.243  0.00  0.00    +0.210 HD
ENDBRANCH   3   9
BRANCH   4  11
ATOM     11  O   LIG    1       22.417 -17.959   3.757  0.00  0.00    -0.383 OA
ATOM     12  H   LIG    1       21.999 -18.129   2.891  0.00  0.00    +0.210 HD
ENDBRANCH   4  11
BRANCH   1  13
ATOM     13  C   LIG    1       26.287 -21.412   6.046  0.00  0.00    +0.190 C 
BRANCH  13  14
ATOM     14  O   LIG    1       27.396 -20.867   6.761  0.00  0.00    -0.392 OA
ATOM     15  H   LIG    1       27.620 -21.506   7.459  0.00  0.00    +0.209 HD
ENDBRANCH  13  14
ENDBRANCH   1  13
BRANCH   5  16
ATOM     16  O   LIG    1       25.249 -17.833   3.093  0.00  0.00    -0.461 OA
BRANCH  16  17
ATOM     17  C   LIG    1       25.997 -16.707   3.321  0.00  0.00    +0.124 A 
ATOM     18  C   LIG    1       25.392 -15.498   2.970  0.00  0.00    +0.049 A 
ATOM     19  C   LIG    1       26.064 -14.287   3.156  0.00  0.00    +0.049 A 
ATOM     20  C   LIG    1       27.351 -14.289   3.680  0.00  0.00    +0.117 A 
ATOM     21  C   LIG    1       27.978 -15.486   4.012  0.00  0.00    +0.049 A 
ATOM     22  C   LIG    1       27.301 -16.696   3.825  0.00  0.00    +0.049 A 
BRANCH  20  23
ATOM     23  O   LIG    1       27.977 -13.090   3.848  0.00  0.00    -0.507 OA
ATOM     24  H   LIG    1       27.566 -12.626   4.592  0.00  0.00    +0.292 HD
ENDBRANCH  20  23
ENDBRANCH  16  17
ENDBRANCH   5  16
TORSDOF 8
ENDMDL
MODEL 8
REMARK VINA RESULT:      -2.8      1.914      3.269
REMARK  Name = *****
REMARK                            x       y       z     vdW  Elec       q    Type
REMARK                         _______ _______ _______ _____ _____    ______ ____
ROOT
ATOM      1  C   LIG    1       26.868 -13.875   4.264  0.00  0.00    +0.179 C 
ATOM      2  C   LIG    1       26.674 -12.551   3.514  0.00  0.00    +0.177 C 
ATOM      3  C   LIG    1       25.619 -12.723   2.421  0.00  0.00    +0.180 C 
ATOM      4  C   LIG    1       24.335 -13.376   2.943  0.00  0.00    +0.214 C 
ATOM      5  C   LIG    1       24.689 -14.679   3.699  0.00  0.00    +0.339 C 
ATOM      6  O   LIG    1       25.615 -14.380   4.749  0.00  0.00    -0.331 OA
ENDROOT
BRANCH   2   7
ATOM      7  O   LIG    1       27.904 -12.136   2.905  0.00  0.00    -0.387 OA
ATOM      8  H   LIG    1       27.770 -11.214   2.611  0.00  0.00    +0.210 HD
ENDBRANCH   2   7
BRANCH   3   9
ATOM      9  O   LIG    1       25.320 -11.447   1.822  0.00  0.00    -0.386 OA
ATOM     10  H   LIG    1       24.622 -11.582   1.155  0.00  0.00    +0.210 HD
ENDBRANCH   3   9
BRANCH   4  11
ATOM     11  O   LIG    1       23.474 -13.623   1.819  0.00  0.00    -0.383 OA
ATOM     12  H   LIG    1       22.867 -14.340   2.090  0.00  0.00    +0.210 HD
ENDBRANCH   4  11
BRANCH   1  13
ATOM     13  C   LIG    1       27.821 -13.721   5.457  0.00  0.00    +0.190 C 
BRANCH  13  14
ATOM     14  O   LIG    1       28.293 -12.379   5.572  0.00  0.00    -0.392 OA
ATOM     15  H   LIG    1       27.768 -11.956   6.272  0.00  0.00    +0.209 HD
ENDBRANCH  13  14
ENDBRANCH   1  13
BRANCH   5  16
ATOM     16  O   LIG    1       23.481 -15.235   4.245  0.00  0.00    -0.461 OA
BRANCH  16  17
ATOM     17  C   LIG    1       23.384 -16.602   4.232  0.00  0.00    +0.124 A 
ATOM     18  C   LIG    1       24.466 -17.279   3.663  0.00  0.00    +0.049 A 
ATOM     19  C   LIG    1       24.474 -18.675   3.594  0.00  0.00    +0.049 A 
ATOM     20  C   LIG    1       23.388 -19.393   4.082  0.00  0.00    +0.117 A 
ATOM     21  C   LIG    1       22.293 -18.733   4.629  0.00  0.00    +0.049 A 
ATOM     22  C   LIG    1       22.289 -17.336   4.697  0.00  0.00    +0.049 A 
BRANCH  20  23
ATOM     23  O   LIG    1       23.429 -20.753   3.997  0.00  0.00    -0.507 OA
ATOM     24  H   LIG    1       24.232 -21.010   3.522  0.00  0.00    +0.292 HD
ENDBRANCH  20  23
ENDBRANCH  16  17
ENDBRANCH   5  16
TORSDOF 8
ENDMDL
MODEL 9
REMARK VINA RESULT:      -1.9      2.274      3.953
REMARK  Name = *****
REMARK                            x       y       z     vdW  Elec       q    Type
REMARK                         _______ _______ _______ _____ _____    ______ ____
ROOT
ATOM      1  C   LIG    1       24.996 -16.029   3.312  0.00  0.00    +0.179 C 
ATOM      2  C   LIG    1       24.110 -15.381   4.382  0.00  0.00    +0.177 C 
ATOM      3  C   LIG    1       22.760 -16.097   4.443  0.00  0.00    +0.180 C 
ATOM      4  C   LIG    1       22.908 -17.619   4.546  0.00  0.00    +0.214 C 
ATOM      5  C   LIG    1       23.849 -18.123   3.427  0.00  0.00    +0.339 C 
ATOM      6  O   LIG    1       25.106 -17.445   3.523  0.00  0.00    -0.331 OA
ENDROOT
BRANCH   2   7
ATOM      7  O   LIG    1       23.884 -13.999   4.075  0.00  0.00    -0.387 OA
ATOM      8  H   LIG    1       22.916 -13.889   3.991  0.00  0.00    +0.210 HD
ENDBRANCH   2   7
BRANCH   3   9
ATOM      9  O   LIG    1       21.987 -15.596   5.552  0.00  0.00    -0.386 OA
ATOM     10  H   LIG    1       21.411 -14.883   5.220  0.00  0.00    +0.210 HD
ENDBRANCH   3   9
BRANCH   4  11
ATOM     11  O   LIG    1       21.597 -18.200   4.451  0.00  0.00    -0.383 OA
ATOM     12  H   LIG    1       21.127 -17.954   5.271  0.00  0.00    +0.210 HD
ENDBRANCH   4  11
BRANCH   1  13
ATOM     13  C   LIG    1       26.410 -15.432   3.303  0.00  0.00    +0.190 C 
BRANCH  13  14
ATOM     14  O   LIG    1       26.548 -14.448   2.277  0.00  0.00    -0.392 OA
ATOM     15  H   LIG    1       26.229 -14.855   1.454  0.00  0.00    +0.209 HD
ENDBRANCH  13  14
ENDBRANCH   1  13
BRANCH   5  16
ATOM     16  O   LIG    1       24.035 -19.540   3.588  0.00  0.00    -0.461 OA
BRANCH  16  17
ATOM     17  C   LIG    1       24.975 -19.926   4.508  0.00  0.00    +0.124 A 
ATOM     18  C   LIG    1       26.293 -19.569   4.213  0.00  0.00    +0.049 A 
ATOM     19  C   LIG    1       27.333 -19.913   5.081  0.00  0.00    +0.049 A 
ATOM     20  C   LIG    1       27.053 -20.629   6.239  0.00  0.00    +0.117 A 
ATOM     21  C   LIG    1       25.750 -21.013   6.535  0.00  0.00    +0.049 A 
ATOM     22  C   LIG    1       24.711 -20.666   5.665  0.00  0.00    +0.049 A 
BRANCH  20  23
ATOM     23  O   LIG    1       28.092 -20.948   7.062  0.00  0.00    -0.507 OA
ATOM     24  H   LIG    1       28.389 -20.145   7.513  0.00  0.00    +0.292 HD
ENDBRANCH  20  23
ENDBRANCH  16  17
ENDBRANCH   5  16
TORSDOF 8
ENDMDL
