MODEL 1
REMARK VINA RESULT:      -5.4      0.000      0.000
REMARK  Name = *****
REMARK                            x       y       z     vdW  Elec       q    Type
REMARK                         _______ _______ _______ _____ _____    ______ ____
ROOT
ATOM      1  C   LIG    1       25.529 -28.053  14.864  0.00  0.00    +0.019 C 
ATOM      2  C   LIG    1       25.391 -27.545  13.421  0.00  0.00    +0.029 C 
ATOM      3  C   LIG    1       26.730 -27.100  12.880  0.00  0.00    +0.140 C 
ATOM      4  O   LIG    1       27.470 -27.790  12.190  0.00  0.00    -0.297 OA
ATOM      5  C   LIG    1       27.003 -25.670  13.237  0.00  0.00    +0.075 C 
ATOM      6  C   LIG    1       25.655 -25.223  13.895  0.00  0.00    +0.012 C 
ATOM      7  C   LIG    1       24.609 -26.223  13.326  0.00  0.00    +0.006 C 
ATOM      8  C   LIG    1       23.050 -26.371  13.637  0.00  0.00    -0.003 C 
ATOM      9  C   LIG    1       22.474 -26.433  15.079  0.00  0.00    +0.008 C 
ATOM     10  C   LIG    1       21.501 -27.600  15.499  0.00  0.00    +0.035 C 
ATOM     11  C   LIG    1       20.802 -28.417  14.427  0.00  0.00    -0.018 C 
ATOM     12  C   LIG    1       20.993 -27.953  12.998  0.00  0.00    -0.004 C 
ATOM     13  C   LIG    1       19.993 -26.780  12.804  0.00  0.00    +0.016 C 
ATOM     14  C   LIG    1       20.583 -29.105  12.005  0.00  0.00    +0.019 C 
ATOM     15  C   LIG    1       20.929 -30.511  12.522  0.00  0.00    +0.083 C 
ATOM     16  C   LIG    1       20.084 -30.694  13.737  0.00  0.00    +0.197 C 
ATOM     17  O   LIG    1       19.463 -31.696  13.976  0.00  0.00    -0.289 OA
ATOM     18  C   LIG    1       20.055 -29.511  14.690  0.00  0.00    +0.159 C 
ATOM     19  C   LIG    1       22.473 -27.513  12.728  0.00  0.00    +0.002 C 
ATOM     20  C   LIG    1       23.364 -28.764  12.753  0.00  0.00    +0.005 C 
ATOM     21  C   LIG    1       24.816 -28.556  12.472  0.00  0.00    +0.015 C 
ENDROOT
BRANCH  18  22
ATOM     22  O   LIG    1       18.836 -29.381  15.340  0.00  0.00    -0.503 OA
ATOM     23  H   LIG    1       19.020 -28.760  16.086  0.00  0.00    +0.292 HD
ENDBRANCH  18  22
TORSDOF 1
ENDMDL
MODEL 2
REMARK VINA RESULT:      -5.3      3.405      5.013
REMARK  Name = *****
REMARK                            x       y       z     vdW  Elec       q    Type
REMARK                         _______ _______ _______ _____ _____    ______ ____
ROOT
ATOM      1  C   LIG    1       26.756 -28.197  14.228  0.00  0.00    +0.019 C 
ATOM      2  C   LIG    1       26.168 -27.245  13.175  0.00  0.00    +0.029 C 
ATOM      3  C   LIG    1       26.354 -25.804  13.592  0.00  0.00    +0.140 C 
ATOM      4  O   LIG    1       27.269 -25.081  13.218  0.00  0.00    -0.297 OA
ATOM      5  C   LIG    1       25.226 -25.350  14.469  0.00  0.00    +0.075 C 
ATOM      6  C   LIG    1       24.249 -26.572  14.420  0.00  0.00    +0.012 C 
ATOM      7  C   LIG    1       24.631 -27.309  13.105  0.00  0.00    +0.006 C 
ATOM      8  C   LIG    1       24.069 -28.668  12.485  0.00  0.00    -0.003 C 
ATOM      9  C   LIG    1       23.936 -29.983  13.301  0.00  0.00    +0.008 C 
ATOM     10  C   LIG    1       24.551 -31.327  12.754  0.00  0.00    +0.035 C 
ATOM     11  C   LIG    1       24.904 -31.446  11.282  0.00  0.00    -0.018 C 
ATOM     12  C   LIG    1       24.506 -30.281  10.399  0.00  0.00    -0.004 C 
ATOM     13  C   LIG    1       22.997 -30.491  10.091  0.00  0.00    +0.016 C 
ATOM     14  C   LIG    1       25.291 -30.352   9.037  0.00  0.00    +0.019 C 
ATOM     15  C   LIG    1       26.725 -30.888   9.183  0.00  0.00    +0.083 C 
ATOM     16  C   LIG    1       26.566 -32.298   9.641  0.00  0.00    +0.197 C 
ATOM     17  O   LIG    1       27.185 -33.224   9.188  0.00  0.00    -0.289 OA
ATOM     18  C   LIG    1       25.550 -32.508  10.752  0.00  0.00    +0.159 C 
ATOM     19  C   LIG    1       24.775 -28.907  11.103  0.00  0.00    +0.002 C 
ATOM     20  C   LIG    1       26.294 -28.698  11.197  0.00  0.00    +0.005 C 
ATOM     21  C   LIG    1       26.756 -27.415  11.805  0.00  0.00    +0.015 C 
ENDROOT
BRANCH  18  22
ATOM     22  O   LIG    1       24.912 -33.737  10.665  0.00  0.00    -0.503 OA
ATOM     23  H   LIG    1       23.952 -33.512  10.603  0.00  0.00    +0.292 HD
ENDBRANCH  18  22
TORSDOF 1
ENDMDL
MODEL 3
REMARK VINA RESULT:      -5.3      3.141      5.996
REMARK  Name = *****
REMARK                            x       y       z     vdW  Elec       q    Type
REMARK                         _______ _______ _______ _____ _____    ______ ____
ROOT
ATOM      1  C   LIG    1       24.017 -29.708   8.992  0.00  0.00    +0.019 C 
ATOM      2  C   LIG    1       25.212 -30.503   9.537  0.00  0.00    +0.029 C 
ATOM      3  C   LIG    1       25.647 -31.561   8.549  0.00  0.00    +0.140 C 
ATOM      4  O   LIG    1       26.558 -31.431   7.741  0.00  0.00    -0.297 OA
ATOM      5  C   LIG    1       24.864 -32.825   8.738  0.00  0.00    +0.075 C 
ATOM      6  C   LIG    1       24.032 -32.516  10.027  0.00  0.00    +0.012 C 
ATOM      7  C   LIG    1       24.839 -31.393  10.737  0.00  0.00    +0.006 C 
ATOM      8  C   LIG    1       24.515 -30.577  12.070  0.00  0.00    -0.003 C 
ATOM      9  C   LIG    1       23.143 -29.899  12.339  0.00  0.00    +0.008 C 
ATOM     10  C   LIG    1       23.073 -28.381  12.757  0.00  0.00    +0.035 C 
ATOM     11  C   LIG    1       24.314 -27.692  13.295  0.00  0.00    -0.018 C 
ATOM     12  C   LIG    1       25.527 -28.571  13.519  0.00  0.00    -0.004 C 
ATOM     13  C   LIG    1       25.283 -29.274  14.883  0.00  0.00    +0.016 C 
ATOM     14  C   LIG    1       26.815 -27.677  13.659  0.00  0.00    +0.019 C 
ATOM     15  C   LIG    1       26.794 -26.428  12.763  0.00  0.00    +0.083 C 
ATOM     16  C   LIG    1       25.662 -25.604  13.274  0.00  0.00    +0.197 C 
ATOM     17  O   LIG    1       25.726 -24.417  13.456  0.00  0.00    -0.289 OA
ATOM     18  C   LIG    1       24.380 -26.368  13.556  0.00  0.00    +0.159 C 
ATOM     19  C   LIG    1       25.714 -29.603  12.354  0.00  0.00    +0.002 C 
ATOM     20  C   LIG    1       26.135 -28.838  11.090  0.00  0.00    +0.005 C 
ATOM     21  C   LIG    1       26.406 -29.657   9.871  0.00  0.00    +0.015 C 
ENDROOT
BRANCH  18  22
ATOM     22  O   LIG    1       23.663 -25.833  14.618  0.00  0.00    -0.503 OA
ATOM     23  H   LIG    1       24.152 -26.135  15.422  0.00  0.00    +0.292 HD
ENDBRANCH  18  22
TORSDOF 1
ENDMDL
MODEL 4
REMARK VINA RESULT:      -5.2      4.940      6.680
REMARK  Name = *****
REMARK                            x       y       z     vdW  Elec       q    Type
REMARK                         _______ _______ _______ _____ _____    ______ ____
ROOT
ATOM      1  C   LIG    1       24.560 -29.118  11.803  0.00  0.00    +0.019 C 
ATOM      2  C   LIG    1       25.783 -30.021  12.011  0.00  0.00    +0.029 C 
ATOM      3  C   LIG    1       26.432 -29.744  13.348  0.00  0.00    +0.140 C 
ATOM      4  O   LIG    1       26.228 -30.386  14.371  0.00  0.00    -0.297 OA
ATOM      5  C   LIG    1       27.420 -28.622  13.241  0.00  0.00    +0.075 C 
ATOM      6  C   LIG    1       27.449 -28.344  11.701  0.00  0.00    +0.012 C 
ATOM      7  C   LIG    1       26.950 -29.674  11.069  0.00  0.00    +0.006 C 
ATOM      8  C   LIG    1       26.679 -30.050   9.542  0.00  0.00    -0.003 C 
ATOM      9  C   LIG    1       25.839 -29.162   8.583  0.00  0.00    +0.008 C 
ATOM     10  C   LIG    1       24.651 -29.785   7.756  0.00  0.00    +0.035 C 
ATOM     11  C   LIG    1       24.576 -31.290   7.566  0.00  0.00    -0.018 C 
ATOM     12  C   LIG    1       25.750 -32.091   8.087  0.00  0.00    -0.004 C 
ATOM     13  C   LIG    1       26.850 -31.973   6.996  0.00  0.00    +0.016 C 
ATOM     14  C   LIG    1       25.348 -33.609   8.205  0.00  0.00    +0.019 C 
ATOM     15  C   LIG    1       23.886 -33.825   8.628  0.00  0.00    +0.083 C 
ATOM     16  C   LIG    1       23.074 -33.269   7.507  0.00  0.00    +0.197 C 
ATOM     17  O   LIG    1       22.118 -33.824   7.034  0.00  0.00    -0.289 OA
ATOM     18  C   LIG    1       23.531 -31.918   6.984  0.00  0.00    +0.159 C 
ATOM     19  C   LIG    1       26.242 -31.557   9.475  0.00  0.00    +0.002 C 
ATOM     20  C   LIG    1       25.172 -31.884  10.529  0.00  0.00    +0.005 C 
ATOM     21  C   LIG    1       25.477 -31.489  11.937  0.00  0.00    +0.015 C 
ENDROOT
BRANCH  18  22
ATOM     22  O   LIG    1       23.300 -31.768   5.624  0.00  0.00    -0.503 OA
ATOM     23  H   LIG    1       22.373 -31.428   5.568  0.00  0.00    +0.292 HD
ENDBRANCH  18  22
TORSDOF 1
ENDMDL
MODEL 5
REMARK VINA RESULT:      -5.2      1.864      6.584
REMARK  Name = *****
REMARK                            x       y       z     vdW  Elec       q    Type
REMARK                         _______ _______ _______ _____ _____    ______ ____
ROOT
ATOM      1  C   LIG    1       22.602 -29.744  14.468  0.00  0.00    +0.019 C 
ATOM      2  C   LIG    1       22.367 -28.903  13.204  0.00  0.00    +0.029 C 
ATOM      3  C   LIG    1       20.902 -28.894  12.832  0.00  0.00    +0.140 C 
ATOM      4  O   LIG    1       20.109 -28.012  13.135  0.00  0.00    -0.297 OA
ATOM      5  C   LIG    1       20.560 -30.074  11.973  0.00  0.00    +0.075 C 
ATOM      6  C   LIG    1       21.963 -30.717  11.710  0.00  0.00    +0.012 C 
ATOM      7  C   LIG    1       22.962 -29.548  11.939  0.00  0.00    +0.006 C 
ATOM      8  C   LIG    1       24.557 -29.534  11.897  0.00  0.00    -0.003 C 
ATOM      9  C   LIG    1       25.437 -30.567  12.655  0.00  0.00    +0.008 C 
ATOM     10  C   LIG    1       26.598 -30.082  13.604  0.00  0.00    +0.035 C 
ATOM     11  C   LIG    1       27.131 -28.666  13.474  0.00  0.00    -0.018 C 
ATOM     12  C   LIG    1       26.585 -27.845  12.324  0.00  0.00    -0.004 C 
ATOM     13  C   LIG    1       27.386 -28.299  11.072  0.00  0.00    +0.016 C 
ATOM     14  C   LIG    1       26.891 -26.320  12.566  0.00  0.00    +0.019 C 
ATOM     15  C   LIG    1       26.820 -25.908  14.045  0.00  0.00    +0.083 C 
ATOM     16  C   LIG    1       27.924 -26.660  14.709  0.00  0.00    +0.197 C 
ATOM     17  O   LIG    1       28.686 -26.172  15.500  0.00  0.00    -0.289 OA
ATOM     18  C   LIG    1       28.031 -28.126  14.324  0.00  0.00    +0.159 C 
ATOM     19  C   LIG    1       25.044 -28.061  12.144  0.00  0.00    +0.002 C 
ATOM     20  C   LIG    1       24.319 -27.416  13.335  0.00  0.00    +0.005 C 
ATOM     21  C   LIG    1       22.827 -27.480  13.325  0.00  0.00    +0.015 C 
ENDROOT
BRANCH  18  22
ATOM     22  O   LIG    1       29.341 -28.584  14.333  0.00  0.00    -0.503 OA
ATOM     23  H   LIG    1       29.679 -28.381  13.426  0.00  0.00    +0.292 HD
ENDBRANCH  18  22
TORSDOF 1
ENDMDL
MODEL 6
REMARK VINA RESULT:      -5.1      3.168      6.947
REMARK  Name = *****
REMARK                            x       y       z     vdW  Elec       q    Type
REMARK                         _______ _______ _______ _____ _____    ______ ____
ROOT
ATOM      1  C   LIG    1       21.343 -28.942  12.486  0.00  0.00    +0.019 C 
ATOM      2  C   LIG    1       21.126 -30.425  12.152  0.00  0.00    +0.029 C 
ATOM      3  C   LIG    1       19.863 -30.942  12.802  0.00  0.00    +0.140 C 
ATOM      4  O   LIG    1       18.775 -31.025  12.248  0.00  0.00    -0.297 OA
ATOM      5  C   LIG    1       20.134 -31.412  14.200  0.00  0.00    +0.075 C 
ATOM      6  C   LIG    1       21.693 -31.299  14.297  0.00  0.00    +0.012 C 
ATOM      7  C   LIG    1       22.167 -31.344  12.817  0.00  0.00    +0.006 C 
ATOM      8  C   LIG    1       23.633 -31.211  12.201  0.00  0.00    -0.003 C 
ATOM      9  C   LIG    1       24.617 -30.071  12.586  0.00  0.00    +0.008 C 
ATOM     10  C   LIG    1       25.308 -29.203  11.467  0.00  0.00    +0.035 C 
ATOM     11  C   LIG    1       25.352 -29.716  10.039  0.00  0.00    -0.018 C 
ATOM     12  C   LIG    1       24.832 -31.120   9.814  0.00  0.00    -0.004 C 
ATOM     13  C   LIG    1       25.995 -32.065  10.226  0.00  0.00    +0.016 C 
ATOM     14  C   LIG    1       24.549 -31.344   8.281  0.00  0.00    +0.019 C 
ATOM     15  C   LIG    1       24.020 -30.090   7.566  0.00  0.00    +0.083 C 
ATOM     16  C   LIG    1       25.135 -29.103   7.640  0.00  0.00    +0.197 C 
ATOM     17  O   LIG    1       25.496 -28.429   6.712  0.00  0.00    -0.289 OA
ATOM     18  C   LIG    1       25.809 -28.987   8.997  0.00  0.00    +0.159 C 
ATOM     19  C   LIG    1       23.532 -31.393  10.644  0.00  0.00    +0.002 C 
ATOM     20  C   LIG    1       22.389 -30.557  10.048  0.00  0.00    +0.005 C 
ATOM     21  C   LIG    1       21.046 -30.713  10.681  0.00  0.00    +0.015 C 
ENDROOT
BRANCH  18  22
ATOM     22  O   LIG    1       27.160 -28.687   8.897  0.00  0.00    -0.503 OA
ATOM     23  H   LIG    1       27.612 -29.564   8.965  0.00  0.00    +0.292 HD
ENDBRANCH  18  22
TORSDOF 1
ENDMDL
MODEL 7
REMARK VINA RESULT:      -5.1      4.324      6.936
REMARK  Name = *****
REMARK                            x       y       z     vdW  Elec       q    Type
REMARK                         _______ _______ _______ _____ _____    ______ ____
ROOT
ATOM      1  C   LIG    1       26.696 -31.731   8.350  0.00  0.00    +0.019 C 
ATOM      2  C   LIG    1       25.217 -31.642   8.750  0.00  0.00    +0.029 C 
ATOM      3  C   LIG    1       24.337 -32.265   7.690  0.00  0.00    +0.140 C 
ATOM      4  O   LIG    1       23.909 -33.412   7.722  0.00  0.00    -0.297 OA
ATOM      5  C   LIG    1       23.993 -31.268   6.626  0.00  0.00    +0.075 C 
ATOM      6  C   LIG    1       24.591 -29.941   7.202  0.00  0.00    +0.012 C 
ATOM      7  C   LIG    1       24.679 -30.200   8.732  0.00  0.00    +0.006 C 
ATOM      8  C   LIG    1       25.259 -29.281   9.901  0.00  0.00    -0.003 C 
ATOM      9  C   LIG    1       26.655 -28.601   9.834  0.00  0.00    +0.008 C 
ATOM     10  C   LIG    1       27.683 -28.773  11.016  0.00  0.00    +0.035 C 
ATOM     11  C   LIG    1       27.192 -29.238  12.376  0.00  0.00    -0.018 C 
ATOM     12  C   LIG    1       25.693 -29.379  12.537  0.00  0.00    -0.004 C 
ATOM     13  C   LIG    1       25.166 -27.941  12.800  0.00  0.00    +0.016 C 
ATOM     14  C   LIG    1       25.373 -30.250  13.809  0.00  0.00    +0.019 C 
ATOM     15  C   LIG    1       26.388 -31.380  14.049  0.00  0.00    +0.083 C 
ATOM     16  C   LIG    1       27.676 -30.687  14.337  0.00  0.00    +0.197 C 
ATOM     17  O   LIG    1       28.418 -30.996  15.231  0.00  0.00    -0.289 OA
ATOM     18  C   LIG    1       28.015 -29.535  13.406  0.00  0.00    +0.159 C 
ATOM     19  C   LIG    1       25.035 -30.021  11.267  0.00  0.00    +0.002 C 
ATOM     20  C   LIG    1       25.462 -31.495  11.191  0.00  0.00    +0.005 C 
ATOM     21  C   LIG    1       24.900 -32.297  10.063  0.00  0.00    +0.015 C 
ENDROOT
BRANCH  18  22
ATOM     22  O   LIG    1       28.723 -28.525  14.043  0.00  0.00    -0.503 OA
ATOM     23  H   LIG    1       28.356 -27.690  13.663  0.00  0.00    +0.292 HD
ENDBRANCH  18  22
TORSDOF 1
ENDMDL
MODEL 8
REMARK VINA RESULT:      -5.1      4.007      6.365
REMARK  Name = *****
REMARK                            x       y       z     vdW  Elec       q    Type
REMARK                         _______ _______ _______ _____ _____    ______ ____
ROOT
ATOM      1  C   LIG    1       24.074 -27.994  12.682  0.00  0.00    +0.019 C 
ATOM      2  C   LIG    1       24.395 -29.418  13.157  0.00  0.00    +0.029 C 
ATOM      3  C   LIG    1       24.138 -29.559  14.640  0.00  0.00    +0.140 C 
ATOM      4  O   LIG    1       23.111 -30.007  15.133  0.00  0.00    -0.297 OA
ATOM      5  C   LIG    1       25.341 -29.145  15.433  0.00  0.00    +0.075 C 
ATOM      6  C   LIG    1       26.412 -28.898  14.318  0.00  0.00    +0.012 C 
ATOM      7  C   LIG    1       25.900 -29.738  13.113  0.00  0.00    +0.006 C 
ATOM      8  C   LIG    1       26.486 -29.881  11.636  0.00  0.00    -0.003 C 
ATOM      9  C   LIG    1       26.873 -28.663  10.752  0.00  0.00    +0.008 C 
ATOM     10  C   LIG    1       26.311 -28.532   9.285  0.00  0.00    +0.035 C 
ATOM     11  C   LIG    1       25.745 -29.755   8.587  0.00  0.00    -0.018 C 
ATOM     12  C   LIG    1       25.885 -31.073   9.320  0.00  0.00    -0.004 C 
ATOM     13  C   LIG    1       27.339 -31.547   9.047  0.00  0.00    +0.016 C 
ATOM     14  C   LIG    1       24.906 -32.136   8.696  0.00  0.00    +0.019 C 
ATOM     15  C   LIG    1       23.571 -31.537   8.223  0.00  0.00    +0.083 C 
ATOM     16  C   LIG    1       23.936 -30.611   7.112  0.00  0.00    +0.197 C 
ATOM     17  O   LIG    1       23.345 -30.554   6.067  0.00  0.00    -0.289 OA
ATOM     18  C   LIG    1       25.129 -29.711   7.385  0.00  0.00    +0.159 C 
ATOM     19  C   LIG    1       25.599 -30.913  10.852  0.00  0.00    +0.002 C 
ATOM     20  C   LIG    1       24.100 -30.630  11.040  0.00  0.00    +0.005 C 
ATOM     21  C   LIG    1       23.618 -30.487  12.446  0.00  0.00    +0.015 C 
ENDROOT
BRANCH  18  22
ATOM     22  O   LIG    1       25.861 -29.435   6.238  0.00  0.00    -0.503 OA
ATOM     23  H   LIG    1       25.898 -28.448   6.202  0.00  0.00    +0.292 HD
ENDBRANCH  18  22
TORSDOF 1
ENDMDL
MODEL 9
REMARK VINA RESULT:      -5.0      5.777      7.494
REMARK  Name = *****
REMARK                            x       y       z     vdW  Elec       q    Type
REMARK                         _______ _______ _______ _____ _____    ______ ____
ROOT
ATOM      1  C   LIG    1       25.508 -32.136  11.286  0.00  0.00    +0.019 C 
ATOM      2  C   LIG    1       26.036 -30.737  10.935  0.00  0.00    +0.029 C 
ATOM      3  C   LIG    1       26.652 -30.077  12.147  0.00  0.00    +0.140 C 
ATOM      4  O   LIG    1       27.848 -30.073  12.410  0.00  0.00    -0.297 OA
ATOM      5  C   LIG    1       25.612 -29.359  12.953  0.00  0.00    +0.075 C 
ATOM      6  C   LIG    1       24.338 -29.489  12.052  0.00  0.00    +0.012 C 
ATOM      7  C   LIG    1       24.909 -29.734  10.627  0.00  0.00    +0.006 C 
ATOM      8  C   LIG    1       24.154 -30.017   9.249  0.00  0.00    -0.003 C 
ATOM      9  C   LIG    1       23.038 -31.087   9.096  0.00  0.00    +0.008 C 
ATOM     10  C   LIG    1       23.121 -32.166   7.950  0.00  0.00    +0.035 C 
ATOM     11  C   LIG    1       24.038 -31.932   6.763  0.00  0.00    -0.018 C 
ATOM     12  C   LIG    1       24.724 -30.583   6.700  0.00  0.00    -0.004 C 
ATOM     13  C   LIG    1       23.665 -29.606   6.119  0.00  0.00    +0.016 C 
ATOM     14  C   LIG    1       25.929 -30.645   5.688  0.00  0.00    +0.019 C 
ATOM     15  C   LIG    1       26.659 -31.998   5.688  0.00  0.00    +0.083 C 
ATOM     16  C   LIG    1       25.653 -32.980   5.191  0.00  0.00    +0.197 C 
ATOM     17  O   LIG    1       25.891 -33.825   4.369  0.00  0.00    -0.289 OA
ATOM     18  C   LIG    1       24.268 -32.855   5.803  0.00  0.00    +0.159 C 
ATOM     19  C   LIG    1       25.230 -30.128   8.111  0.00  0.00    +0.002 C 
ATOM     20  C   LIG    1       26.401 -31.033   8.523  0.00  0.00    +0.005 C 
ATOM     21  C   LIG    1       27.053 -30.729   9.832  0.00  0.00    +0.015 C 
ENDROOT
BRANCH  18  22
ATOM     22  O   LIG    1       23.260 -33.200   4.915  0.00  0.00    -0.503 OA
ATOM     23  H   LIG    1       23.604 -34.002   4.451  0.00  0.00    +0.292 HD
ENDBRANCH  18  22
TORSDOF 1
ENDMDL
