MODEL 1
REMARK VINA RESULT:      -7.5      0.000      0.000
REMARK  Name = *****
REMARK                            x       y       z     vdW  Elec       q    Type
REMARK                         _______ _______ _______ _____ _____    ______ ____
ROOT
ATOM      1  C   LIG    1       25.309 -21.755   6.364  0.00  0.00    +0.080 C 
ENDROOT
BRANCH   1   2
ATOM      2  C   LIG    1       26.751 -21.173   6.613  0.00  0.00    -0.030 A 
ATOM      3  C   LIG    1       27.650 -21.702   7.558  0.00  0.00    +0.005 A 
ATOM      4  C   LIG    1       28.932 -21.167   7.737  0.00  0.00    +0.000 A 
ATOM      5  C   LIG    1       29.369 -20.107   6.955  0.00  0.00    +0.000 A 
ATOM      6  C   LIG    1       28.515 -19.572   5.995  0.00  0.00    +0.000 A 
ATOM      7  C   LIG    1       27.222 -20.090   5.836  0.00  0.00    +0.005 A 
ENDBRANCH   1   2
BRANCH   1   8
ATOM      8  C   LIG    1       24.513 -20.807   5.385  0.00  0.00    -0.030 A 
ATOM      9  C   LIG    1       23.388 -20.095   5.848  0.00  0.00    +0.005 A 
ATOM     10  C   LIG    1       22.665 -19.248   4.995  0.00  0.00    +0.000 A 
ATOM     11  C   LIG    1       23.052 -19.081   3.670  0.00  0.00    +0.000 A 
ATOM     12  C   LIG    1       24.156 -19.766   3.187  0.00  0.00    +0.000 A 
ATOM     13  C   LIG    1       24.875 -20.618   4.031  0.00  0.00    +0.005 A 
ENDBRANCH   1   8
BRANCH   1  14
ATOM     14  C   LIG    1       24.438 -21.849   7.689  0.00  0.00    +0.148 C 
ATOM     15  O   LIG    1       24.902 -21.576   8.809  0.00  0.00    -0.296 OA
BRANCH  14  17
ATOM     16  C   LIG    1       22.654 -23.447   6.892  0.00  0.00    +0.012 C 
ATOM     17  C   LIG    1       22.947 -22.146   7.626  0.00  0.00    +0.072 C 
ENDBRANCH  14  17
ENDBRANCH   1  14
BRANCH   1  18
ATOM     18  C   LIG    1       25.502 -23.151   5.673  0.00  0.00    +0.039 C 
BRANCH  18  19
ATOM     19  C   LIG    1       25.934 -24.342   6.534  0.00  0.00    +0.085 C 
BRANCH  19  20
ATOM     20  N   LIG    1       26.080 -25.566   5.714  0.00  0.00    -0.308 NA
ATOM     21  C   LIG    1       25.043 -25.605   4.679  0.00  0.00    +0.104 C 
ATOM     22  C   LIG    1       26.009 -26.791   6.518  0.00  0.00    +0.104 C 
ENDBRANCH  19  20
ENDBRANCH  18  19
ENDBRANCH   1  18
TORSDOF 7
ENDMDL
MODEL 2
REMARK VINA RESULT:      -7.5      1.715      4.971
REMARK  Name = *****
REMARK                            x       y       z     vdW  Elec       q    Type
REMARK                         _______ _______ _______ _____ _____    ______ ____
ROOT
ATOM      1  C   LIG    1       25.050 -21.956   6.075  0.00  0.00    +0.080 C 
ENDROOT
BRANCH   1   2
ATOM      2  C   LIG    1       25.286 -23.510   5.975  0.00  0.00    -0.030 A 
ATOM      3  C   LIG    1       25.796 -24.287   7.032  0.00  0.00    +0.005 A 
ATOM      4  C   LIG    1       25.975 -25.671   6.910  0.00  0.00    +0.000 A 
ATOM      5  C   LIG    1       25.618 -26.328   5.741  0.00  0.00    +0.000 A 
ATOM      6  C   LIG    1       25.090 -25.595   4.683  0.00  0.00    +0.000 A 
ATOM      7  C   LIG    1       24.938 -24.205   4.795  0.00  0.00    +0.005 A 
ENDBRANCH   1   2
BRANCH   1   8
ATOM      8  C   LIG    1       26.406 -21.232   6.429  0.00  0.00    -0.030 A 
ATOM      9  C   LIG    1       26.962 -20.293   5.538  0.00  0.00    +0.005 A 
ATOM     10  C   LIG    1       28.166 -19.637   5.833  0.00  0.00    +0.000 A 
ATOM     11  C   LIG    1       28.837 -19.893   7.023  0.00  0.00    +0.000 A 
ATOM     12  C   LIG    1       28.314 -20.811   7.921  0.00  0.00    +0.000 A 
ATOM     13  C   LIG    1       27.117 -21.472   7.628  0.00  0.00    +0.005 A 
ENDBRANCH   1   8
BRANCH   1  14
ATOM     14  C   LIG    1       24.025 -21.553   7.220  0.00  0.00    +0.148 C 
ATOM     15  O   LIG    1       23.935 -20.391   7.650  0.00  0.00    -0.296 OA
BRANCH  14  17
ATOM     16  C   LIG    1       22.174 -23.162   6.626  0.00  0.00    +0.012 C 
ATOM     17  C   LIG    1       23.005 -22.552   7.745  0.00  0.00    +0.072 C 
ENDBRANCH  14  17
ENDBRANCH   1  14
BRANCH   1  18
ATOM     18  C   LIG    1       24.578 -21.483   4.655  0.00  0.00    +0.039 C 
BRANCH  18  19
ATOM     19  C   LIG    1       23.248 -20.732   4.535  0.00  0.00    +0.085 C 
BRANCH  19  20
ATOM     20  N   LIG    1       23.462 -19.268   4.524  0.00  0.00    -0.308 NA
ATOM     21  C   LIG    1       22.181 -18.574   4.366  0.00  0.00    +0.104 C 
ATOM     22  C   LIG    1       24.378 -18.842   3.460  0.00  0.00    +0.104 C 
ENDBRANCH  19  20
ENDBRANCH  18  19
ENDBRANCH   1  18
TORSDOF 7
ENDMDL
MODEL 3
REMARK VINA RESULT:      -7.3      1.352      1.872
REMARK  Name = *****
REMARK                            x       y       z     vdW  Elec       q    Type
REMARK                         _______ _______ _______ _____ _____    ______ ____
ROOT
ATOM      1  C   LIG    1       26.450 -21.390   6.766  0.00  0.00    +0.080 C 
ENDROOT
BRANCH   1   2
ATOM      2  C   LIG    1       27.866 -20.706   6.845  0.00  0.00    -0.030 A 
ATOM      3  C   LIG    1       28.230 -19.584   6.076  0.00  0.00    +0.005 A 
ATOM      4  C   LIG    1       29.495 -18.993   6.189  0.00  0.00    +0.000 A 
ATOM      5  C   LIG    1       30.423 -19.482   7.097  0.00  0.00    +0.000 A 
ATOM      6  C   LIG    1       30.090 -20.576   7.888  0.00  0.00    +0.000 A 
ATOM      7  C   LIG    1       28.834 -21.186   7.755  0.00  0.00    +0.005 A 
ENDBRANCH   1   2
BRANCH   1   8
ATOM      8  C   LIG    1       25.702 -20.920   5.458  0.00  0.00    -0.030 A 
ATOM      9  C   LIG    1       24.769 -21.770   4.832  0.00  0.00    +0.005 A 
ATOM     10  C   LIG    1       24.093 -21.373   3.669  0.00  0.00    +0.000 A 
ATOM     11  C   LIG    1       24.322 -20.121   3.111  0.00  0.00    +0.000 A 
ATOM     12  C   LIG    1       25.233 -19.262   3.706  0.00  0.00    +0.000 A 
ATOM     13  C   LIG    1       25.915 -19.656   4.861  0.00  0.00    +0.005 A 
ENDBRANCH   1   8
BRANCH   1  14
ATOM     14  C   LIG    1       25.500 -21.001   7.978  0.00  0.00    +0.148 C 
ATOM     15  O   LIG    1       25.911 -20.938   9.149  0.00  0.00    -0.296 OA
BRANCH  14  17
ATOM     16  C   LIG    1       23.097 -21.721   7.699  0.00  0.00    +0.012 C 
ATOM     17  C   LIG    1       24.067 -20.549   7.737  0.00  0.00    +0.072 C 
ENDBRANCH  14  17
ENDBRANCH   1  14
BRANCH   1  18
ATOM     18  C   LIG    1       26.704 -22.937   6.677  0.00  0.00    +0.039 C 
BRANCH  18  19
ATOM     19  C   LIG    1       25.693 -23.885   7.329  0.00  0.00    +0.085 C 
BRANCH  19  20
ATOM     20  N   LIG    1       25.324 -24.985   6.409  0.00  0.00    -0.308 NA
ATOM     21  C   LIG    1       23.866 -25.100   6.323  0.00  0.00    +0.104 C 
ATOM     22  C   LIG    1       25.888 -26.275   6.822  0.00  0.00    +0.104 C 
ENDBRANCH  19  20
ENDBRANCH  18  19
ENDBRANCH   1  18
TORSDOF 7
ENDMDL
MODEL 4
REMARK VINA RESULT:      -7.2      1.696      4.780
REMARK  Name = *****
REMARK                            x       y       z     vdW  Elec       q    Type
REMARK                         _______ _______ _______ _____ _____    ______ ____
ROOT
ATOM      1  C   LIG    1       25.617 -21.655   6.663  0.00  0.00    +0.080 C 
ENDROOT
BRANCH   1   2
ATOM      2  C   LIG    1       25.062 -20.704   5.538  0.00  0.00    -0.030 A 
ATOM      3  C   LIG    1       23.701 -20.370   5.405  0.00  0.00    +0.005 A 
ATOM      4  C   LIG    1       23.249 -19.505   4.400  0.00  0.00    +0.000 A 
ATOM      5  C   LIG    1       24.146 -18.920   3.517  0.00  0.00    +0.000 A 
ATOM      6  C   LIG    1       25.502 -19.210   3.633  0.00  0.00    +0.000 A 
ATOM      7  C   LIG    1       25.951 -20.098   4.621  0.00  0.00    +0.005 A 
ENDBRANCH   1   2
BRANCH   1   8
ATOM      8  C   LIG    1       25.505 -23.158   6.195  0.00  0.00    -0.030 A 
ATOM      9  C   LIG    1       25.988 -24.194   7.018  0.00  0.00    +0.005 A 
ATOM     10  C   LIG    1       25.899 -25.537   6.623  0.00  0.00    +0.000 A 
ATOM     11  C   LIG    1       25.318 -25.877   5.406  0.00  0.00    +0.000 A 
ATOM     12  C   LIG    1       24.832 -24.880   4.575  0.00  0.00    +0.000 A 
ATOM     13  C   LIG    1       24.926 -23.539   4.963  0.00  0.00    +0.005 A 
ENDBRANCH   1   8
BRANCH   1  14
ATOM     14  C   LIG    1       24.800 -21.556   8.022  0.00  0.00    +0.148 C 
ATOM     15  O   LIG    1       25.361 -21.486   9.129  0.00  0.00    -0.296 OA
BRANCH  14  17
ATOM     16  C   LIG    1       22.590 -22.630   7.444  0.00  0.00    +0.012 C 
ATOM     17  C   LIG    1       23.286 -21.403   8.016  0.00  0.00    +0.072 C 
ENDBRANCH  14  17
ENDBRANCH   1  14
BRANCH   1  18
ATOM     18  C   LIG    1       27.133 -21.293   6.848  0.00  0.00    +0.039 C 
BRANCH  18  19
ATOM     19  C   LIG    1       27.495 -20.007   7.597  0.00  0.00    +0.085 C 
BRANCH  19  20
ATOM     20  N   LIG    1       28.792 -20.145   8.298  0.00  0.00    -0.308 NA
ATOM     21  C   LIG    1       29.662 -19.011   7.971  0.00  0.00    +0.104 C 
ATOM     22  C   LIG    1       29.480 -21.396   7.963  0.00  0.00    +0.104 C 
ENDBRANCH  19  20
ENDBRANCH  18  19
ENDBRANCH   1  18
TORSDOF 7
ENDMDL
MODEL 5
REMARK VINA RESULT:      -6.8      1.719      5.125
REMARK  Name = *****
REMARK                            x       y       z     vdW  Elec       q    Type
REMARK                         _______ _______ _______ _____ _____    ______ ____
ROOT
ATOM      1  C   LIG    1       25.106 -21.170   6.278  0.00  0.00    +0.080 C 
ENDROOT
BRANCH   1   2
ATOM      2  C   LIG    1       24.220 -20.319   5.292  0.00  0.00    -0.030 A 
ATOM      3  C   LIG    1       22.884 -19.966   5.558  0.00  0.00    +0.005 A 
ATOM      4  C   LIG    1       22.135 -19.191   4.663  0.00  0.00    +0.000 A 
ATOM      5  C   LIG    1       22.707 -18.717   3.491  0.00  0.00    +0.000 A 
ATOM      6  C   LIG    1       24.032 -19.029   3.206  0.00  0.00    +0.000 A 
ATOM      7  C   LIG    1       24.773 -19.828   4.088  0.00  0.00    +0.005 A 
ENDBRANCH   1   2
BRANCH   1   8
ATOM      8  C   LIG    1       24.682 -22.689   6.199  0.00  0.00    -0.030 A 
ATOM      9  C   LIG    1       25.544 -23.635   5.609  0.00  0.00    +0.005 A 
ATOM     10  C   LIG    1       25.188 -24.989   5.529  0.00  0.00    +0.000 A 
ATOM     11  C   LIG    1       23.974 -25.432   6.043  0.00  0.00    +0.000 A 
ATOM     12  C   LIG    1       23.107 -24.525   6.631  0.00  0.00    +0.000 A 
ATOM     13  C   LIG    1       23.454 -23.173   6.707  0.00  0.00    +0.005 A 
ENDBRANCH   1   8
BRANCH   1  14
ATOM     14  C   LIG    1       24.932 -20.745   7.798  0.00  0.00    +0.148 C 
ATOM     15  O   LIG    1       23.861 -20.301   8.245  0.00  0.00    -0.296 OA
BRANCH  14  17
ATOM     16  C   LIG    1       26.340 -22.476   8.978  0.00  0.00    +0.012 C 
ATOM     17  C   LIG    1       26.039 -20.993   8.812  0.00  0.00    +0.072 C 
ENDBRANCH  14  17
ENDBRANCH   1  14
BRANCH   1  18
ATOM     18  C   LIG    1       26.588 -21.031   5.782  0.00  0.00    +0.039 C 
BRANCH  18  19
ATOM     19  C   LIG    1       27.415 -19.836   6.266  0.00  0.00    +0.085 C 
BRANCH  19  20
ATOM     20  N   LIG    1       28.866 -20.111   6.154  0.00  0.00    -0.308 NA
ATOM     21  C   LIG    1       29.307 -20.942   7.279  0.00  0.00    +0.104 C 
ATOM     22  C   LIG    1       29.668 -18.884   6.114  0.00  0.00    +0.104 C 
ENDBRANCH  19  20
ENDBRANCH  18  19
ENDBRANCH   1  18
TORSDOF 7
ENDMDL
MODEL 6
REMARK VINA RESULT:      -6.7      1.825      5.139
REMARK  Name = *****
REMARK                            x       y       z     vdW  Elec       q    Type
REMARK                         _______ _______ _______ _____ _____    ______ ____
ROOT
ATOM      1  C   LIG    1       25.093 -21.919   6.038  0.00  0.00    +0.080 C 
ENDROOT
BRANCH   1   2
ATOM      2  C   LIG    1       25.225 -23.485   5.946  0.00  0.00    -0.030 A 
ATOM      3  C   LIG    1       24.919 -24.223   4.787  0.00  0.00    +0.005 A 
ATOM      4  C   LIG    1       25.067 -25.615   4.739  0.00  0.00    +0.000 A 
ATOM      5  C   LIG    1       25.556 -26.310   5.837  0.00  0.00    +0.000 A 
ATOM      6  C   LIG    1       25.889 -25.611   6.992  0.00  0.00    +0.000 A 
ATOM      7  C   LIG    1       25.714 -24.220   7.049  0.00  0.00    +0.005 A 
ENDBRANCH   1   2
BRANCH   1   8
ATOM      8  C   LIG    1       26.525 -21.269   6.166  0.00  0.00    -0.030 A 
ATOM      9  C   LIG    1       27.499 -21.861   6.995  0.00  0.00    +0.005 A 
ATOM     10  C   LIG    1       28.779 -21.301   7.125  0.00  0.00    +0.000 A 
ATOM     11  C   LIG    1       29.120 -20.149   6.426  0.00  0.00    +0.000 A 
ATOM     12  C   LIG    1       28.184 -19.545   5.600  0.00  0.00    +0.000 A 
ATOM     13  C   LIG    1       26.904 -20.096   5.474  0.00  0.00    +0.005 A 
ENDBRANCH   1   8
BRANCH   1  14
ATOM     14  C   LIG    1       24.276 -21.435   7.312  0.00  0.00    +0.148 C 
ATOM     15  O   LIG    1       23.227 -21.992   7.677  0.00  0.00    -0.296 OA
BRANCH  14  17
ATOM     16  C   LIG    1       25.718 -20.918   9.318  0.00  0.00    +0.012 C 
ATOM     17  C   LIG    1       24.822 -20.349   8.227  0.00  0.00    +0.072 C 
ENDBRANCH  14  17
ENDBRANCH   1  14
BRANCH   1  18
ATOM     18  C   LIG    1       24.440 -21.444   4.692  0.00  0.00    +0.039 C 
BRANCH  18  19
ATOM     19  C   LIG    1       23.058 -20.783   4.739  0.00  0.00    +0.085 C 
BRANCH  19  20
ATOM     20  N   LIG    1       23.020 -19.568   3.895  0.00  0.00    -0.308 NA
ATOM     21  C   LIG    1       24.383 -19.142   3.565  0.00  0.00    +0.104 C 
ATOM     22  C   LIG    1       22.308 -18.459   4.539  0.00  0.00    +0.104 C 
ENDBRANCH  19  20
ENDBRANCH  18  19
ENDBRANCH   1  18
TORSDOF 7
ENDMDL
MODEL 7
REMARK VINA RESULT:      -5.9      1.898      4.865
REMARK  Name = *****
REMARK                            x       y       z     vdW  Elec       q    Type
REMARK                         _______ _______ _______ _____ _____    ______ ____
ROOT
ATOM      1  C   LIG    1       24.764 -22.925   6.473  0.00  0.00    +0.080 C 
ENDROOT
BRANCH   1   2
ATOM      2  C   LIG    1       24.925 -21.839   5.344  0.00  0.00    -0.030 A 
ATOM      3  C   LIG    1       24.083 -21.758   4.219  0.00  0.00    +0.005 A 
ATOM      4  C   LIG    1       24.247 -20.765   3.245  0.00  0.00    +0.000 A 
ATOM      5  C   LIG    1       25.237 -19.801   3.381  0.00  0.00    +0.000 A 
ATOM      6  C   LIG    1       26.074 -19.838   4.491  0.00  0.00    +0.000 A 
ATOM      7  C   LIG    1       25.927 -20.849   5.452  0.00  0.00    +0.005 A 
ENDBRANCH   1   2
BRANCH   1   8
ATOM      8  C   LIG    1       25.224 -24.332   5.929  0.00  0.00    -0.030 A 
ATOM      9  C   LIG    1       25.932 -25.218   6.765  0.00  0.00    +0.005 A 
ATOM     10  C   LIG    1       26.352 -26.474   6.303  0.00  0.00    +0.000 A 
ATOM     11  C   LIG    1       26.066 -26.880   5.004  0.00  0.00    +0.000 A 
ATOM     12  C   LIG    1       25.369 -26.031   4.158  0.00  0.00    +0.000 A 
ATOM     13  C   LIG    1       24.956 -24.775   4.613  0.00  0.00    +0.005 A 
ENDBRANCH   1   8
BRANCH   1  14
ATOM     14  C   LIG    1       23.260 -23.110   6.951  0.00  0.00    +0.148 C 
ATOM     15  O   LIG    1       22.640 -24.174   6.790  0.00  0.00    -0.296 OA
BRANCH  14  17
ATOM     16  C   LIG    1       23.136 -20.647   7.490  0.00  0.00    +0.012 C 
ATOM     17  C   LIG    1       22.556 -22.028   7.758  0.00  0.00    +0.072 C 
ENDBRANCH  14  17
ENDBRANCH   1  14
BRANCH   1  18
ATOM     18  C   LIG    1       25.717 -22.497   7.645  0.00  0.00    +0.039 C 
BRANCH  18  19
ATOM     19  C   LIG    1       27.207 -22.302   7.345  0.00  0.00    +0.085 C 
BRANCH  19  20
ATOM     20  N   LIG    1       27.810 -21.311   8.265  0.00  0.00    -0.308 NA
ATOM     21  C   LIG    1       26.795 -20.347   8.700  0.00  0.00    +0.104 C 
ATOM     22  C   LIG    1       28.932 -20.590   7.655  0.00  0.00    +0.104 C 
ENDBRANCH  19  20
ENDBRANCH  18  19
ENDBRANCH   1  18
TORSDOF 7
ENDMDL
MODEL 8
REMARK VINA RESULT:      -5.8      2.410      5.060
REMARK  Name = *****
REMARK                            x       y       z     vdW  Elec       q    Type
REMARK                         _______ _______ _______ _____ _____    ______ ____
ROOT
ATOM      1  C   LIG    1       24.674 -20.890   5.575  0.00  0.00    +0.080 C 
ENDROOT
BRANCH   1   2
ATOM      2  C   LIG    1       25.981 -20.510   6.366  0.00  0.00    -0.030 A 
ATOM      3  C   LIG    1       26.063 -20.500   7.771  0.00  0.00    +0.005 A 
ATOM      4  C   LIG    1       27.251 -20.174   8.438  0.00  0.00    +0.000 A 
ATOM      5  C   LIG    1       28.403 -19.880   7.723  0.00  0.00    +0.000 A 
ATOM      6  C   LIG    1       28.365 -19.901   6.332  0.00  0.00    +0.000 A 
ATOM      7  C   LIG    1       27.168 -20.200   5.665  0.00  0.00    +0.005 A 
ENDBRANCH   1   2
BRANCH   1   8
ATOM      8  C   LIG    1       24.313 -22.404   5.836  0.00  0.00    -0.030 A 
ATOM      9  C   LIG    1       25.158 -23.425   5.360  0.00  0.00    +0.005 A 
ATOM     10  C   LIG    1       24.857 -24.778   5.580  0.00  0.00    +0.000 A 
ATOM     11  C   LIG    1       23.716 -25.141   6.286  0.00  0.00    +0.000 A 
ATOM     12  C   LIG    1       22.866 -24.158   6.769  0.00  0.00    +0.000 A 
ATOM     13  C   LIG    1       23.159 -22.809   6.545  0.00  0.00    +0.005 A 
ENDBRANCH   1   8
BRANCH   1  14
ATOM     14  C   LIG    1       24.832 -20.741   4.002  0.00  0.00    +0.148 C 
ATOM     15  O   LIG    1       24.097 -21.345   3.202  0.00  0.00    -0.296 OA
BRANCH  14  17
ATOM     16  C   LIG    1       25.213 -18.339   3.327  0.00  0.00    +0.012 C 
ATOM     17  C   LIG    1       25.807 -19.738   3.404  0.00  0.00    +0.072 C 
ENDBRANCH  14  17
ENDBRANCH   1  14
BRANCH   1  18
ATOM     18  C   LIG    1       23.525 -19.988   6.150  0.00  0.00    +0.039 C 
BRANCH  18  19
ATOM     19  C   LIG    1       22.193 -19.927   5.395  0.00  0.00    +0.085 C 
BRANCH  19  20
ATOM     20  N   LIG    1       22.192 -18.828   4.403  0.00  0.00    -0.308 NA
ATOM     21  C   LIG    1       22.284 -17.535   5.087  0.00  0.00    +0.104 C 
ATOM     22  C   LIG    1       20.998 -18.843   3.551  0.00  0.00    +0.104 C 
ENDBRANCH  19  20
ENDBRANCH  18  19
ENDBRANCH   1  18
TORSDOF 7
ENDMDL
MODEL 9
REMARK VINA RESULT:      -5.7      5.846      9.688
REMARK  Name = *****
REMARK                            x       y       z     vdW  Elec       q    Type
REMARK                         _______ _______ _______ _____ _____    ______ ____
ROOT
ATOM      1  C   LIG    1       25.394 -30.202   8.050  0.00  0.00    +0.080 C 
ENDROOT
BRANCH   1   2
ATOM      2  C   LIG    1       25.248 -28.843   7.269  0.00  0.00    -0.030 A 
ATOM      3  C   LIG    1       24.303 -28.633   6.247  0.00  0.00    +0.005 A 
ATOM      4  C   LIG    1       24.192 -27.401   5.588  0.00  0.00    +0.000 A 
ATOM      5  C   LIG    1       24.998 -26.332   5.951  0.00  0.00    +0.000 A 
ATOM      6  C   LIG    1       25.929 -26.497   6.971  0.00  0.00    +0.000 A 
ATOM      7  C   LIG    1       26.059 -27.738   7.612  0.00  0.00    +0.005 A 
ENDBRANCH   1   2
BRANCH   1   8
ATOM      8  C   LIG    1       26.041 -31.291   7.109  0.00  0.00    -0.030 A 
ATOM      9  C   LIG    1       26.985 -32.201   7.624  0.00  0.00    +0.005 A 
ATOM     10  C   LIG    1       27.573 -33.178   6.806  0.00  0.00    +0.000 A 
ATOM     11  C   LIG    1       27.226 -33.276   5.464  0.00  0.00    +0.000 A 
ATOM     12  C   LIG    1       26.298 -32.396   4.929  0.00  0.00    +0.000 A 
ATOM     13  C   LIG    1       25.716 -31.417   5.739  0.00  0.00    +0.005 A 
ENDBRANCH   1   8
BRANCH   1  14
ATOM     14  C   LIG    1       24.002 -30.802   8.523  0.00  0.00    +0.148 C 
ATOM     15  O   LIG    1       23.140 -30.110   9.092  0.00  0.00    -0.296 OA
BRANCH  14  17
ATOM     16  C   LIG    1       23.741 -33.168   9.364  0.00  0.00    +0.012 C 
ATOM     17  C   LIG    1       23.604 -32.229   8.174  0.00  0.00    +0.072 C 
ENDBRANCH  14  17
ENDBRANCH   1  14
BRANCH   1  18
ATOM     18  C   LIG    1       26.367 -29.926   9.250  0.00  0.00    +0.039 C 
BRANCH  18  19
ATOM     19  C   LIG    1       25.995 -30.466  10.635  0.00  0.00    +0.085 C 
BRANCH  19  20
ATOM     20  N   LIG    1       26.099 -29.407  11.665  0.00  0.00    -0.308 NA
ATOM     21  C   LIG    1       24.761 -28.977  12.081  0.00  0.00    +0.104 C 
ATOM     22  C   LIG    1       26.858 -28.242  11.197  0.00  0.00    +0.104 C 
ENDBRANCH  19  20
ENDBRANCH  18  19
ENDBRANCH   1  18
TORSDOF 7
ENDMDL
