MODEL 1
REMARK VINA RESULT:      -7.7      0.000      0.000
REMARK  Name = *****
REMARK                            x       y       z     vdW  Elec       q    Type
REMARK                         _______ _______ _______ _____ _____    ______ ____
ROOT
ATOM      1  C   LIG    1       25.580 -21.306   6.658  0.00  0.00    +0.234 C 
ENDROOT
BRANCH   1   2
ATOM      2  C   LIG    1       25.072 -22.742   6.992  0.00  0.00    +0.177 C 
ATOM      3  O   LIG    1       25.965 -23.727   6.415  0.00  0.00    -0.370 OA
ATOM      4  C   LIG    1       25.541 -25.049   6.762  0.00  0.00    +0.175 C 
ATOM      5  C   LIG    1       24.158 -25.327   6.166  0.00  0.00    +0.109 C 
ATOM      6  N   LIG    1       23.159 -24.356   6.642  0.00  0.00    -0.311 NA
ATOM      7  H   LIG    1       22.289 -24.491   6.129  0.00  0.00    +0.122 HD
ATOM      8  C   LIG    1       23.650 -22.978   6.419  0.00  0.00    +0.116 C 
ENDBRANCH   1   2
BRANCH   1   9
ATOM      9  C   LIG    1       24.568 -20.583   5.769  0.00  0.00    -0.005 A 
ATOM     10  C   LIG    1       24.946 -20.206   4.467  0.00  0.00    +0.007 A 
ATOM     11  C   LIG    1       24.095 -19.447   3.664  0.00  0.00    +0.000 A 
ATOM     12  C   LIG    1       22.848 -19.063   4.147  0.00  0.00    +0.000 A 
ATOM     13  C   LIG    1       22.449 -19.445   5.428  0.00  0.00    +0.000 A 
ATOM     14  C   LIG    1       23.305 -20.199   6.237  0.00  0.00    +0.007 A 
ENDBRANCH   1   9
BRANCH   1  15
ATOM     15  O   LIG    1       26.866 -21.400   6.018  0.00  0.00    -0.478 OA
BRANCH  15  17
ATOM     16  C   LIG    1       28.550 -19.713   6.153  0.00  0.00    +0.162 A 
ATOM     17  C   LIG    1       27.964 -20.890   6.669  0.00  0.00    +0.163 A 
ATOM     18  C   LIG    1       28.567 -21.528   7.758  0.00  0.00    +0.049 A 
ATOM     19  C   LIG    1       29.707 -20.992   8.360  0.00  0.00    +0.004 A 
ATOM     20  C   LIG    1       30.287 -19.836   7.848  0.00  0.00    +0.004 A 
ATOM     21  C   LIG    1       29.723 -19.212   6.737  0.00  0.00    +0.049 A 
BRANCH  16  22
ATOM     22  O   LIG    1       27.932 -19.119   5.078  0.00  0.00    -0.489 OA
BRANCH  22  24
ATOM     23  C   LIG    1       27.318 -17.129   3.894  0.00  0.00    +0.048 C 
ATOM     24  C   LIG    1       28.378 -17.801   4.747  0.00  0.00    +0.226 C 
ENDBRANCH  22  24
ENDBRANCH  16  22
ENDBRANCH  15  17
ENDBRANCH   1  15
TORSDOF 6
ENDMDL
MODEL 2
REMARK VINA RESULT:      -7.7      2.000      5.333
REMARK  Name = *****
REMARK                            x       y       z     vdW  Elec       q    Type
REMARK                         _______ _______ _______ _____ _____    ______ ____
ROOT
ATOM      1  C   LIG    1       25.641 -21.501   6.343  0.00  0.00    +0.234 C 
ENDROOT
BRANCH   1   2
ATOM      2  C   LIG    1       27.155 -21.349   6.687  0.00  0.00    +0.177 C 
ATOM      3  O   LIG    1       27.320 -21.180   8.118  0.00  0.00    -0.370 OA
ATOM      4  C   LIG    1       28.709 -21.095   8.452  0.00  0.00    +0.175 C 
ATOM      5  C   LIG    1       29.327 -19.853   7.802  0.00  0.00    +0.109 C 
ATOM      6  N   LIG    1       29.182 -19.881   6.338  0.00  0.00    -0.311 NA
ATOM      7  H   LIG    1       29.486 -18.987   5.953  0.00  0.00    +0.122 HD
ATOM      8  C   LIG    1       27.765 -20.113   5.976  0.00  0.00    +0.116 C 
ENDBRANCH   1   2
BRANCH   1   9
ATOM      9  C   LIG    1       25.211 -22.960   6.494  0.00  0.00    -0.005 A 
ATOM     10  C   LIG    1       26.194 -23.967   6.503  0.00  0.00    +0.007 A 
ATOM     11  C   LIG    1       25.839 -25.316   6.525  0.00  0.00    +0.000 A 
ATOM     12  C   LIG    1       24.496 -25.678   6.550  0.00  0.00    +0.000 A 
ATOM     13  C   LIG    1       23.509 -24.692   6.563  0.00  0.00    +0.000 A 
ATOM     14  C   LIG    1       23.863 -23.341   6.532  0.00  0.00    +0.007 A 
ENDBRANCH   1   9
BRANCH   1  15
ATOM     15  O   LIG    1       25.414 -21.025   5.004  0.00  0.00    -0.478 OA
BRANCH  15  17
ATOM     16  C   LIG    1       24.439 -19.064   4.052  0.00  0.00    +0.162 A 
ATOM     17  C   LIG    1       24.286 -20.282   4.751  0.00  0.00    +0.163 A 
ATOM     18  C   LIG    1       23.019 -20.637   5.227  0.00  0.00    +0.049 A 
ATOM     19  C   LIG    1       21.908 -19.828   4.980  0.00  0.00    +0.004 A 
ATOM     20  C   LIG    1       22.061 -18.626   4.297  0.00  0.00    +0.004 A 
ATOM     21  C   LIG    1       23.323 -18.237   3.854  0.00  0.00    +0.049 A 
BRANCH  16  22
ATOM     22  O   LIG    1       25.700 -18.746   3.607  0.00  0.00    -0.489 OA
BRANCH  22  24
ATOM     23  C   LIG    1       27.195 -16.883   3.776  0.00  0.00    +0.048 C 
ATOM     24  C   LIG    1       25.894 -17.393   3.185  0.00  0.00    +0.226 C 
ENDBRANCH  22  24
ENDBRANCH  16  22
ENDBRANCH  15  17
ENDBRANCH   1  15
TORSDOF 6
ENDMDL
MODEL 3
REMARK VINA RESULT:      -7.5      2.077      5.446
REMARK  Name = *****
REMARK                            x       y       z     vdW  Elec       q    Type
REMARK                         _______ _______ _______ _____ _____    ______ ____
ROOT
ATOM      1  C   LIG    1       24.756 -23.167   6.268  0.00  0.00    +0.234 C 
ENDROOT
BRANCH   1   2
ATOM      2  C   LIG    1       25.533 -22.526   7.459  0.00  0.00    +0.177 C 
ATOM      3  O   LIG    1       24.875 -21.304   7.877  0.00  0.00    -0.370 OA
ATOM      4  C   LIG    1       25.548 -20.737   9.006  0.00  0.00    +0.175 C 
ATOM      5  C   LIG    1       26.975 -20.340   8.618  0.00  0.00    +0.109 C 
ATOM      6  N   LIG    1       27.742 -21.497   8.127  0.00  0.00    -0.311 NA
ATOM      7  H   LIG    1       28.637 -21.175   7.760  0.00  0.00    +0.122 HD
ATOM      8  C   LIG    1       26.990 -22.181   7.052  0.00  0.00    +0.116 C 
ENDBRANCH   1   2
BRANCH   1   9
ATOM      9  C   LIG    1       25.217 -24.608   6.051  0.00  0.00    -0.005 A 
ATOM     10  C   LIG    1       25.109 -25.176   4.768  0.00  0.00    +0.007 A 
ATOM     11  C   LIG    1       25.412 -26.521   4.552  0.00  0.00    +0.000 A 
ATOM     12  C   LIG    1       25.839 -27.313   5.612  0.00  0.00    +0.000 A 
ATOM     13  C   LIG    1       25.972 -26.760   6.886  0.00  0.00    +0.000 A 
ATOM     14  C   LIG    1       25.660 -25.416   7.106  0.00  0.00    +0.007 A 
ENDBRANCH   1   9
BRANCH   1  15
ATOM     15  O   LIG    1       24.964 -22.367   5.088  0.00  0.00    -0.478 OA
BRANCH  15  17
ATOM     16  C   LIG    1       24.666 -20.125   4.324  0.00  0.00    +0.162 A 
ATOM     17  C   LIG    1       24.114 -21.315   4.848  0.00  0.00    +0.163 A 
ATOM     18  C   LIG    1       22.754 -21.344   5.177  0.00  0.00    +0.049 A 
ATOM     19  C   LIG    1       21.939 -20.233   4.952  0.00  0.00    +0.004 A 
ATOM     20  C   LIG    1       22.484 -19.061   4.442  0.00  0.00    +0.004 A 
ATOM     21  C   LIG    1       23.846 -19.001   4.149  0.00  0.00    +0.049 A 
BRANCH  16  22
ATOM     22  O   LIG    1       26.007 -20.133   4.020  0.00  0.00    -0.489 OA
BRANCH  22  24
ATOM     23  C   LIG    1       27.979 -19.467   5.205  0.00  0.00    +0.048 C 
ATOM     24  C   LIG    1       26.754 -18.990   4.448  0.00  0.00    +0.226 C 
ENDBRANCH  22  24
ENDBRANCH  16  22
ENDBRANCH  15  17
ENDBRANCH   1  15
TORSDOF 6
ENDMDL
MODEL 4
REMARK VINA RESULT:      -7.3      1.992      5.493
REMARK  Name = *****
REMARK                            x       y       z     vdW  Elec       q    Type
REMARK                         _______ _______ _______ _____ _____    ______ ____
ROOT
ATOM      1  C   LIG    1       26.283 -21.401   6.049  0.00  0.00    +0.234 C 
ENDROOT
BRANCH   1   2
ATOM      2  C   LIG    1       27.377 -20.479   6.672  0.00  0.00    +0.177 C 
ATOM      3  O   LIG    1       28.243 -19.967   5.628  0.00  0.00    -0.370 OA
ATOM      4  C   LIG    1       29.217 -19.076   6.181  0.00  0.00    +0.175 C 
ATOM      5  C   LIG    1       30.124 -19.833   7.155  0.00  0.00    +0.109 C 
ATOM      6  N   LIG    1       29.352 -20.446   8.248  0.00  0.00    -0.311 NA
ATOM      7  H   LIG    1       29.966 -21.045   8.799  0.00  0.00    +0.122 HD
ATOM      8  C   LIG    1       28.248 -21.260   7.690  0.00  0.00    +0.116 C 
ENDBRANCH   1   2
BRANCH   1   9
ATOM      9  C   LIG    1       25.157 -20.555   5.455  0.00  0.00    -0.005 A 
ATOM     10  C   LIG    1       24.043 -20.239   6.253  0.00  0.00    +0.007 A 
ATOM     11  C   LIG    1       22.944 -19.566   5.718  0.00  0.00    +0.000 A 
ATOM     12  C   LIG    1       22.948 -19.190   4.379  0.00  0.00    +0.000 A 
ATOM     13  C   LIG    1       24.054 -19.477   3.578  0.00  0.00    +0.000 A 
ATOM     14  C   LIG    1       25.152 -20.158   4.111  0.00  0.00    +0.007 A 
ENDBRANCH   1   9
BRANCH   1  15
ATOM     15  O   LIG    1       25.787 -22.293   7.064  0.00  0.00    -0.478 OA
BRANCH  15  17
ATOM     16  C   LIG    1       24.109 -23.953   6.708  0.00  0.00    +0.162 A 
ATOM     17  C   LIG    1       25.472 -23.583   6.710  0.00  0.00    +0.163 A 
ATOM     18  C   LIG    1       26.440 -24.555   6.435  0.00  0.00    +0.049 A 
ATOM     19  C   LIG    1       26.070 -25.864   6.121  0.00  0.00    +0.004 A 
ATOM     20  C   LIG    1       24.729 -26.230   6.125  0.00  0.00    +0.004 A 
ATOM     21  C   LIG    1       23.755 -25.283   6.439  0.00  0.00    +0.049 A 
BRANCH  16  22
ATOM     22  O   LIG    1       23.188 -22.972   6.989  0.00  0.00    -0.489 OA
BRANCH  22  24
ATOM     23  C   LIG    1       21.449 -22.352   5.463  0.00  0.00    +0.048 C 
ATOM     24  C   LIG    1       21.835 -23.255   6.619  0.00  0.00    +0.226 C 
ENDBRANCH  22  24
ENDBRANCH  16  22
ENDBRANCH  15  17
ENDBRANCH   1  15
TORSDOF 6
ENDMDL
MODEL 5
REMARK VINA RESULT:      -6.9      1.827      4.528
REMARK  Name = *****
REMARK                            x       y       z     vdW  Elec       q    Type
REMARK                         _______ _______ _______ _____ _____    ______ ____
ROOT
ATOM      1  C   LIG    1       26.238 -21.733   5.867  0.00  0.00    +0.234 C 
ENDROOT
BRANCH   1   2
ATOM      2  C   LIG    1       25.074 -20.697   5.810  0.00  0.00    +0.177 C 
ATOM      3  O   LIG    1       23.878 -21.265   6.401  0.00  0.00    -0.370 OA
ATOM      4  C   LIG    1       22.818 -20.303   6.404  0.00  0.00    +0.175 C 
ATOM      5  C   LIG    1       22.447 -19.930   4.966  0.00  0.00    +0.109 C 
ATOM      6  N   LIG    1       23.600 -19.379   4.236  0.00  0.00    -0.311 NA
ATOM      7  H   LIG    1       23.352 -19.264   3.254  0.00  0.00    +0.122 HD
ATOM      8  C   LIG    1       24.753 -20.301   4.344  0.00  0.00    +0.116 C 
ENDBRANCH   1   2
BRANCH   1   9
ATOM      9  C   LIG    1       25.678 -23.144   6.047  0.00  0.00    -0.005 A 
ATOM     10  C   LIG    1       26.028 -23.879   7.195  0.00  0.00    +0.007 A 
ATOM     11  C   LIG    1       25.632 -25.208   7.344  0.00  0.00    +0.000 A 
ATOM     12  C   LIG    1       24.871 -25.819   6.353  0.00  0.00    +0.000 A 
ATOM     13  C   LIG    1       24.498 -25.098   5.218  0.00  0.00    +0.000 A 
ATOM     14  C   LIG    1       24.901 -23.769   5.063  0.00  0.00    +0.007 A 
ENDBRANCH   1   9
BRANCH   1  15
ATOM     15  O   LIG    1       27.126 -21.381   6.944  0.00  0.00    -0.478 OA
BRANCH  15  17
ATOM     16  C   LIG    1       29.297 -20.576   7.528  0.00  0.00    +0.162 A 
ATOM     17  C   LIG    1       28.165 -20.519   6.686  0.00  0.00    +0.163 A 
ATOM     18  C   LIG    1       28.112 -19.543   5.685  0.00  0.00    +0.049 A 
ATOM     19  C   LIG    1       29.177 -18.662   5.487  0.00  0.00    +0.004 A 
ATOM     20  C   LIG    1       30.288 -18.714   6.321  0.00  0.00    +0.004 A 
ATOM     21  C   LIG    1       30.338 -19.653   7.350  0.00  0.00    +0.049 A 
BRANCH  16  22
ATOM     22  O   LIG    1       29.309 -21.544   8.504  0.00  0.00    -0.489 OA
BRANCH  22  24
ATOM     23  C   LIG    1       31.500 -22.444   8.859  0.00  0.00    +0.048 C 
ATOM     24  C   LIG    1       30.425 -21.520   9.399  0.00  0.00    +0.226 C 
ENDBRANCH  22  24
ENDBRANCH  16  22
ENDBRANCH  15  17
ENDBRANCH   1  15
TORSDOF 6
ENDMDL
MODEL 6
REMARK VINA RESULT:      -6.6      6.606      9.871
REMARK  Name = *****
REMARK                            x       y       z     vdW  Elec       q    Type
REMARK                         _______ _______ _______ _____ _____    ______ ____
ROOT
ATOM      1  C   LIG    1       24.271 -29.423   7.230  0.00  0.00    +0.234 C 
ENDROOT
BRANCH   1   2
ATOM      2  C   LIG    1       24.149 -30.479   6.089  0.00  0.00    +0.177 C 
ATOM      3  O   LIG    1       23.565 -31.701   6.608  0.00  0.00    -0.370 OA
ATOM      4  C   LIG    1       23.397 -32.658   5.558  0.00  0.00    +0.175 C 
ATOM      5  C   LIG    1       24.761 -33.049   4.984  0.00  0.00    +0.109 C 
ATOM      6  N   LIG    1       25.482 -31.877   4.460  0.00  0.00    -0.311 NA
ATOM      7  H   LIG    1       26.431 -32.152   4.207  0.00  0.00    +0.122 HD
ATOM      8  C   LIG    1       25.540 -30.818   5.493  0.00  0.00    +0.116 C 
ENDBRANCH   1   2
BRANCH   1   9
ATOM      9  C   LIG    1       24.784 -28.098   6.668  0.00  0.00    -0.005 A 
ATOM     10  C   LIG    1       25.844 -27.441   7.321  0.00  0.00    +0.007 A 
ATOM     11  C   LIG    1       26.268 -26.178   6.909  0.00  0.00    +0.000 A 
ATOM     12  C   LIG    1       25.645 -25.556   5.831  0.00  0.00    +0.000 A 
ATOM     13  C   LIG    1       24.606 -26.202   5.160  0.00  0.00    +0.000 A 
ATOM     14  C   LIG    1       24.176 -27.464   5.577  0.00  0.00    +0.007 A 
ENDBRANCH   1   9
BRANCH   1  15
ATOM     15  O   LIG    1       25.148 -29.934   8.250  0.00  0.00    -0.478 OA
BRANCH  15  17
ATOM     16  C   LIG    1       25.536 -30.431  10.553  0.00  0.00    +0.162 A 
ATOM     17  C   LIG    1       24.630 -30.190   9.497  0.00  0.00    +0.163 A 
ATOM     18  C   LIG    1       23.257 -30.301   9.742  0.00  0.00    +0.049 A 
ATOM     19  C   LIG    1       22.779 -30.603  11.019  0.00  0.00    +0.004 A 
ATOM     20  C   LIG    1       23.672 -30.847  12.057  0.00  0.00    +0.004 A 
ATOM     21  C   LIG    1       25.044 -30.782  11.819  0.00  0.00    +0.049 A 
BRANCH  16  22
ATOM     22  O   LIG    1       26.877 -30.319  10.272  0.00  0.00    -0.489 OA
BRANCH  22  24
ATOM     23  C   LIG    1       26.983 -28.025  10.950  0.00  0.00    +0.048 C 
ATOM     24  C   LIG    1       27.614 -29.398  11.081  0.00  0.00    +0.226 C 
ENDBRANCH  22  24
ENDBRANCH  16  22
ENDBRANCH  15  17
ENDBRANCH   1  15
TORSDOF 6
ENDMDL
MODEL 7
REMARK VINA RESULT:      -6.5      1.740      6.239
REMARK  Name = *****
REMARK                            x       y       z     vdW  Elec       q    Type
REMARK                         _______ _______ _______ _____ _____    ______ ____
ROOT
ATOM      1  C   LIG    1       26.652 -20.767   6.336  0.00  0.00    +0.234 C 
ENDROOT
BRANCH   1   2
ATOM      2  C   LIG    1       26.213 -20.372   4.892  0.00  0.00    +0.177 C 
ATOM      3  O   LIG    1       26.155 -18.929   4.772  0.00  0.00    -0.370 OA
ATOM      4  C   LIG    1       25.808 -18.553   3.435  0.00  0.00    +0.175 C 
ATOM      5  C   LIG    1       24.406 -19.066   3.096  0.00  0.00    +0.109 C 
ATOM      6  N   LIG    1       24.319 -20.530   3.227  0.00  0.00    -0.311 NA
ATOM      7  H   LIG    1       23.348 -20.820   3.121  0.00  0.00    +0.122 HD
ATOM      8  C   LIG    1       24.811 -20.947   4.559  0.00  0.00    +0.116 C 
ENDBRANCH   1   2
BRANCH   1   9
ATOM      9  C   LIG    1       28.102 -20.350   6.579  0.00  0.00    -0.005 A 
ATOM     10  C   LIG    1       28.824 -20.958   7.622  0.00  0.00    +0.007 A 
ATOM     11  C   LIG    1       30.110 -20.528   7.950  0.00  0.00    +0.000 A 
ATOM     12  C   LIG    1       30.697 -19.491   7.232  0.00  0.00    +0.000 A 
ATOM     13  C   LIG    1       30.003 -18.891   6.181  0.00  0.00    +0.000 A 
ATOM     14  C   LIG    1       28.711 -19.315   5.857  0.00  0.00    +0.007 A 
ENDBRANCH   1   9
BRANCH   1  15
ATOM     15  O   LIG    1       26.480 -22.186   6.507  0.00  0.00    -0.478 OA
BRANCH  15  17
ATOM     16  C   LIG    1       24.942 -24.000   6.285  0.00  0.00    +0.162 A 
ATOM     17  C   LIG    1       25.211 -22.677   6.701  0.00  0.00    +0.163 A 
ATOM     18  C   LIG    1       24.165 -21.901   7.212  0.00  0.00    +0.049 A 
ATOM     19  C   LIG    1       22.881 -22.432   7.352  0.00  0.00    +0.004 A 
ATOM     20  C   LIG    1       22.616 -23.732   6.936  0.00  0.00    +0.004 A 
ATOM     21  C   LIG    1       23.637 -24.504   6.386  0.00  0.00    +0.049 A 
BRANCH  16  22
ATOM     22  O   LIG    1       25.994 -24.728   5.782  0.00  0.00    -0.489 OA
BRANCH  22  24
ATOM     23  C   LIG    1       26.110 -26.965   4.932  0.00  0.00    +0.048 C 
ATOM     24  C   LIG    1       26.053 -26.102   6.178  0.00  0.00    +0.226 C 
ENDBRANCH  22  24
ENDBRANCH  16  22
ENDBRANCH  15  17
ENDBRANCH   1  15
TORSDOF 6
ENDMDL
MODEL 8
REMARK VINA RESULT:      -6.5      2.237      5.772
REMARK  Name = *****
REMARK                            x       y       z     vdW  Elec       q    Type
REMARK                         _______ _______ _______ _____ _____    ______ ____
ROOT
ATOM      1  C   LIG    1       26.850 -21.363   6.284  0.00  0.00    +0.234 C 
ENDROOT
BRANCH   1   2
ATOM      2  C   LIG    1       27.896 -20.296   6.730  0.00  0.00    +0.177 C 
ATOM      3  O   LIG    1       28.778 -19.978   5.624  0.00  0.00    -0.370 OA
ATOM      4  C   LIG    1       29.707 -18.958   6.005  0.00  0.00    +0.175 C 
ATOM      5  C   LIG    1       30.607 -19.467   7.135  0.00  0.00    +0.109 C 
ATOM      6  N   LIG    1       29.820 -19.870   8.312  0.00  0.00    -0.311 NA
ATOM      7  H   LIG    1       30.435 -20.320   8.989  0.00  0.00    +0.122 HD
ATOM      8  C   LIG    1       28.759 -20.820   7.908  0.00  0.00    +0.116 C 
ENDBRANCH   1   2
BRANCH   1   9
ATOM      9  C   LIG    1       25.884 -20.761   5.264  0.00  0.00    -0.005 A 
ATOM     10  C   LIG    1       24.941 -21.596   4.637  0.00  0.00    +0.007 A 
ATOM     11  C   LIG    1       24.118 -21.112   3.620  0.00  0.00    +0.000 A 
ATOM     12  C   LIG    1       24.219 -19.782   3.222  0.00  0.00    +0.000 A 
ATOM     13  C   LIG    1       25.135 -18.936   3.847  0.00  0.00    +0.000 A 
ATOM     14  C   LIG    1       25.965 -19.422   4.860  0.00  0.00    +0.007 A 
ENDBRANCH   1   9
BRANCH   1  15
ATOM     15  O   LIG    1       26.150 -21.848   7.445  0.00  0.00    -0.478 OA
BRANCH  15  17
ATOM     16  C   LIG    1       24.856 -23.770   6.868  0.00  0.00    +0.162 A 
ATOM     17  C   LIG    1       24.911 -22.419   7.276  0.00  0.00    +0.163 A 
ATOM     18  C   LIG    1       23.718 -21.700   7.411  0.00  0.00    +0.049 A 
ATOM     19  C   LIG    1       22.484 -22.315   7.188  0.00  0.00    +0.004 A 
ATOM     20  C   LIG    1       22.430 -23.643   6.780  0.00  0.00    +0.004 A 
ATOM     21  C   LIG    1       23.612 -24.360   6.600  0.00  0.00    +0.049 A 
BRANCH  16  22
ATOM     22  O   LIG    1       26.050 -24.440   6.741  0.00  0.00    -0.489 OA
BRANCH  22  24
ATOM     23  C   LIG    1       26.374 -26.476   5.524  0.00  0.00    +0.048 C 
ATOM     24  C   LIG    1       25.985 -25.864   6.856  0.00  0.00    +0.226 C 
ENDBRANCH  22  24
ENDBRANCH  16  22
ENDBRANCH  15  17
ENDBRANCH   1  15
TORSDOF 6
ENDMDL
MODEL 9
REMARK VINA RESULT:      -6.4      2.718      5.524
REMARK  Name = *****
REMARK                            x       y       z     vdW  Elec       q    Type
REMARK                         _______ _______ _______ _____ _____    ______ ____
ROOT
ATOM      1  C   LIG    1       27.509 -19.821   6.346  0.00  0.00    +0.234 C 
ENDROOT
BRANCH   1   2
ATOM      2  C   LIG    1       29.034 -20.001   6.622  0.00  0.00    +0.177 C 
ATOM      3  O   LIG    1       29.257 -20.204   8.040  0.00  0.00    -0.370 OA
ATOM      4  C   LIG    1       30.647 -20.426   8.299  0.00  0.00    +0.175 C 
ATOM      5  C   LIG    1       31.454 -19.183   7.915  0.00  0.00    +0.109 C 
ATOM      6  N   LIG    1       31.275 -18.840   6.495  0.00  0.00    -0.311 NA
ATOM      7  H   LIG    1       31.719 -17.941   6.307  0.00  0.00    +0.122 HD
ATOM      8  C   LIG    1       29.832 -18.747   6.178  0.00  0.00    +0.116 C 
ENDBRANCH   1   2
BRANCH   1   9
ATOM      9  C   LIG    1       26.705 -20.854   7.135  0.00  0.00    -0.005 A 
ATOM     10  C   LIG    1       26.897 -22.222   6.867  0.00  0.00    +0.007 A 
ATOM     11  C   LIG    1       26.105 -23.191   7.482  0.00  0.00    +0.000 A 
ATOM     12  C   LIG    1       25.117 -22.808   8.384  0.00  0.00    +0.000 A 
ATOM     13  C   LIG    1       24.928 -21.457   8.677  0.00  0.00    +0.000 A 
ATOM     14  C   LIG    1       25.715 -20.484   8.055  0.00  0.00    +0.007 A 
ENDBRANCH   1   9
BRANCH   1  15
ATOM     15  O   LIG    1       27.271 -19.942   4.931  0.00  0.00    -0.478 OA
BRANCH  15  17
ATOM     16  C   LIG    1       25.638 -18.590   3.833  0.00  0.00    +0.162 A 
ATOM     17  C   LIG    1       25.986 -19.804   4.465  0.00  0.00    +0.163 A 
ATOM     18  C   LIG    1       24.997 -20.774   4.664  0.00  0.00    +0.049 A 
ATOM     19  C   LIG    1       23.693 -20.570   4.208  0.00  0.00    +0.004 A 
ATOM     20  C   LIG    1       23.350 -19.372   3.592  0.00  0.00    +0.004 A 
ATOM     21  C   LIG    1       24.313 -18.379   3.425  0.00  0.00    +0.049 A 
BRANCH  16  22
ATOM     22  O   LIG    1       26.636 -17.659   3.663  0.00  0.00    -0.489 OA
BRANCH  22  24
ATOM     23  C   LIG    1       27.247 -15.346   3.764  0.00  0.00    +0.048 C 
ATOM     24  C   LIG    1       26.211 -16.346   3.287  0.00  0.00    +0.226 C 
ENDBRANCH  22  24
ENDBRANCH  16  22
ENDBRANCH  15  17
ENDBRANCH   1  15
TORSDOF 6
ENDMDL
