MODEL 1
REMARK VINA RESULT:      -5.0      0.000      0.000
REMARK  Name = *****
REMARK                            x       y       z     vdW  Elec       q    Type
REMARK                         _______ _______ _______ _____ _____    ______ ____
ROOT
ATOM      1  C   LIG    1       24.259 -20.370   4.523  0.00  0.00    +0.146 C 
ENDROOT
BRANCH   1   2
ATOM      2  C   LIG    1       25.722 -20.064   4.744  0.00  0.00    +0.032 C 
ATOM      3  C   LIG    1       26.458 -20.437   5.797  0.00  0.00    +0.079 C 
ATOM      4 CL   LIG    1       28.118 -20.039   5.950  0.00  0.00    -0.092 Cl
ENDBRANCH   1   2
BRANCH   1   6
ATOM      5  C   LIG    1       23.148 -20.835   6.912  0.00  0.00    +0.007 C 
ATOM      6  C   LIG    1       23.636 -20.614   5.837  0.00  0.00    -0.067 C 
ENDBRANCH   1   6
BRANCH   1   7
ATOM      7  O   LIG    1       24.132 -21.552   3.737  0.00  0.00    -0.373 OA
ATOM      8  H   LIG    1       24.002 -21.269   2.818  0.00  0.00    +0.212 HD
ENDBRANCH   1   7
BRANCH   1   9
ATOM      9  C   LIG    1       23.573 -19.194   3.793  0.00  0.00    +0.049 C 
ATOM     10  C   LIG    1       22.347 -18.641   4.519  0.00  0.00    +0.008 C 
ENDBRANCH   1   9
TORSDOF 4
ENDMDL
MODEL 2
REMARK VINA RESULT:      -4.9      6.566      7.649
REMARK  Name = *****
REMARK                            x       y       z     vdW  Elec       q    Type
REMARK                         _______ _______ _______ _____ _____    ______ ____
ROOT
ATOM      1  C   LIG    1       25.943 -13.828   3.048  0.00  0.00    +0.146 C 
ENDROOT
BRANCH   1   2
ATOM      2  C   LIG    1       24.955 -14.809   3.634  0.00  0.00    +0.032 C 
ATOM      3  C   LIG    1       23.755 -14.515   4.146  0.00  0.00    +0.079 C 
ATOM      4 CL   LIG    1       22.706 -15.709   4.786  0.00  0.00    -0.092 Cl
ENDBRANCH   1   2
BRANCH   1   6
ATOM      5  C   LIG    1       24.551 -11.803   1.988  0.00  0.00    +0.007 C 
ATOM      6  C   LIG    1       25.185 -12.700   2.472  0.00  0.00    -0.067 C 
ENDBRANCH   1   6
BRANCH   1   7
ATOM      7  O   LIG    1       26.678 -14.457   2.002  0.00  0.00    -0.373 OA
ATOM      8  H   LIG    1       27.024 -13.750   1.434  0.00  0.00    +0.212 HD
ENDBRANCH   1   7
BRANCH   1   9
ATOM      9  C   LIG    1       26.920 -13.339   4.138  0.00  0.00    +0.049 C 
ATOM     10  C   LIG    1       28.386 -13.340   3.706  0.00  0.00    +0.008 C 
ENDBRANCH   1   9
TORSDOF 4
ENDMDL
MODEL 3
REMARK VINA RESULT:      -4.7      5.938      6.819
REMARK  Name = *****
REMARK                            x       y       z     vdW  Elec       q    Type
REMARK                         _______ _______ _______ _____ _____    ______ ____
ROOT
ATOM      1  C   LIG    1       26.238 -14.281   3.177  0.00  0.00    +0.146 C 
ENDROOT
BRANCH   1   2
ATOM      2  C   LIG    1       25.652 -15.666   3.320  0.00  0.00    +0.032 C 
ATOM      3  C   LIG    1       26.332 -16.818   3.306  0.00  0.00    +0.079 C 
ATOM      4 CL   LIG    1       25.568 -18.342   3.481  0.00  0.00    -0.092 Cl
ENDBRANCH   1   2
BRANCH   1   6
ATOM      5  C   LIG    1       24.219 -12.529   3.309  0.00  0.00    +0.007 C 
ATOM      6  C   LIG    1       25.136 -13.303   3.255  0.00  0.00    -0.067 C 
ENDBRANCH   1   6
BRANCH   1   7
ATOM      7  O   LIG    1       26.860 -14.155   1.901  0.00  0.00    -0.373 OA
ATOM      8  H   LIG    1       26.555 -14.902   1.362  0.00  0.00    +0.212 HD
ENDBRANCH   1   7
BRANCH   1   9
ATOM      9  C   LIG    1       27.284 -14.026   4.284  0.00  0.00    +0.049 C 
ATOM     10  C   LIG    1       28.470 -13.173   3.836  0.00  0.00    +0.008 C 
ENDBRANCH   1   9
TORSDOF 4
ENDMDL
MODEL 4
REMARK VINA RESULT:      -4.5      2.807      3.948
REMARK  Name = *****
REMARK                            x       y       z     vdW  Elec       q    Type
REMARK                         _______ _______ _______ _____ _____    ______ ____
ROOT
ATOM      1  C   LIG    1       22.728 -20.805   5.241  0.00  0.00    +0.146 C 
ENDROOT
BRANCH   1   2
ATOM      2  C   LIG    1       22.441 -19.334   5.425  0.00  0.00    +0.032 C 
ATOM      3  C   LIG    1       22.424 -18.404   4.464  0.00  0.00    +0.079 C 
ATOM      4 CL   LIG    1       22.083 -16.755   4.780  0.00  0.00    -0.092 Cl
ENDBRANCH   1   2
BRANCH   1   6
ATOM      5  C   LIG    1       24.601 -21.045   3.344  0.00  0.00    +0.007 C 
ATOM      6  C   LIG    1       23.750 -20.947   4.186  0.00  0.00    -0.067 C 
ENDBRANCH   1   6
BRANCH   1   7
ATOM      7  O   LIG    1       21.544 -21.473   4.812  0.00  0.00    -0.373 OA
ATOM      8  H   LIG    1       21.644 -22.408   5.051  0.00  0.00    +0.212 HD
ENDBRANCH   1   7
BRANCH   1   9
ATOM      9  C   LIG    1       23.213 -21.425   6.569  0.00  0.00    +0.049 C 
ATOM     10  C   LIG    1       24.550 -20.874   7.062  0.00  0.00    +0.008 C 
ENDBRANCH   1   9
TORSDOF 4
ENDMDL
MODEL 5
REMARK VINA RESULT:      -4.4      6.169      6.691
REMARK  Name = *****
REMARK                            x       y       z     vdW  Elec       q    Type
REMARK                         _______ _______ _______ _____ _____    ______ ____
ROOT
ATOM      1  C   LIG    1       25.929 -14.513   3.218  0.00  0.00    +0.146 C 
ENDROOT
BRANCH   1   2
ATOM      2  C   LIG    1       26.923 -13.820   4.121  0.00  0.00    +0.032 C 
ATOM      3  C   LIG    1       27.904 -12.998   3.734  0.00  0.00    +0.079 C 
ATOM      4 CL   LIG    1       28.980 -12.258   4.844  0.00  0.00    -0.092 Cl
ENDBRANCH   1   2
BRANCH   1   6
ATOM      5  C   LIG    1       26.289 -17.158   3.404  0.00  0.00    +0.007 C 
ATOM      6  C   LIG    1       26.142 -15.968   3.329  0.00  0.00    -0.067 C 
ENDBRANCH   1   6
BRANCH   1   7
ATOM      7  O   LIG    1       26.162 -14.126   1.866  0.00  0.00    -0.373 OA
ATOM      8  H   LIG    1       25.367 -14.364   1.363  0.00  0.00    +0.212 HD
ENDBRANCH   1   7
BRANCH   1   9
ATOM      9  C   LIG    1       24.488 -14.131   3.619  0.00  0.00    +0.049 C 
ATOM     10  C   LIG    1       24.103 -12.694   3.268  0.00  0.00    +0.008 C 
ENDBRANCH   1   9
TORSDOF 4
ENDMDL
MODEL 6
REMARK VINA RESULT:      -4.3      6.609      7.520
REMARK  Name = *****
REMARK                            x       y       z     vdW  Elec       q    Type
REMARK                         _______ _______ _______ _____ _____    ______ ____
ROOT
ATOM      1  C   LIG    1       26.812 -14.467   3.236  0.00  0.00    +0.146 C 
ENDROOT
BRANCH   1   2
ATOM      2  C   LIG    1       25.589 -13.938   3.947  0.00  0.00    +0.032 C 
ATOM      3  C   LIG    1       25.100 -12.696   3.861  0.00  0.00    +0.079 C 
ATOM      4 CL   LIG    1       23.698 -12.195   4.710  0.00  0.00    -0.092 Cl
ENDBRANCH   1   2
BRANCH   1   6
ATOM      5  C   LIG    1       28.902 -12.914   3.852  0.00  0.00    +0.007 C 
ATOM      6  C   LIG    1       27.955 -13.597   3.573  0.00  0.00    -0.067 C 
ENDBRANCH   1   6
BRANCH   1   7
ATOM      7  O   LIG    1       26.606 -14.413   1.827  0.00  0.00    -0.373 OA
ATOM      8  H   LIG    1       25.830 -13.851   1.675  0.00  0.00    +0.212 HD
ENDBRANCH   1   7
BRANCH   1   9
ATOM      9  C   LIG    1       27.084 -15.928   3.658  0.00  0.00    +0.049 C 
ATOM     10  C   LIG    1       25.970 -16.903   3.280  0.00  0.00    +0.008 C 
ENDBRANCH   1   9
TORSDOF 4
ENDMDL
MODEL 7
REMARK VINA RESULT:      -4.3      1.207      1.930
REMARK  Name = *****
REMARK                            x       y       z     vdW  Elec       q    Type
REMARK                         _______ _______ _______ _____ _____    ______ ____
ROOT
ATOM      1  C   LIG    1       24.269 -20.288   4.134  0.00  0.00    +0.146 C 
ENDROOT
BRANCH   1   2
ATOM      2  C   LIG    1       25.042 -20.440   5.422  0.00  0.00    +0.032 C 
ATOM      3  C   LIG    1       26.373 -20.482   5.546  0.00  0.00    +0.079 C 
ATOM      4 CL   LIG    1       27.154 -20.655   7.062  0.00  0.00    -0.092 Cl
ENDBRANCH   1   2
BRANCH   1   6
ATOM      5  C   LIG    1       22.135 -18.746   4.613  0.00  0.00    +0.007 C 
ATOM      6  C   LIG    1       23.084 -19.452   4.403  0.00  0.00    -0.067 C 
ENDBRANCH   1   6
BRANCH   1   7
ATOM      7  O   LIG    1       23.825 -21.567   3.689  0.00  0.00    -0.373 OA
ATOM      8  H   LIG    1       24.560 -21.966   3.195  0.00  0.00    +0.212 HD
ENDBRANCH   1   7
BRANCH   1   9
ATOM      9  C   LIG    1       25.162 -19.650   3.048  0.00  0.00    +0.049 C 
ATOM     10  C   LIG    1       25.565 -18.206   3.342  0.00  0.00    +0.008 C 
ENDBRANCH   1   9
TORSDOF 4
ENDMDL
MODEL 8
REMARK VINA RESULT:      -4.3      6.410      7.143
REMARK  Name = *****
REMARK                            x       y       z     vdW  Elec       q    Type
REMARK                         _______ _______ _______ _____ _____    ______ ____
ROOT
ATOM      1  C   LIG    1       25.831 -13.553   3.604  0.00  0.00    +0.146 C 
ENDROOT
BRANCH   1   2
ATOM      2  C   LIG    1       25.518 -15.031   3.563  0.00  0.00    +0.032 C 
ATOM      3  C   LIG    1       26.387 -16.017   3.317  0.00  0.00    +0.079 C 
ATOM      4 CL   LIG    1       25.928 -17.668   3.298  0.00  0.00    -0.092 Cl
ENDBRANCH   1   2
BRANCH   1   6
ATOM      5  C   LIG    1       28.484 -13.245   3.763  0.00  0.00    +0.007 C 
ATOM      6  C   LIG    1       27.295 -13.394   3.679  0.00  0.00    -0.067 C 
ENDBRANCH   1   6
BRANCH   1   7
ATOM      7  O   LIG    1       25.255 -12.975   4.772  0.00  0.00    -0.373 OA
ATOM      8  H   LIG    1       24.356 -13.333   4.852  0.00  0.00    +0.212 HD
ENDBRANCH   1   7
BRANCH   1   9
ATOM      9  C   LIG    1       25.261 -12.853   2.351  0.00  0.00    +0.049 C 
ATOM     10  C   LIG    1       24.117 -11.883   2.646  0.00  0.00    +0.008 C 
ENDBRANCH   1   9
TORSDOF 4
ENDMDL
MODEL 9
REMARK VINA RESULT:      -4.3      2.416      3.550
REMARK  Name = *****
REMARK                            x       y       z     vdW  Elec       q    Type
REMARK                         _______ _______ _______ _____ _____    ______ ____
ROOT
ATOM      1  C   LIG    1       23.824 -20.751   4.641  0.00  0.00    +0.146 C 
ENDROOT
BRANCH   1   2
ATOM      2  C   LIG    1       23.447 -19.311   4.382  0.00  0.00    +0.032 C 
ATOM      3  C   LIG    1       22.329 -18.700   4.791  0.00  0.00    +0.079 C 
ATOM      4 CL   LIG    1       21.997 -17.055   4.445  0.00  0.00    -0.092 Cl
ENDBRANCH   1   2
BRANCH   1   6
ATOM      5  C   LIG    1       26.275 -20.762   5.715  0.00  0.00    +0.007 C 
ATOM      6  C   LIG    1       25.176 -20.774   5.231  0.00  0.00    -0.067 C 
ENDBRANCH   1   6
BRANCH   1   7
ATOM      7  O   LIG    1       23.859 -21.464   3.408  0.00  0.00    -0.373 OA
ATOM      8  H   LIG    1       24.512 -22.175   3.511  0.00  0.00    +0.212 HD
ENDBRANCH   1   7
BRANCH   1   9
ATOM      9  C   LIG    1       22.796 -21.410   5.585  0.00  0.00    +0.049 C 
ATOM     10  C   LIG    1       23.188 -21.364   7.062  0.00  0.00    +0.008 C 
ENDBRANCH   1   9
TORSDOF 4
ENDMDL
