MODEL 1
REMARK VINA RESULT:      -4.3      0.000      0.000
REMARK  Name = *****
REMARK                            x       y       z     vdW  Elec       q    Type
REMARK                         _______ _______ _______ _____ _____    ______ ____
ROOT
ATOM      1  N   LIG    1       25.679 -16.729   2.933  0.00  0.00    -0.302 NA
ATOM      2  H   LIG    1       24.724 -16.972   3.212  0.00  0.00    +0.123 HD
ENDROOT
BRANCH   1   3
ATOM      3  C   LIG    1       25.975 -15.351   3.382  0.00  0.00    +0.023 C 
ATOM      4  C   LIG    1       26.410 -14.518   2.139  0.00  0.00    +0.026 C 
ATOM      5  C   LIG    1       26.761 -13.069   2.541  0.00  0.00    -0.006 C 
ATOM      6  C   LIG    1       25.529 -12.408   3.172  0.00  0.00    +0.038 C 
ATOM      7  C   LIG    1       25.089 -13.204   4.409  0.00  0.00    +0.068 C 
ATOM      8  C   LIG    1       26.235 -13.233   5.435  0.00  0.00    +0.038 C 
ATOM      9  C   LIG    1       27.482 -13.880   4.811  0.00  0.00    -0.006 C 
ATOM     10  C   LIG    1       27.906 -13.085   3.567  0.00  0.00    +0.007 C 
ATOM     11  C   LIG    1       24.743 -14.647   4.001  0.00  0.00    +0.057 C 
ATOM     12  C   LIG    1       27.148 -15.322   4.397  0.00  0.00    +0.026 C 
BRANCH   7  13
ATOM     13  O   LIG    1       23.934 -12.610   4.988  0.00  0.00    -0.389 OA
ATOM     14  H   LIG    1       23.186 -13.221   4.879  0.00  0.00    +0.210 HD
ENDBRANCH   7  13
ENDBRANCH   1   3
BRANCH   1  15
ATOM     15  C   LIG    1       26.575 -17.762   3.496  0.00  0.00    +0.178 C 
BRANCH  15  18
ATOM     16  C   LIG    1       25.472 -20.891   5.474  0.00  0.00    +0.179 C 
ATOM     17  N   LIG    1       26.171 -19.685   5.032  0.00  0.00    -0.285 N 
ATOM     18  C   LIG    1       25.773 -19.005   3.905  0.00  0.00    +0.230 C 
ATOM     19  O   LIG    1       24.806 -19.379   3.238  0.00  0.00    -0.274 OA
ATOM     20  C   LIG    1       27.335 -19.400   5.858  0.00  0.00    +0.109 C 
ATOM     21  C   LIG    1       27.248 -20.396   7.007  0.00  0.00    +0.022 C 
ATOM     22  C   LIG    1       26.496 -21.572   6.390  0.00  0.00    +0.039 C 
BRANCH  16  24
ATOM     23  N   LIG    1       23.238 -20.350   6.775  0.00  0.00    -0.195 NA
ATOM     24  C   LIG    1       24.231 -20.566   6.219  0.00  0.00    +0.085 C 
ENDBRANCH  16  24
ENDBRANCH  15  18
ENDBRANCH   1  15
TORSDOF 5
ENDMDL
MODEL 2
REMARK VINA RESULT:      -3.9      2.288      7.128
REMARK  Name = *****
REMARK                            x       y       z     vdW  Elec       q    Type
REMARK                         _______ _______ _______ _____ _____    ______ ____
ROOT
ATOM      1  N   LIG    1       22.116 -17.685   4.567  0.00  0.00    -0.302 NA
ATOM      2  H   LIG    1       21.253 -17.921   4.069  0.00  0.00    +0.123 HD
ENDROOT
BRANCH   1   3
ATOM      3  C   LIG    1       22.822 -18.935   4.924  0.00  0.00    +0.023 C 
ATOM      4  C   LIG    1       21.963 -20.137   4.428  0.00  0.00    +0.026 C 
ATOM      5  C   LIG    1       22.631 -21.480   4.792  0.00  0.00    -0.006 C 
ATOM      6  C   LIG    1       24.012 -21.553   4.130  0.00  0.00    +0.038 C 
ATOM      7  C   LIG    1       24.884 -20.384   4.613  0.00  0.00    +0.068 C 
ATOM      8  C   LIG    1       25.046 -20.465   6.141  0.00  0.00    +0.038 C 
ATOM      9  C   LIG    1       23.668 -20.408   6.819  0.00  0.00    -0.006 C 
ATOM     10  C   LIG    1       22.800 -21.572   6.318  0.00  0.00    +0.007 C 
ATOM     11  C   LIG    1       24.210 -19.050   4.249  0.00  0.00    +0.057 C 
ATOM     12  C   LIG    1       22.984 -19.078   6.460  0.00  0.00    +0.026 C 
BRANCH   7  13
ATOM     13  O   LIG    1       26.159 -20.433   3.986  0.00  0.00    -0.389 OA
ATOM     14  H   LIG    1       26.469 -21.353   3.990  0.00  0.00    +0.210 HD
ENDBRANCH   7  13
ENDBRANCH   1   3
BRANCH   1  15
ATOM     15  C   LIG    1       22.888 -16.773   3.697  0.00  0.00    +0.178 C 
BRANCH  15  18
ATOM     16  C   LIG    1       24.857 -13.654   4.844  0.00  0.00    +0.179 C 
ATOM     17  N   LIG    1       24.439 -14.873   4.154  0.00  0.00    -0.285 N 
ATOM     18  C   LIG    1       23.242 -15.483   4.450  0.00  0.00    +0.230 C 
ATOM     19  O   LIG    1       22.476 -15.016   5.296  0.00  0.00    -0.274 OA
ATOM     20  C   LIG    1       25.464 -15.359   3.243  0.00  0.00    +0.109 C 
ATOM     21  C   LIG    1       26.522 -14.263   3.229  0.00  0.00    +0.022 C 
ATOM     22  C   LIG    1       26.371 -13.620   4.605  0.00  0.00    +0.039 C 
BRANCH  16  24
ATOM     23  N   LIG    1       23.703 -11.527   3.786  0.00  0.00    -0.195 NA
ATOM     24  C   LIG    1       24.206 -12.448   4.276  0.00  0.00    +0.085 C 
ENDBRANCH  16  24
ENDBRANCH  15  18
ENDBRANCH   1  15
TORSDOF 5
ENDMDL
MODEL 3
REMARK VINA RESULT:      -3.8      2.266      7.270
REMARK  Name = *****
REMARK                            x       y       z     vdW  Elec       q    Type
REMARK                         _______ _______ _______ _____ _____    ______ ____
ROOT
ATOM      1  N   LIG    1       23.924 -17.710   3.319  0.00  0.00    -0.302 NA
ATOM      2  H   LIG    1       24.635 -17.806   2.587  0.00  0.00    +0.123 HD
ENDROOT
BRANCH   1   3
ATOM      3  C   LIG    1       23.917 -18.936   4.146  0.00  0.00    +0.023 C 
ATOM      4  C   LIG    1       23.895 -20.167   3.192  0.00  0.00    +0.026 C 
ATOM      5  C   LIG    1       23.860 -21.486   3.993  0.00  0.00    -0.006 C 
ATOM      6  C   LIG    1       25.109 -21.571   4.879  0.00  0.00    +0.038 C 
ATOM      7  C   LIG    1       25.147 -20.374   5.841  0.00  0.00    +0.068 C 
ATOM      8  C   LIG    1       23.890 -20.388   6.727  0.00  0.00    +0.038 C 
ATOM      9  C   LIG    1       22.629 -20.318   5.851  0.00  0.00    -0.006 C 
ATOM     10  C   LIG    1       22.608 -21.512   4.885  0.00  0.00    +0.007 C 
ATOM     11  C   LIG    1       25.179 -19.063   5.035  0.00  0.00    +0.057 C 
ATOM     12  C   LIG    1       22.651 -19.013   5.039  0.00  0.00    +0.026 C 
BRANCH   7  13
ATOM     13  O   LIG    1       26.314 -20.433   6.651  0.00  0.00    -0.389 OA
ATOM     14  H   LIG    1       26.940 -19.760   6.339  0.00  0.00    +0.210 HD
ENDBRANCH   7  13
ENDBRANCH   1   3
BRANCH   1  15
ATOM     15  C   LIG    1       24.228 -16.469   4.064  0.00  0.00    +0.178 C 
BRANCH  15  18
ATOM     16  C   LIG    1       26.285 -13.572   2.550  0.00  0.00    +0.179 C 
ATOM     17  N   LIG    1       25.238 -14.359   3.199  0.00  0.00    -0.285 N 
ATOM     18  C   LIG    1       25.385 -15.712   3.398  0.00  0.00    +0.230 C 
ATOM     19  O   LIG    1       26.408 -16.304   3.049  0.00  0.00    -0.274 OA
ATOM     20  C   LIG    1       24.058 -13.558   3.486  0.00  0.00    +0.109 C 
ATOM     21  C   LIG    1       24.471 -12.128   3.160  0.00  0.00    +0.022 C 
ATOM     22  C   LIG    1       25.541 -12.314   2.088  0.00  0.00    +0.039 C 
BRANCH  16  24
ATOM     23  N   LIG    1       28.256 -12.990   4.211  0.00  0.00    -0.195 NA
ATOM     24  C   LIG    1       27.376 -13.223   3.494  0.00  0.00    +0.085 C 
ENDBRANCH  16  24
ENDBRANCH  15  18
ENDBRANCH   1  15
TORSDOF 5
ENDMDL
MODEL 4
REMARK VINA RESULT:      -3.3      2.136      2.700
REMARK  Name = *****
REMARK                            x       y       z     vdW  Elec       q    Type
REMARK                         _______ _______ _______ _____ _____    ______ ____
ROOT
ATOM      1  N   LIG    1       23.188 -15.786   4.720  0.00  0.00    -0.302 NA
ATOM      2  H   LIG    1       23.686 -16.421   5.350  0.00  0.00    +0.123 HD
ENDROOT
BRANCH   1   3
ATOM      3  C   LIG    1       24.111 -14.712   4.292  0.00  0.00    +0.023 C 
ATOM      4  C   LIG    1       25.316 -15.372   3.557  0.00  0.00    +0.026 C 
ATOM      5  C   LIG    1       26.337 -14.306   3.104  0.00  0.00    -0.006 C 
ATOM      6  C   LIG    1       25.651 -13.326   2.145  0.00  0.00    +0.038 C 
ATOM      7  C   LIG    1       24.465 -12.651   2.851  0.00  0.00    +0.068 C 
ATOM      8  C   LIG    1       24.973 -11.887   4.086  0.00  0.00    +0.038 C 
ATOM      9  C   LIG    1       25.677 -12.855   5.050  0.00  0.00    -0.006 C 
ATOM     10  C   LIG    1       26.851 -13.534   4.330  0.00  0.00    +0.007 C 
ATOM     11  C   LIG    1       23.454 -13.720   3.302  0.00  0.00    +0.057 C 
ATOM     12  C   LIG    1       24.676 -13.929   5.506  0.00  0.00    +0.026 C 
BRANCH   7  13
ATOM     13  O   LIG    1       23.810 -11.757   1.961  0.00  0.00    -0.389 OA
ATOM     14  H   LIG    1       23.010 -11.419   2.398  0.00  0.00    +0.210 HD
ENDBRANCH   7  13
ENDBRANCH   1   3
BRANCH   1  15
ATOM     15  C   LIG    1       22.643 -16.602   3.615  0.00  0.00    +0.178 C 
BRANCH  15  18
ATOM     16  C   LIG    1       23.186 -20.336   4.443  0.00  0.00    +0.179 C 
ATOM     17  N   LIG    1       23.385 -18.948   4.028  0.00  0.00    -0.285 N 
ATOM     18  C   LIG    1       22.359 -18.033   4.093  0.00  0.00    +0.230 C 
ATOM     19  O   LIG    1       21.245 -18.348   4.514  0.00  0.00    -0.274 OA
ATOM     20  C   LIG    1       24.715 -18.731   3.480  0.00  0.00    +0.109 C 
ATOM     21  C   LIG    1       25.459 -20.034   3.741  0.00  0.00    +0.022 C 
ATOM     22  C   LIG    1       24.341 -21.074   3.757  0.00  0.00    +0.039 C 
BRANCH  16  24
ATOM     23  N   LIG    1       23.367 -20.635   7.061  0.00  0.00    -0.195 NA
ATOM     24  C   LIG    1       23.265 -20.486   5.918  0.00  0.00    +0.085 C 
ENDBRANCH  16  24
ENDBRANCH  15  18
ENDBRANCH   1  15
TORSDOF 5
ENDMDL
MODEL 5
REMARK VINA RESULT:      -3.1      2.216      3.183
REMARK  Name = *****
REMARK                            x       y       z     vdW  Elec       q    Type
REMARK                         _______ _______ _______ _____ _____    ______ ____
ROOT
ATOM      1  N   LIG    1       23.660 -16.092   4.575  0.00  0.00    -0.302 NA
ATOM      2  H   LIG    1       24.394 -16.794   4.708  0.00  0.00    +0.123 HD
ENDROOT
BRANCH   1   3
ATOM      3  C   LIG    1       24.273 -14.845   4.068  0.00  0.00    +0.023 C 
ATOM      4  C   LIG    1       24.775 -14.019   5.290  0.00  0.00    +0.026 C 
ATOM      5  C   LIG    1       25.406 -12.686   4.833  0.00  0.00    -0.006 C 
ATOM      6  C   LIG    1       26.596 -12.980   3.912  0.00  0.00    +0.038 C 
ATOM      7  C   LIG    1       26.123 -13.783   2.691  0.00  0.00    +0.068 C 
ATOM      8  C   LIG    1       25.070 -12.969   1.920  0.00  0.00    +0.038 C 
ATOM      9  C   LIG    1       23.876 -12.654   2.835  0.00  0.00    -0.006 C 
ATOM     10  C   LIG    1       24.362 -11.863   4.059  0.00  0.00    +0.007 C 
ATOM     11  C   LIG    1       25.495 -15.109   3.155  0.00  0.00    +0.057 C 
ATOM     12  C   LIG    1       23.241 -13.972   3.307  0.00  0.00    +0.026 C 
BRANCH   7  13
ATOM     13  O   LIG    1       27.225 -14.079   1.843  0.00  0.00    -0.389 OA
ATOM     14  H   LIG    1       27.516 -14.988   2.021  0.00  0.00    +0.210 HD
ENDBRANCH   7  13
ENDBRANCH   1   3
BRANCH   1  15
ATOM     15  C   LIG    1       22.645 -16.685   3.678  0.00  0.00    +0.178 C 
BRANCH  15  18
ATOM     16  C   LIG    1       23.187 -20.432   4.444  0.00  0.00    +0.179 C 
ATOM     17  N   LIG    1       23.394 -19.028   4.090  0.00  0.00    -0.285 N 
ATOM     18  C   LIG    1       22.348 -18.135   4.086  0.00  0.00    +0.230 C 
ATOM     19  O   LIG    1       21.206 -18.482   4.392  0.00  0.00    -0.274 OA
ATOM     20  C   LIG    1       24.764 -18.770   3.674  0.00  0.00    +0.109 C 
ATOM     21  C   LIG    1       25.508 -20.067   3.966  0.00  0.00    +0.022 C 
ATOM     22  C   LIG    1       24.416 -21.127   3.847  0.00  0.00    +0.039 C 
BRANCH  16  24
ATOM     23  N   LIG    1       23.141 -20.781   7.062  0.00  0.00    -0.195 NA
ATOM     24  C   LIG    1       23.132 -20.626   5.914  0.00  0.00    +0.085 C 
ENDBRANCH  16  24
ENDBRANCH  15  18
ENDBRANCH   1  15
TORSDOF 5
ENDMDL
MODEL 6
REMARK VINA RESULT:      -2.9      1.944      2.713
REMARK  Name = *****
REMARK                            x       y       z     vdW  Elec       q    Type
REMARK                         _______ _______ _______ _____ _____    ______ ____
ROOT
ATOM      1  N   LIG    1       24.447 -16.424   3.781  0.00  0.00    -0.302 NA
ATOM      2  H   LIG    1       24.561 -16.867   2.864  0.00  0.00    +0.123 HD
ENDROOT
BRANCH   1   3
ATOM      3  C   LIG    1       24.967 -15.041   3.714  0.00  0.00    +0.023 C 
ATOM      4  C   LIG    1       23.760 -14.062   3.823  0.00  0.00    +0.026 C 
ATOM      5  C   LIG    1       24.230 -12.594   3.734  0.00  0.00    -0.006 C 
ATOM      6  C   LIG    1       25.205 -12.306   4.882  0.00  0.00    +0.038 C 
ATOM      7  C   LIG    1       26.412 -13.251   4.789  0.00  0.00    +0.068 C 
ATOM      8  C   LIG    1       27.128 -13.035   3.444  0.00  0.00    +0.038 C 
ATOM      9  C   LIG    1       26.158 -13.306   2.283  0.00  0.00    -0.006 C 
ATOM     10  C   LIG    1       24.948 -12.366   2.394  0.00  0.00    +0.007 C 
ATOM     11  C   LIG    1       25.936 -14.711   4.876  0.00  0.00    +0.057 C 
ATOM     12  C   LIG    1       25.673 -14.763   2.361  0.00  0.00    +0.026 C 
BRANCH   7  13
ATOM     13  O   LIG    1       27.311 -13.005   5.862  0.00  0.00    -0.389 OA
ATOM     14  H   LIG    1       27.275 -12.059   6.083  0.00  0.00    +0.210 HD
ENDBRANCH   7  13
ENDBRANCH   1   3
BRANCH   1  15
ATOM     15  C   LIG    1       23.016 -16.524   4.139  0.00  0.00    +0.178 C 
BRANCH  15  18
ATOM     16  C   LIG    1       23.270 -20.373   4.326  0.00  0.00    +0.179 C 
ATOM     17  N   LIG    1       23.585 -18.952   4.199  0.00  0.00    -0.285 N 
ATOM     18  C   LIG    1       22.605 -17.993   4.310  0.00  0.00    +0.230 C 
ATOM     19  O   LIG    1       21.432 -18.298   4.533  0.00  0.00    -0.274 OA
ATOM     20  C   LIG    1       24.983 -18.735   3.859  0.00  0.00    +0.109 C 
ATOM     21  C   LIG    1       25.625 -20.113   3.963  0.00  0.00    +0.022 C 
ATOM     22  C   LIG    1       24.467 -21.058   3.656  0.00  0.00    +0.039 C 
BRANCH  16  24
ATOM     23  N   LIG    1       23.093 -21.072   6.868  0.00  0.00    -0.195 NA
ATOM     24  C   LIG    1       23.152 -20.787   5.747  0.00  0.00    +0.085 C 
ENDBRANCH  16  24
ENDBRANCH  15  18
ENDBRANCH   1  15
TORSDOF 5
ENDMDL
MODEL 7
REMARK VINA RESULT:      -2.1      1.690      2.338
REMARK  Name = *****
REMARK                            x       y       z     vdW  Elec       q    Type
REMARK                         _______ _______ _______ _____ _____    ______ ____
ROOT
ATOM      1  N   LIG    1       25.838 -16.672   3.043  0.00  0.00    -0.302 NA
ATOM      2  H   LIG    1       24.867 -16.932   3.240  0.00  0.00    +0.123 HD
ENDROOT
BRANCH   1   3
ATOM      3  C   LIG    1       26.028 -15.241   3.367  0.00  0.00    +0.023 C 
ATOM      4  C   LIG    1       26.348 -14.482   2.045  0.00  0.00    +0.026 C 
ATOM      5  C   LIG    1       26.585 -12.980   2.314  0.00  0.00    -0.006 C 
ATOM      6  C   LIG    1       25.323 -12.374   2.938  0.00  0.00    +0.038 C 
ATOM      7  C   LIG    1       24.993 -13.098   4.252  0.00  0.00    +0.068 C 
ATOM      8  C   LIG    1       26.171 -12.944   5.231  0.00  0.00    +0.038 C 
ATOM      9  C   LIG    1       27.448 -13.535   4.612  0.00  0.00    -0.006 C 
ATOM     10  C   LIG    1       27.760 -12.814   3.292  0.00  0.00    +0.007 C 
ATOM     11  C   LIG    1       24.761 -14.594   3.976  0.00  0.00    +0.057 C 
ATOM     12  C   LIG    1       27.226 -15.030   4.329  0.00  0.00    +0.026 C 
BRANCH   7  13
ATOM     13  O   LIG    1       23.811 -12.556   4.827  0.00  0.00    -0.389 OA
ATOM     14  H   LIG    1       23.044 -12.922   4.356  0.00  0.00    +0.210 HD
ENDBRANCH   7  13
ENDBRANCH   1   3
BRANCH   1  15
ATOM     15  C   LIG    1       26.703 -17.594   3.810  0.00  0.00    +0.178 C 
BRANCH  15  18
ATOM     16  C   LIG    1       23.806 -20.037   4.560  0.00  0.00    +0.179 C 
ATOM     17  N   LIG    1       24.586 -18.842   4.243  0.00  0.00    -0.285 N 
ATOM     18  C   LIG    1       25.955 -18.898   4.121  0.00  0.00    +0.230 C 
ATOM     19  O   LIG    1       26.569 -19.958   4.261  0.00  0.00    -0.274 OA
ATOM     20  C   LIG    1       23.753 -17.651   4.182  0.00  0.00    +0.109 C 
ATOM     21  C   LIG    1       22.325 -18.171   4.289  0.00  0.00    +0.022 C 
ATOM     22  C   LIG    1       22.486 -19.462   5.086  0.00  0.00    +0.039 C 
BRANCH  16  24
ATOM     23  N   LIG    1       23.426 -21.569   2.443  0.00  0.00    -0.195 NA
ATOM     24  C   LIG    1       23.574 -20.878   3.360  0.00  0.00    +0.085 C 
ENDBRANCH  16  24
ENDBRANCH  15  18
ENDBRANCH   1  15
TORSDOF 5
ENDMDL
MODEL 8
REMARK VINA RESULT:      -2.0      1.763      2.825
REMARK  Name = *****
REMARK                            x       y       z     vdW  Elec       q    Type
REMARK                         _______ _______ _______ _____ _____    ______ ____
ROOT
ATOM      1  N   LIG    1       26.029 -16.934   3.475  0.00  0.00    -0.302 NA
ATOM      2  H   LIG    1       25.539 -17.320   4.288  0.00  0.00    +0.123 HD
ENDROOT
BRANCH   1   3
ATOM      3  C   LIG    1       26.037 -15.459   3.574  0.00  0.00    +0.023 C 
ATOM      4  C   LIG    1       24.604 -14.990   3.968  0.00  0.00    +0.026 C 
ATOM      5  C   LIG    1       24.533 -13.451   4.063  0.00  0.00    -0.006 C 
ATOM      6  C   LIG    1       25.522 -12.965   5.129  0.00  0.00    +0.038 C 
ATOM      7  C   LIG    1       26.946 -13.403   4.756  0.00  0.00    +0.068 C 
ATOM      8  C   LIG    1       27.327 -12.799   3.393  0.00  0.00    +0.038 C 
ATOM      9  C   LIG    1       26.335 -13.266   2.316  0.00  0.00    -0.006 C 
ATOM     10  C   LIG    1       24.913 -12.835   2.706  0.00  0.00    +0.007 C 
ATOM     11  C   LIG    1       27.008 -14.938   4.661  0.00  0.00    +0.057 C 
ATOM     12  C   LIG    1       26.386 -14.799   2.214  0.00  0.00    +0.026 C 
BRANCH   7  13
ATOM     13  O   LIG    1       27.867 -12.975   5.751  0.00  0.00    -0.389 OA
ATOM     14  H   LIG    1       28.748 -12.910   5.348  0.00  0.00    +0.210 HD
ENDBRANCH   7  13
ENDBRANCH   1   3
BRANCH   1  15
ATOM     15  C   LIG    1       27.371 -17.553   3.440  0.00  0.00    +0.178 C 
BRANCH  15  18
ATOM     16  C   LIG    1       27.249 -19.844   6.547  0.00  0.00    +0.179 C 
ATOM     17  N   LIG    1       26.990 -19.231   5.246  0.00  0.00    -0.285 N 
ATOM     18  C   LIG    1       27.723 -18.153   4.809  0.00  0.00    +0.230 C 
ATOM     19  O   LIG    1       28.631 -17.675   5.492  0.00  0.00    -0.274 OA
ATOM     20  C   LIG    1       25.847 -19.837   4.579  0.00  0.00    +0.109 C 
ATOM     21  C   LIG    1       25.482 -21.034   5.448  0.00  0.00    +0.022 C 
ATOM     22  C   LIG    1       25.954 -20.611   6.836  0.00  0.00    +0.039 C 
BRANCH  16  24
ATOM     23  N   LIG    1       29.325 -21.477   6.513  0.00  0.00    -0.195 NA
ATOM     24  C   LIG    1       28.410 -20.767   6.500  0.00  0.00    +0.085 C 
ENDBRANCH  16  24
ENDBRANCH  15  18
ENDBRANCH   1  15
TORSDOF 5
ENDMDL
MODEL 9
REMARK VINA RESULT:      -1.4      2.163      6.622
REMARK  Name = *****
REMARK                            x       y       z     vdW  Elec       q    Type
REMARK                         _______ _______ _______ _____ _____    ______ ____
ROOT
ATOM      1  N   LIG    1       26.267 -18.180   3.674  0.00  0.00    -0.302 NA
ATOM      2  H   LIG    1       26.691 -17.802   4.526  0.00  0.00    +0.123 HD
ENDROOT
BRANCH   1   3
ATOM      3  C   LIG    1       25.110 -19.023   4.047  0.00  0.00    +0.023 C 
ATOM      4  C   LIG    1       25.226 -19.365   5.562  0.00  0.00    +0.026 C 
ATOM      5  C   LIG    1       24.059 -20.269   6.015  0.00  0.00    -0.006 C 
ATOM      6  C   LIG    1       22.732 -19.539   5.773  0.00  0.00    +0.038 C 
ATOM      7  C   LIG    1       22.588 -19.203   4.281  0.00  0.00    +0.068 C 
ATOM      8  C   LIG    1       22.614 -20.503   3.459  0.00  0.00    +0.038 C 
ATOM      9  C   LIG    1       23.933 -21.253   3.703  0.00  0.00    -0.006 C 
ATOM     10  C   LIG    1       24.073 -21.572   5.199  0.00  0.00    +0.007 C 
ATOM     11  C   LIG    1       23.755 -18.304   3.837  0.00  0.00    +0.057 C 
ATOM     12  C   LIG    1       25.107 -20.363   3.265  0.00  0.00    +0.026 C 
BRANCH   7  13
ATOM     13  O   LIG    1       21.370 -18.507   4.051  0.00  0.00    -0.389 OA
ATOM     14  H   LIG    1       21.118 -18.627   3.121  0.00  0.00    +0.210 HD
ENDBRANCH   7  13
ENDBRANCH   1   3
BRANCH   1  15
ATOM     15  C   LIG    1       25.933 -17.032   2.805  0.00  0.00    +0.178 C 
BRANCH  15  18
ATOM     16  C   LIG    1       25.728 -13.667   4.690  0.00  0.00    +0.179 C 
ATOM     17  N   LIG    1       26.187 -14.798   3.886  0.00  0.00    -0.285 N 
ATOM     18  C   LIG    1       25.366 -15.874   3.638  0.00  0.00    +0.230 C 
ATOM     19  O   LIG    1       24.213 -15.915   4.072  0.00  0.00    -0.274 OA
ATOM     20  C   LIG    1       27.584 -14.660   3.504  0.00  0.00    +0.109 C 
ATOM     21  C   LIG    1       27.970 -13.255   3.948  0.00  0.00    +0.022 C 
ATOM     22  C   LIG    1       27.035 -12.996   5.126  0.00  0.00    +0.039 C 
BRANCH  16  24
ATOM     23  N   LIG    1       24.226 -12.040   3.250  0.00  0.00    -0.195 NA
ATOM     24  C   LIG    1       24.892 -12.731   3.898  0.00  0.00    +0.085 C 
ENDBRANCH  16  24
ENDBRANCH  15  18
ENDBRANCH   1  15
TORSDOF 5
ENDMDL
