MODEL 1
REMARK VINA RESULT:      -8.5      0.000      0.000
REMARK  Name = *****
REMARK                            x       y       z     vdW  Elec       q    Type
REMARK                         _______ _______ _______ _____ _____    ______ ____
ROOT
ATOM      1  O   LIG    1       26.327 -19.309   4.551  0.00  0.00    -0.286 OA
ATOM      2  C   LIG    1       26.652 -20.021   5.497  0.00  0.00    +0.201 C 
ATOM      3  C   LIG    1       27.997 -19.950   6.134  0.00  0.00    +0.067 A 
ATOM      4  C   LIG    1       28.287 -20.798   7.217  0.00  0.00    -0.029 A 
ATOM      5  C   LIG    1       29.556 -20.736   7.823  0.00  0.00    +0.005 A 
ATOM      6  C   LIG    1       30.524 -19.846   7.364  0.00  0.00    +0.004 A 
ATOM      7  C   LIG    1       30.240 -19.005   6.293  0.00  0.00    +0.046 A 
ATOM      8  C   LIG    1       27.288 -21.779   7.768  0.00  0.00    +0.072 C 
ATOM      9  C   LIG    1       25.953 -21.819   7.083  0.00  0.00    -0.029 A 
ATOM     10  C   LIG    1       24.980 -22.724   7.546  0.00  0.00    +0.005 A 
ATOM     11  C   LIG    1       23.723 -22.794   6.945  0.00  0.00    +0.004 A 
ATOM     12  C   LIG    1       23.420 -21.960   5.872  0.00  0.00    +0.046 A 
ATOM     13  C   LIG    1       24.375 -21.062   5.405  0.00  0.00    +0.128 A 
ATOM     14  C   LIG    1       28.985 -19.056   5.680  0.00  0.00    +0.128 A 
ATOM     15  C   LIG    1       25.645 -20.983   6.004  0.00  0.00    +0.067 A 
ENDROOT
BRANCH  13  16
ATOM     16  O   LIG    1       23.997 -20.280   4.346  0.00  0.00    -0.506 OA
ATOM     17  H   LIG    1       23.269 -19.693   4.663  0.00  0.00    +0.292 HD
ENDBRANCH  13  16
BRANCH  14  18
ATOM     18  O   LIG    1       28.745 -18.214   4.632  0.00  0.00    -0.506 OA
ATOM     19  H   LIG    1       28.030 -17.597   4.849  0.00  0.00    +0.292 HD
ENDBRANCH  14  18
TORSDOF 2
ENDMDL
MODEL 2
REMARK VINA RESULT:      -8.4      0.288      4.863
REMARK  Name = *****
REMARK                            x       y       z     vdW  Elec       q    Type
REMARK                         _______ _______ _______ _____ _____    ______ ____
ROOT
ATOM      1  O   LIG    1       26.416 -19.230   4.575  0.00  0.00    -0.286 OA
ATOM      2  C   LIG    1       26.541 -19.984   5.537  0.00  0.00    +0.201 C 
ATOM      3  C   LIG    1       25.432 -20.846   6.035  0.00  0.00    +0.067 A 
ATOM      4  C   LIG    1       25.661 -21.684   7.139  0.00  0.00    -0.029 A 
ATOM      5  C   LIG    1       24.618 -22.500   7.615  0.00  0.00    +0.005 A 
ATOM      6  C   LIG    1       23.365 -22.486   7.005  0.00  0.00    +0.004 A 
ATOM      7  C   LIG    1       23.137 -21.658   5.911  0.00  0.00    +0.046 A 
ATOM      8  C   LIG    1       26.989 -21.754   7.844  0.00  0.00    +0.072 C 
ATOM      9  C   LIG    1       28.069 -20.858   7.310  0.00  0.00    -0.029 A 
ATOM     10  C   LIG    1       29.330 -20.870   7.933  0.00  0.00    +0.005 A 
ATOM     11  C   LIG    1       30.366 -20.058   7.470  0.00  0.00    +0.004 A 
ATOM     12  C   LIG    1       30.156 -19.222   6.377  0.00  0.00    +0.046 A 
ATOM     13  C   LIG    1       28.912 -19.201   5.753  0.00  0.00    +0.128 A 
ATOM     14  C   LIG    1       24.163 -20.841   5.429  0.00  0.00    +0.128 A 
ATOM     15  C   LIG    1       27.862 -20.015   6.212  0.00  0.00    +0.067 A 
ENDROOT
BRANCH  13  16
ATOM     16  O   LIG    1       28.789 -18.351   4.686  0.00  0.00    -0.506 OA
ATOM     17  H   LIG    1       28.973 -17.440   5.017  0.00  0.00    +0.292 HD
ENDBRANCH  13  16
BRANCH  14  18
ATOM     18  O   LIG    1       23.898 -20.042   4.353  0.00  0.00    -0.506 OA
ATOM     19  H   LIG    1       23.075 -19.551   4.490  0.00  0.00    +0.292 HD
ENDBRANCH  14  18
TORSDOF 2
ENDMDL
MODEL 3
REMARK VINA RESULT:      -8.0      2.149      3.112
REMARK  Name = *****
REMARK                            x       y       z     vdW  Elec       q    Type
REMARK                         _______ _______ _______ _____ _____    ______ ____
ROOT
ATOM      1  O   LIG    1       25.361 -21.971   7.975  0.00  0.00    -0.286 OA
ATOM      2  C   LIG    1       25.703 -21.254   7.039  0.00  0.00    +0.201 C 
ATOM      3  C   LIG    1       27.100 -20.763   6.867  0.00  0.00    +0.067 A 
ATOM      4  C   LIG    1       27.408 -19.949   5.764  0.00  0.00    -0.029 A 
ATOM      5  C   LIG    1       28.726 -19.482   5.597  0.00  0.00    +0.005 A 
ATOM      6  C   LIG    1       29.724 -19.817   6.510  0.00  0.00    +0.004 A 
ATOM      7  C   LIG    1       29.420 -20.623   7.602  0.00  0.00    +0.046 A 
ATOM      8  C   LIG    1       26.383 -19.552   4.737  0.00  0.00    +0.072 C 
ATOM      9  C   LIG    1       24.989 -20.064   4.962  0.00  0.00    -0.029 A 
ATOM     10  C   LIG    1       23.983 -19.717   4.041  0.00  0.00    +0.005 A 
ATOM     11  C   LIG    1       22.674 -20.172   4.206  0.00  0.00    +0.004 A 
ATOM     12  C   LIG    1       22.353 -20.979   5.293  0.00  0.00    +0.046 A 
ATOM     13  C   LIG    1       23.339 -21.327   6.210  0.00  0.00    +0.128 A 
ATOM     14  C   LIG    1       28.117 -21.093   7.782  0.00  0.00    +0.128 A 
ATOM     15  C   LIG    1       24.661 -20.875   6.054  0.00  0.00    +0.067 A 
ENDROOT
BRANCH  13  16
ATOM     16  O   LIG    1       22.939 -22.124   7.251  0.00  0.00    -0.506 OA
ATOM     17  H   LIG    1       22.732 -23.012   6.875  0.00  0.00    +0.292 HD
ENDBRANCH  13  16
BRANCH  14  18
ATOM     18  O   LIG    1       27.861 -21.882   8.867  0.00  0.00    -0.506 OA
ATOM     19  H   LIG    1       28.532 -22.575   8.949  0.00  0.00    +0.292 HD
ENDBRANCH  14  18
TORSDOF 2
ENDMDL
MODEL 4
REMARK VINA RESULT:      -8.0      2.083      5.577
REMARK  Name = *****
REMARK                            x       y       z     vdW  Elec       q    Type
REMARK                         _______ _______ _______ _____ _____    ______ ____
ROOT
ATOM      1  O   LIG    1       26.841 -22.044   8.058  0.00  0.00    -0.286 OA
ATOM      2  C   LIG    1       26.866 -21.267   7.107  0.00  0.00    +0.201 C 
ATOM      3  C   LIG    1       25.700 -21.058   6.204  0.00  0.00    +0.067 A 
ATOM      4  C   LIG    1       25.811 -20.146   5.141  0.00  0.00    -0.029 A 
ATOM      5  C   LIG    1       24.713 -19.945   4.284  0.00  0.00    +0.005 A 
ATOM      6  C   LIG    1       23.519 -20.638   4.478  0.00  0.00    +0.004 A 
ATOM      7  C   LIG    1       23.407 -21.542   5.530  0.00  0.00    +0.046 A 
ATOM      8  C   LIG    1       27.066 -19.360   4.875  0.00  0.00    +0.072 C 
ATOM      9  C   LIG    1       28.216 -19.615   5.807  0.00  0.00    -0.029 A 
ATOM     10  C   LIG    1       29.421 -18.918   5.604  0.00  0.00    +0.005 A 
ATOM     11  C   LIG    1       30.516 -19.118   6.446  0.00  0.00    +0.004 A 
ATOM     12  C   LIG    1       30.421 -20.018   7.504  0.00  0.00    +0.046 A 
ATOM     13  C   LIG    1       29.234 -20.713   7.714  0.00  0.00    +0.128 A 
ATOM     14  C   LIG    1       24.489 -21.752   6.388  0.00  0.00    +0.128 A 
ATOM     15  C   LIG    1       28.125 -20.519   6.871  0.00  0.00    +0.067 A 
ENDROOT
BRANCH  13  16
ATOM     16  O   LIG    1       29.225 -21.580   8.775  0.00  0.00    -0.506 OA
ATOM     17  H   LIG    1       29.163 -21.034   9.595  0.00  0.00    +0.292 HD
ENDBRANCH  13  16
BRANCH  14  18
ATOM     18  O   LIG    1       24.338 -22.647   7.409  0.00  0.00    -0.506 OA
ATOM     19  H   LIG    1       24.526 -23.546   7.102  0.00  0.00    +0.292 HD
ENDBRANCH  14  18
TORSDOF 2
ENDMDL
MODEL 5
REMARK VINA RESULT:      -6.5      7.718      9.815
REMARK  Name = *****
REMARK                            x       y       z     vdW  Elec       q    Type
REMARK                         _______ _______ _______ _____ _____    ______ ____
ROOT
ATOM      1  O   LIG    1       23.561 -30.656   7.724  0.00  0.00    -0.286 OA
ATOM      2  C   LIG    1       24.431 -29.831   7.989  0.00  0.00    +0.201 C 
ATOM      3  C   LIG    1       24.820 -28.739   7.051  0.00  0.00    +0.067 A 
ATOM      4  C   LIG    1       25.822 -27.832   7.435  0.00  0.00    -0.029 A 
ATOM      5  C   LIG    1       26.194 -26.799   6.553  0.00  0.00    +0.005 A 
ATOM      6  C   LIG    1       25.579 -26.666   5.310  0.00  0.00    +0.004 A 
ATOM      7  C   LIG    1       24.586 -27.562   4.929  0.00  0.00    +0.046 A 
ATOM      8  C   LIG    1       26.524 -27.913   8.763  0.00  0.00    +0.072 C 
ATOM      9  C   LIG    1       26.104 -29.037   9.665  0.00  0.00    -0.029 A 
ATOM     10  C   LIG    1       26.732 -29.172  10.918  0.00  0.00    +0.005 A 
ATOM     11  C   LIG    1       26.372 -30.199  11.792  0.00  0.00    +0.004 A 
ATOM     12  C   LIG    1       25.380 -31.104  11.427  0.00  0.00    +0.046 A 
ATOM     13  C   LIG    1       24.754 -30.981  10.192  0.00  0.00    +0.128 A 
ATOM     14  C   LIG    1       24.208 -28.593   5.792  0.00  0.00    +0.128 A 
ATOM     15  C   LIG    1       25.108 -29.951   9.303  0.00  0.00    +0.067 A 
ENDROOT
BRANCH  13  16
ATOM     16  O   LIG    1       23.789 -31.913   9.911  0.00  0.00    -0.506 OA
ATOM     17  H   LIG    1       23.417 -31.689   9.025  0.00  0.00    +0.292 HD
ENDBRANCH  13  16
BRANCH  14  18
ATOM     18  O   LIG    1       23.228 -29.452   5.381  0.00  0.00    -0.506 OA
ATOM     19  H   LIG    1       22.385 -28.984   5.285  0.00  0.00    +0.292 HD
ENDBRANCH  14  18
TORSDOF 2
ENDMDL
MODEL 6
REMARK VINA RESULT:      -6.5      7.774      9.934
REMARK  Name = *****
REMARK                            x       y       z     vdW  Elec       q    Type
REMARK                         _______ _______ _______ _____ _____    ______ ____
ROOT
ATOM      1  O   LIG    1       23.544 -30.646   7.622  0.00  0.00    -0.286 OA
ATOM      2  C   LIG    1       24.422 -29.889   8.027  0.00  0.00    +0.201 C 
ATOM      3  C   LIG    1       25.079 -30.052   9.355  0.00  0.00    +0.067 A 
ATOM      4  C   LIG    1       26.079 -29.144   9.739  0.00  0.00    -0.029 A 
ATOM      5  C   LIG    1       26.704 -29.293  10.992  0.00  0.00    +0.005 A 
ATOM      6  C   LIG    1       26.343 -30.328  11.851  0.00  0.00    +0.004 A 
ATOM      7  C   LIG    1       25.353 -31.230  11.472  0.00  0.00    +0.046 A 
ATOM      8  C   LIG    1       26.523 -28.006   8.861  0.00  0.00    +0.072 C 
ATOM      9  C   LIG    1       25.821 -27.878   7.539  0.00  0.00    -0.029 A 
ATOM     10  C   LIG    1       26.184 -26.827   6.677  0.00  0.00    +0.005 A 
ATOM     11  C   LIG    1       25.563 -26.670   5.437  0.00  0.00    +0.004 A 
ATOM     12  C   LIG    1       24.571 -27.563   5.041  0.00  0.00    +0.046 A 
ATOM     13  C   LIG    1       24.204 -28.605   5.886  0.00  0.00    +0.128 A 
ATOM     14  C   LIG    1       24.724 -31.093  10.232  0.00  0.00    +0.128 A 
ATOM     15  C   LIG    1       24.823 -28.772   7.137  0.00  0.00    +0.067 A 
ENDROOT
BRANCH  13  16
ATOM     16  O   LIG    1       23.219 -29.437   5.420  0.00  0.00    -0.506 OA
ATOM     17  H   LIG    1       22.617 -28.891   4.860  0.00  0.00    +0.292 HD
ENDBRANCH  13  16
BRANCH  14  18
ATOM     18  O   LIG    1       23.758 -31.999   9.897  0.00  0.00    -0.506 OA
ATOM     19  H   LIG    1       22.884 -31.677  10.165  0.00  0.00    +0.292 HD
ENDBRANCH  14  18
TORSDOF 2
ENDMDL
MODEL 7
REMARK VINA RESULT:      -6.3      1.918      4.686
REMARK  Name = *****
REMARK                            x       y       z     vdW  Elec       q    Type
REMARK                         _______ _______ _______ _____ _____    ______ ____
ROOT
ATOM      1  O   LIG    1       27.044 -19.613   4.631  0.00  0.00    -0.286 OA
ATOM      2  C   LIG    1       26.064 -19.988   5.268  0.00  0.00    +0.201 C 
ATOM      3  C   LIG    1       24.668 -19.645   4.876  0.00  0.00    +0.067 A 
ATOM      4  C   LIG    1       23.601 -20.119   5.659  0.00  0.00    -0.029 A 
ATOM      5  C   LIG    1       22.280 -19.799   5.294  0.00  0.00    +0.005 A 
ATOM      6  C   LIG    1       22.019 -19.020   4.168  0.00  0.00    +0.004 A 
ATOM      7  C   LIG    1       23.073 -18.551   3.391  0.00  0.00    +0.046 A 
ATOM      8  C   LIG    1       23.809 -20.967   6.884  0.00  0.00    +0.072 C 
ATOM      9  C   LIG    1       25.235 -21.274   7.242  0.00  0.00    -0.029 A 
ATOM     10  C   LIG    1       25.494 -22.055   8.384  0.00  0.00    +0.005 A 
ATOM     11  C   LIG    1       26.802 -22.369   8.755  0.00  0.00    +0.004 A 
ATOM     12  C   LIG    1       27.869 -21.908   7.989  0.00  0.00    +0.046 A 
ATOM     13  C   LIG    1       27.624 -21.135   6.859  0.00  0.00    +0.128 A 
ATOM     14  C   LIG    1       24.390 -18.860   3.742  0.00  0.00    +0.128 A 
ATOM     15  C   LIG    1       26.310 -20.812   6.476  0.00  0.00    +0.067 A 
ENDROOT
BRANCH  13  16
ATOM     16  O   LIG    1       28.730 -20.722   6.162  0.00  0.00    -0.506 OA
ATOM     17  H   LIG    1       28.602 -19.766   5.954  0.00  0.00    +0.292 HD
ENDBRANCH  13  16
BRANCH  14  18
ATOM     18  O   LIG    1       25.396 -18.381   2.953  0.00  0.00    -0.506 OA
ATOM     19  H   LIG    1       26.259 -18.587   3.341  0.00  0.00    +0.292 HD
ENDBRANCH  14  18
TORSDOF 2
ENDMDL
MODEL 8
REMARK VINA RESULT:      -6.0      3.402      5.314
REMARK  Name = *****
REMARK                            x       y       z     vdW  Elec       q    Type
REMARK                         _______ _______ _______ _____ _____    ______ ____
ROOT
ATOM      1  O   LIG    1       21.816 -21.235   5.291  0.00  0.00    -0.286 OA
ATOM      2  C   LIG    1       23.043 -21.283   5.294  0.00  0.00    +0.201 C 
ATOM      3  C   LIG    1       23.804 -22.432   5.862  0.00  0.00    +0.067 A 
ATOM      4  C   LIG    1       25.208 -22.410   5.821  0.00  0.00    -0.029 A 
ATOM      5  C   LIG    1       25.932 -23.492   6.356  0.00  0.00    +0.005 A 
ATOM      6  C   LIG    1       25.274 -24.581   6.923  0.00  0.00    +0.004 A 
ATOM      7  C   LIG    1       23.884 -24.606   6.964  0.00  0.00    +0.046 A 
ATOM      8  C   LIG    1       25.984 -21.270   5.220  0.00  0.00    +0.072 C 
ATOM      9  C   LIG    1       25.170 -20.132   4.672  0.00  0.00    -0.029 A 
ATOM     10  C   LIG    1       25.839 -19.031   4.106  0.00  0.00    +0.005 A 
ATOM     11  C   LIG    1       25.126 -17.953   3.581  0.00  0.00    +0.004 A 
ATOM     12  C   LIG    1       23.735 -17.960   3.613  0.00  0.00    +0.046 A 
ATOM     13  C   LIG    1       23.063 -19.043   4.171  0.00  0.00    +0.128 A 
ATOM     14  C   LIG    1       23.152 -23.538   6.438  0.00  0.00    +0.128 A 
ATOM     15  C   LIG    1       23.772 -20.135   4.703  0.00  0.00    +0.067 A 
ENDROOT
BRANCH  13  16
ATOM     16  O   LIG    1       21.695 -18.970   4.164  0.00  0.00    -0.506 OA
ATOM     17  H   LIG    1       21.439 -18.240   4.776  0.00  0.00    +0.292 HD
ENDBRANCH  13  16
BRANCH  14  18
ATOM     18  O   LIG    1       21.788 -23.601   6.497  0.00  0.00    -0.506 OA
ATOM     19  H   LIG    1       21.466 -24.405   6.063  0.00  0.00    +0.292 HD
ENDBRANCH  14  18
TORSDOF 2
ENDMDL
MODEL 9
REMARK VINA RESULT:      -6.0      3.387      4.569
REMARK  Name = *****
REMARK                            x       y       z     vdW  Elec       q    Type
REMARK                         _______ _______ _______ _____ _____    ______ ____
ROOT
ATOM      1  O   LIG    1       21.847 -21.393   5.398  0.00  0.00    -0.286 OA
ATOM      2  C   LIG    1       23.070 -21.310   5.331  0.00  0.00    +0.201 C 
ATOM      3  C   LIG    1       23.768 -20.141   4.724  0.00  0.00    +0.067 A 
ATOM      4  C   LIG    1       25.172 -20.123   4.693  0.00  0.00    -0.029 A 
ATOM      5  C   LIG    1       25.837 -19.022   4.121  0.00  0.00    +0.005 A 
ATOM      6  C   LIG    1       25.120 -17.953   3.587  0.00  0.00    +0.004 A 
ATOM      7  C   LIG    1       23.729 -17.969   3.617  0.00  0.00    +0.046 A 
ATOM      8  C   LIG    1       26.010 -21.239   5.255  0.00  0.00    +0.072 C 
ATOM      9  C   LIG    1       25.259 -22.398   5.844  0.00  0.00    -0.029 A 
ATOM     10  C   LIG    1       25.988 -23.479   6.376  0.00  0.00    +0.005 A 
ATOM     11  C   LIG    1       25.334 -24.576   6.939  0.00  0.00    +0.004 A 
ATOM     12  C   LIG    1       23.943 -24.608   6.978  0.00  0.00    +0.046 A 
ATOM     13  C   LIG    1       23.213 -23.546   6.454  0.00  0.00    +0.128 A 
ATOM     14  C   LIG    1       23.056 -19.056   4.182  0.00  0.00    +0.128 A 
ATOM     15  C   LIG    1       23.861 -22.436   5.885  0.00  0.00    +0.067 A 
ENDROOT
BRANCH  13  16
ATOM     16  O   LIG    1       21.849 -23.658   6.532  0.00  0.00    -0.506 OA
ATOM     17  H   LIG    1       21.643 -24.613   6.667  0.00  0.00    +0.292 HD
ENDBRANCH  13  16
BRANCH  14  18
ATOM     18  O   LIG    1       21.690 -19.032   4.192  0.00  0.00    -0.506 OA
ATOM     19  H   LIG    1       21.345 -19.679   4.825  0.00  0.00    +0.292 HD
ENDBRANCH  14  18
TORSDOF 2
ENDMDL
