MODEL 1
REMARK VINA RESULT:       0.6      0.000      0.000
REMARK  Name = *****
REMARK                            x       y       z     vdW  Elec       q    Type
REMARK                         _______ _______ _______ _____ _____    ______ ____
ROOT
ATOM      1  C   LIG    1       25.445 -15.457   3.608  0.00  0.00    +0.103 C 
ATOM      2  C   LIG    1       25.737 -16.839   3.763  0.00  0.00    +0.171 C 
ATOM      3  F   LIG    1       27.012 -17.235   3.614  0.00  0.00    -0.201 F 
ATOM      4  C   LIG    1       24.765 -17.836   4.019  0.00  0.00    +0.090 C 
ATOM      5  C   LIG    1       23.431 -17.396   4.115  0.00  0.00    +0.052 C 
ATOM      6  C   LIG    1       22.341 -18.369   4.353  0.00  0.00    +0.203 C 
ATOM      7  C   LIG    1       22.692 -19.791   4.499  0.00  0.00    +0.122 C 
ATOM      8  C   LIG    1       23.990 -20.101   4.399  0.00  0.00    +0.105 C 
ATOM      9  O   LIG    1       21.165 -18.015   4.422  0.00  0.00    -0.286 OA
ATOM     10  C   LIG    1       23.092 -16.052   3.981  0.00  0.00    +0.054 C 
ATOM     11  N   LIG    1       25.043 -19.218   4.181  0.00  0.00    -0.341 NA
ATOM     12  C   LIG    1       24.086 -15.110   3.752  0.00  0.00    +0.148 C 
ATOM     13  F   LIG    1       23.689 -13.829   3.700  0.00  0.00    -0.203 F 
ENDROOT
BRANCH   1  18
ATOM     14  C   LIG    1       28.709 -11.925   4.879  0.00  0.00    +0.105 C 
ATOM     15  N   LIG    1       28.538 -12.363   3.497  0.00  0.00    -0.302 NA
ATOM     16  C   LIG    1       28.845 -13.798   3.334  0.00  0.00    +0.103 C 
ATOM     17  C   LIG    1       27.789 -14.784   3.891  0.00  0.00    +0.120 C 
ATOM     18  N   LIG    1       26.432 -14.469   3.377  0.00  0.00    -0.323 NA
ATOM     19  C   LIG    1       26.076 -13.044   3.565  0.00  0.00    +0.120 C 
ATOM     20  C   LIG    1       27.171 -12.108   3.003  0.00  0.00    +0.103 C 
ENDBRANCH   1  18
BRANCH   7  21
ATOM     21  C   LIG    1       21.704 -20.867   4.730  0.00  0.00    +0.342 C 
ATOM     22  O   LIG    1       20.789 -21.113   3.965  0.00  0.00    -0.245 OA
BRANCH  21  23
ATOM     23  O   LIG    1       21.904 -21.571   5.866  0.00  0.00    -0.477 OA
ATOM     24  H   LIG    1       21.596 -22.508   5.819  0.00  0.00    +0.295 HD
ENDBRANCH  21  23
ENDBRANCH   7  21
BRANCH  11  25
ATOM     25  C   LIG    1       26.407 -19.758   3.954  0.00  0.00    +0.155 C 
BRANCH  25  26
ATOM     26  C   LIG    1       27.097 -20.128   5.265  0.00  0.00    +0.235 C 
ATOM     27  F   LIG    1       28.219 -19.370   5.421  0.00  0.00    -0.247 F 
ENDBRANCH  25  26
ENDBRANCH  11  25
TORSDOF 5
ENDMDL
MODEL 2
REMARK VINA RESULT:       1.3      3.628      7.792
REMARK  Name = *****
REMARK                            x       y       z     vdW  Elec       q    Type
REMARK                         _______ _______ _______ _____ _____    ______ ____
ROOT
ATOM      1  C   LIG    1       24.805 -17.560   3.729  0.00  0.00    +0.103 C 
ATOM      2  C   LIG    1       24.521 -16.184   3.938  0.00  0.00    +0.171 C 
ATOM      3  F   LIG    1       23.233 -15.810   4.014  0.00  0.00    -0.201 F 
ATOM      4  C   LIG    1       25.506 -15.170   4.025  0.00  0.00    +0.090 C 
ATOM      5  C   LIG    1       26.843 -15.587   3.887  0.00  0.00    +0.052 C 
ATOM      6  C   LIG    1       27.941 -14.596   3.936  0.00  0.00    +0.203 C 
ATOM      7  C   LIG    1       27.597 -13.180   4.147  0.00  0.00    +0.122 C 
ATOM      8  C   LIG    1       26.296 -12.893   4.274  0.00  0.00    +0.105 C 
ATOM      9  O   LIG    1       29.117 -14.929   3.798  0.00  0.00    -0.286 OA
ATOM     10  C   LIG    1       27.177 -16.925   3.691  0.00  0.00    +0.054 C 
ATOM     11  N   LIG    1       25.236 -13.794   4.239  0.00  0.00    -0.341 NA
ATOM     12  C   LIG    1       26.173 -17.884   3.633  0.00  0.00    +0.148 C 
ATOM     13  F   LIG    1       26.577 -19.158   3.508  0.00  0.00    -0.203 F 
ENDROOT
BRANCH   1  18
ATOM     14  C   LIG    1       22.115 -21.385   5.427  0.00  0.00    +0.105 C 
ATOM     15  N   LIG    1       21.866 -20.780   4.122  0.00  0.00    -0.302 NA
ATOM     16  C   LIG    1       21.502 -19.353   4.240  0.00  0.00    +0.103 C 
ATOM     17  C   LIG    1       22.658 -18.385   4.589  0.00  0.00    +0.120 C 
ATOM     18  N   LIG    1       23.809 -18.565   3.668  0.00  0.00    -0.323 NA
ATOM     19  C   LIG    1       24.228 -19.981   3.562  0.00  0.00    +0.120 C 
ATOM     20  C   LIG    1       23.032 -20.901   3.226  0.00  0.00    +0.103 C 
ENDBRANCH   1  18
BRANCH   7  21
ATOM     21  C   LIG    1       28.591 -12.088   4.207  0.00  0.00    +0.342 C 
ATOM     22  O   LIG    1       29.028 -11.523   3.220  0.00  0.00    -0.245 OA
BRANCH  21  23
ATOM     23  O   LIG    1       28.975 -11.753   5.459  0.00  0.00    -0.477 OA
ATOM     24  H   LIG    1       28.546 -10.934   5.807  0.00  0.00    +0.295 HD
ENDBRANCH  21  23
ENDBRANCH   7  21
BRANCH  11  25
ATOM     25  C   LIG    1       23.845 -13.278   4.253  0.00  0.00    +0.155 C 
BRANCH  25  26
ATOM     26  C   LIG    1       23.774 -11.823   3.793  0.00  0.00    +0.235 C 
ATOM     27  F   LIG    1       23.820 -11.771   2.432  0.00  0.00    -0.247 F 
ENDBRANCH  25  26
ENDBRANCH  11  25
TORSDOF 5
ENDMDL
MODEL 3
REMARK VINA RESULT:       2.8      3.456      6.964
REMARK  Name = *****
REMARK                            x       y       z     vdW  Elec       q    Type
REMARK                         _______ _______ _______ _____ _____    ______ ____
ROOT
ATOM      1  C   LIG    1       24.132 -17.317   4.022  0.00  0.00    +0.103 C 
ATOM      2  C   LIG    1       25.552 -17.281   3.998  0.00  0.00    +0.171 C 
ATOM      3  F   LIG    1       26.212 -18.451   3.966  0.00  0.00    -0.201 F 
ATOM      4  C   LIG    1       26.321 -16.094   4.052  0.00  0.00    +0.090 C 
ATOM      5  C   LIG    1       25.600 -14.888   4.141  0.00  0.00    +0.052 C 
ATOM      6  C   LIG    1       26.318 -13.596   4.230  0.00  0.00    +0.203 C 
ATOM      7  C   LIG    1       27.789 -13.610   4.209  0.00  0.00    +0.122 C 
ATOM      8  C   LIG    1       28.375 -14.810   4.115  0.00  0.00    +0.105 C 
ATOM      9  O   LIG    1       25.714 -12.530   4.328  0.00  0.00    -0.286 OA
ATOM     10  C   LIG    1       24.208 -14.867   4.157  0.00  0.00    +0.054 C 
ATOM     11  N   LIG    1       27.739 -16.044   4.023  0.00  0.00    -0.341 NA
ATOM     12  C   LIG    1       23.500 -16.059   4.081  0.00  0.00    +0.148 C 
ATOM     13  F   LIG    1       22.163 -15.952   4.036  0.00  0.00    -0.203 F 
ENDROOT
BRANCH   1  18
ATOM     14  C   LIG    1       22.189 -21.572   5.716  0.00  0.00    +0.105 C 
ATOM     15  N   LIG    1       21.914 -21.074   4.372  0.00  0.00    -0.302 NA
ATOM     16  C   LIG    1       21.251 -19.755   4.400  0.00  0.00    +0.103 C 
ATOM     17  C   LIG    1       22.150 -18.553   4.778  0.00  0.00    +0.120 C 
ATOM     18  N   LIG    1       23.377 -18.513   3.943  0.00  0.00    -0.323 NA
ATOM     19  C   LIG    1       24.090 -19.810   3.929  0.00  0.00    +0.120 C 
ATOM     20  C   LIG    1       23.142 -20.973   3.559  0.00  0.00    +0.103 C 
ENDBRANCH   1  18
BRANCH   7  21
ATOM     21  C   LIG    1       28.629 -12.397   4.300  0.00  0.00    +0.342 C 
ATOM     22  O   LIG    1       29.168 -11.880   3.338  0.00  0.00    -0.245 OA
BRANCH  21  23
ATOM     23  O   LIG    1       28.745 -11.893   5.549  0.00  0.00    -0.477 OA
ATOM     24  H   LIG    1       28.367 -12.473   6.254  0.00  0.00    +0.295 HD
ENDBRANCH  21  23
ENDBRANCH   7  21
BRANCH  11  25
ATOM     25  C   LIG    1       28.552 -17.285   4.071  0.00  0.00    +0.155 C 
BRANCH  25  26
ATOM     26  C   LIG    1       28.980 -17.628   5.496  0.00  0.00    +0.235 C 
ATOM     27  F   LIG    1       29.344 -18.940   5.560  0.00  0.00    -0.247 F 
ENDBRANCH  25  26
ENDBRANCH  11  25
TORSDOF 5
ENDMDL
MODEL 4
REMARK VINA RESULT:       3.5      1.509      3.262
REMARK  Name = *****
REMARK                            x       y       z     vdW  Elec       q    Type
REMARK                         _______ _______ _______ _____ _____    ______ ____
ROOT
ATOM      1  C   LIG    1       26.048 -15.876   3.668  0.00  0.00    +0.103 C 
ATOM      2  C   LIG    1       24.668 -15.914   4.005  0.00  0.00    +0.171 C 
ATOM      3  F   LIG    1       24.043 -14.748   4.237  0.00  0.00    -0.201 F 
ATOM      4  C   LIG    1       23.916 -17.104   4.158  0.00  0.00    +0.090 C 
ATOM      5  C   LIG    1       24.614 -18.311   3.962  0.00  0.00    +0.052 C 
ATOM      6  C   LIG    1       23.919 -19.608   4.128  0.00  0.00    +0.203 C 
ATOM      7  C   LIG    1       22.491 -19.596   4.485  0.00  0.00    +0.122 C 
ATOM      8  C   LIG    1       21.923 -18.394   4.640  0.00  0.00    +0.105 C 
ATOM      9  O   LIG    1       24.508 -20.677   3.982  0.00  0.00    -0.286 OA
ATOM     10  C   LIG    1       25.964 -18.330   3.621  0.00  0.00    +0.054 C 
ATOM     11  N   LIG    1       22.538 -17.155   4.489  0.00  0.00    -0.341 NA
ATOM     12  C   LIG    1       26.651 -17.134   3.462  0.00  0.00    +0.148 C 
ATOM     13  F   LIG    1       27.930 -17.233   3.069  0.00  0.00    -0.203 F 
ENDROOT
BRANCH   1  18
ATOM     14  C   LIG    1       28.656 -11.905   5.142  0.00  0.00    +0.105 C 
ATOM     15  N   LIG    1       28.415 -12.195   3.732  0.00  0.00    -0.302 NA
ATOM     16  C   LIG    1       28.985 -13.499   3.335  0.00  0.00    +0.103 C 
ATOM     17  C   LIG    1       28.223 -14.751   3.835  0.00  0.00    +0.120 C 
ATOM     18  N   LIG    1       26.780 -14.677   3.495  0.00  0.00    -0.323 NA
ATOM     19  C   LIG    1       26.168 -13.397   3.920  0.00  0.00    +0.120 C 
ATOM     20  C   LIG    1       26.976 -12.185   3.405  0.00  0.00    +0.103 C 
ENDBRANCH   1  18
BRANCH   7  21
ATOM     21  C   LIG    1       21.680 -20.815   4.690  0.00  0.00    +0.342 C 
ATOM     22  O   LIG    1       20.745 -21.127   3.974  0.00  0.00    -0.245 OA
BRANCH  21  23
ATOM     23  O   LIG    1       22.068 -21.571   5.741  0.00  0.00    -0.477 OA
ATOM     24  H   LIG    1       21.394 -22.233   6.031  0.00  0.00    +0.295 HD
ENDBRANCH  21  23
ENDBRANCH   7  21
BRANCH  11  25
ATOM     25  C   LIG    1       21.787 -15.925   4.842  0.00  0.00    +0.155 C 
BRANCH  25  26
ATOM     26  C   LIG    1       22.053 -15.492   6.282  0.00  0.00    +0.235 C 
ATOM     27  F   LIG    1       20.898 -15.033   6.842  0.00  0.00    -0.247 F 
ENDBRANCH  25  26
ENDBRANCH  11  25
TORSDOF 5
ENDMDL
