MODEL 1
REMARK VINA RESULT:      -9.4      0.000      0.000
REMARK  Name = *****
REMARK                            x       y       z     vdW  Elec       q    Type
REMARK                         _______ _______ _______ _____ _____    ______ ____
ROOT
ATOM      1  C   LIG    1       22.879 -19.891   4.839  0.00  0.00    +0.210 C 
ATOM      2  C   LIG    1       24.012 -20.049   3.860  0.00  0.00    +0.237 C 
ATOM      3  N   LIG    1       25.275 -19.828   4.567  0.00  0.00    -0.273 NA
ATOM      4  C   LIG    1       25.601 -20.622   5.535  0.00  0.00    +0.075 C 
ATOM      5  C   LIG    1       24.810 -21.821   5.951  0.00  0.00    +0.027 A 
ATOM      6  C   LIG    1       23.410 -21.772   6.085  0.00  0.00    +0.077 A 
ATOM      7  C   LIG    1       22.739 -22.930   6.504  0.00  0.00    +0.030 A 
ATOM      8  C   LIG    1       23.428 -24.119   6.753  0.00  0.00    +0.022 A 
ATOM      9  C   LIG    1       24.807 -24.161   6.581  0.00  0.00    +0.042 A 
ATOM     10 CL   LIG    1       25.660 -25.626   6.869  0.00  0.00    -0.084 Cl
ATOM     11  C   LIG    1       25.502 -23.023   6.178  0.00  0.00    +0.032 A 
ATOM     12  N   LIG    1       22.606 -20.642   5.853  0.00  0.00    -0.215 NA
ENDROOT
BRANCH   4  13
ATOM     13  C   LIG    1       26.870 -20.316   6.272  0.00  0.00    +0.001 A 
ATOM     14  C   LIG    1       26.951 -20.447   7.664  0.00  0.00    +0.010 A 
ATOM     15  C   LIG    1       28.145 -20.153   8.324  0.00  0.00    +0.001 A 
ATOM     16  C   LIG    1       29.256 -19.718   7.600  0.00  0.00    +0.000 A 
ATOM     17  C   LIG    1       29.173 -19.568   6.216  0.00  0.00    +0.001 A 
ATOM     18  C   LIG    1       27.981 -19.860   5.552  0.00  0.00    +0.010 A 
ENDBRANCH   4  13
BRANCH   1  19
ATOM     19  O   LIG    1       22.075 -18.842   4.621  0.00  0.00    -0.494 OA
ATOM     20  H   LIG    1       22.583 -18.194   4.106  0.00  0.00    +0.293 HD
ENDBRANCH   1  19
TORSDOF 2
ENDMDL
MODEL 2
REMARK VINA RESULT:      -8.3      2.166      4.760
REMARK  Name = *****
REMARK                            x       y       z     vdW  Elec       q    Type
REMARK                         _______ _______ _______ _____ _____    ______ ____
ROOT
ATOM      1  C   LIG    1       23.296 -20.784   5.661  0.00  0.00    +0.210 C 
ATOM      2  C   LIG    1       23.034 -21.573   6.917  0.00  0.00    +0.237 C 
ATOM      3  N   LIG    1       23.509 -22.943   6.715  0.00  0.00    -0.273 NA
ATOM      4  C   LIG    1       24.765 -23.147   6.488  0.00  0.00    +0.075 C 
ATOM      5  C   LIG    1       25.811 -22.078   6.490  0.00  0.00    +0.027 A 
ATOM      6  C   LIG    1       25.605 -20.842   5.850  0.00  0.00    +0.077 A 
ATOM      7  C   LIG    1       26.642 -19.898   5.872  0.00  0.00    +0.030 A 
ATOM      8  C   LIG    1       27.842 -20.154   6.539  0.00  0.00    +0.022 A 
ATOM      9  C   LIG    1       28.016 -21.366   7.198  0.00  0.00    +0.042 A 
ATOM     10 CL   LIG    1       29.485 -21.680   8.034  0.00  0.00    -0.084 Cl
ATOM     11  C   LIG    1       27.009 -22.327   7.182  0.00  0.00    +0.032 A 
ATOM     12  N   LIG    1       24.440 -20.464   5.158  0.00  0.00    -0.215 NA
ENDROOT
BRANCH   4  13
ATOM     13  C   LIG    1       25.191 -24.559   6.221  0.00  0.00    +0.001 A 
ATOM     14  C   LIG    1       25.681 -25.375   7.248  0.00  0.00    +0.010 A 
ATOM     15  C   LIG    1       26.073 -26.687   6.970  0.00  0.00    +0.001 A 
ATOM     16  C   LIG    1       25.986 -27.181   5.668  0.00  0.00    +0.000 A 
ATOM     17  C   LIG    1       25.517 -26.364   4.639  0.00  0.00    +0.001 A 
ATOM     18  C   LIG    1       25.125 -25.053   4.913  0.00  0.00    +0.010 A 
ENDBRANCH   4  13
BRANCH   1  19
ATOM     19  O   LIG    1       22.203 -20.379   5.000  0.00  0.00    -0.494 OA
ATOM     20  H   LIG    1       21.511 -21.041   5.159  0.00  0.00    +0.293 HD
ENDBRANCH   1  19
TORSDOF 2
ENDMDL
MODEL 3
REMARK VINA RESULT:      -7.8      2.872      5.117
REMARK  Name = *****
REMARK                            x       y       z     vdW  Elec       q    Type
REMARK                         _______ _______ _______ _____ _____    ______ ____
ROOT
ATOM      1  C   LIG    1       24.956 -24.069   6.589  0.00  0.00    +0.210 C 
ATOM      2  C   LIG    1       25.118 -23.890   5.102  0.00  0.00    +0.237 C 
ATOM      3  N   LIG    1       24.440 -22.655   4.704  0.00  0.00    -0.273 NA
ATOM      4  C   LIG    1       24.848 -21.528   5.189  0.00  0.00    +0.075 C 
ATOM      5  C   LIG    1       26.034 -21.372   6.087  0.00  0.00    +0.027 A 
ATOM      6  C   LIG    1       26.263 -22.243   7.167  0.00  0.00    +0.077 A 
ATOM      7  C   LIG    1       27.382 -22.018   7.981  0.00  0.00    +0.030 A 
ATOM      8  C   LIG    1       28.275 -20.978   7.716  0.00  0.00    +0.022 A 
ATOM      9  C   LIG    1       28.055 -20.147   6.622  0.00  0.00    +0.042 A 
ATOM     10 CL   LIG    1       29.160 -18.875   6.280  0.00  0.00    -0.084 Cl
ATOM     11  C   LIG    1       26.945 -20.339   5.804  0.00  0.00    +0.032 A 
ATOM     12  N   LIG    1       25.445 -23.329   7.528  0.00  0.00    -0.215 NA
ENDROOT
BRANCH   4  13
ATOM     13  C   LIG    1       24.081 -20.300   4.803  0.00  0.00    +0.001 A 
ATOM     14  C   LIG    1       24.567 -19.414   3.834  0.00  0.00    +0.010 A 
ATOM     15  C   LIG    1       23.831 -18.277   3.496  0.00  0.00    +0.001 A 
ATOM     16  C   LIG    1       22.617 -18.015   4.131  0.00  0.00    +0.000 A 
ATOM     17  C   LIG    1       22.139 -18.885   5.112  0.00  0.00    +0.001 A 
ATOM     18  C   LIG    1       22.872 -20.022   5.453  0.00  0.00    +0.010 A 
ENDBRANCH   4  13
BRANCH   1  19
ATOM     19  O   LIG    1       24.211 -25.118   6.962  0.00  0.00    -0.494 OA
ATOM     20  H   LIG    1       23.767 -24.874   7.791  0.00  0.00    +0.293 HD
ENDBRANCH   1  19
TORSDOF 2
ENDMDL
MODEL 4
REMARK VINA RESULT:      -7.6      3.013      5.233
REMARK  Name = *****
REMARK                            x       y       z     vdW  Elec       q    Type
REMARK                         _______ _______ _______ _____ _____    ______ ____
ROOT
ATOM      1  C   LIG    1       25.641 -24.018   6.951  0.00  0.00    +0.210 C 
ATOM      2  C   LIG    1       25.594 -23.965   5.446  0.00  0.00    +0.237 C 
ATOM      3  N   LIG    1       24.753 -22.835   5.045  0.00  0.00    -0.273 NA
ATOM      4  C   LIG    1       25.109 -21.637   5.377  0.00  0.00    +0.075 C 
ATOM      5  C   LIG    1       26.379 -21.297   6.090  0.00  0.00    +0.027 A 
ATOM      6  C   LIG    1       26.827 -22.041   7.197  0.00  0.00    +0.077 A 
ATOM      7  C   LIG    1       28.014 -21.646   7.830  0.00  0.00    +0.030 A 
ATOM      8  C   LIG    1       28.761 -20.562   7.362  0.00  0.00    +0.022 A 
ATOM      9  C   LIG    1       28.323 -19.859   6.245  0.00  0.00    +0.042 A 
ATOM     10 CL   LIG    1       29.246 -18.534   5.655  0.00  0.00    -0.084 Cl
ATOM     11  C   LIG    1       27.142 -20.220   5.604  0.00  0.00    +0.032 A 
ATOM     12  N   LIG    1       26.172 -23.155   7.752  0.00  0.00    -0.215 NA
ENDROOT
BRANCH   4  13
ATOM     13  C   LIG    1       24.182 -20.520   5.001  0.00  0.00    +0.001 A 
ATOM     14  C   LIG    1       23.025 -20.256   5.744  0.00  0.00    +0.010 A 
ATOM     15  C   LIG    1       22.179 -19.211   5.370  0.00  0.00    +0.001 A 
ATOM     16  C   LIG    1       22.479 -18.435   4.249  0.00  0.00    +0.000 A 
ATOM     17  C   LIG    1       23.621 -18.708   3.496  0.00  0.00    +0.001 A 
ATOM     18  C   LIG    1       24.469 -19.752   3.867  0.00  0.00    +0.010 A 
ENDBRANCH   4  13
BRANCH   1  19
ATOM     19  O   LIG    1       25.055 -25.087   7.506  0.00  0.00    -0.494 OA
ATOM     20  H   LIG    1       24.399 -24.757   8.140  0.00  0.00    +0.293 HD
ENDBRANCH   1  19
TORSDOF 2
ENDMDL
MODEL 5
REMARK VINA RESULT:      -7.5      6.207      8.197
REMARK  Name = *****
REMARK                            x       y       z     vdW  Elec       q    Type
REMARK                         _______ _______ _______ _____ _____    ______ ____
ROOT
ATOM      1  C   LIG    1       24.066 -30.963   6.296  0.00  0.00    +0.210 C 
ATOM      2  C   LIG    1       25.324 -30.506   5.606  0.00  0.00    +0.237 C 
ATOM      3  N   LIG    1       25.302 -29.045   5.514  0.00  0.00    -0.273 NA
ATOM      4  C   LIG    1       25.285 -28.346   6.602  0.00  0.00    +0.075 C 
ATOM      5  C   LIG    1       25.364 -28.921   7.980  0.00  0.00    +0.027 A 
ATOM      6  C   LIG    1       24.608 -30.047   8.355  0.00  0.00    +0.077 A 
ATOM      7  C   LIG    1       24.715 -30.514   9.673  0.00  0.00    +0.030 A 
ATOM      8  C   LIG    1       25.575 -29.906  10.591  0.00  0.00    +0.022 A 
ATOM      9  C   LIG    1       26.343 -28.817  10.194  0.00  0.00    +0.042 A 
ATOM     10 CL   LIG    1       27.415 -28.074  11.315  0.00  0.00    -0.084 Cl
ATOM     11  C   LIG    1       26.247 -28.323   8.896  0.00  0.00    +0.032 A 
ATOM     12  N   LIG    1       23.720 -30.750   7.521  0.00  0.00    -0.215 NA
ENDROOT
BRANCH   4  13
ATOM     13  C   LIG    1       25.195 -26.857   6.457  0.00  0.00    +0.001 A 
ATOM     14  C   LIG    1       26.339 -26.051   6.515  0.00  0.00    +0.010 A 
ATOM     15  C   LIG    1       26.225 -24.666   6.378  0.00  0.00    +0.001 A 
ATOM     16  C   LIG    1       24.970 -24.083   6.194  0.00  0.00    +0.000 A 
ATOM     17  C   LIG    1       23.827 -24.881   6.155  0.00  0.00    +0.001 A 
ATOM     18  C   LIG    1       23.937 -26.265   6.292  0.00  0.00    +0.010 A 
ENDBRANCH   4  13
BRANCH   1  19
ATOM     19  O   LIG    1       23.218 -31.667   5.534  0.00  0.00    -0.494 OA
ATOM     20  H   LIG    1       22.827 -31.049   4.896  0.00  0.00    +0.293 HD
ENDBRANCH   1  19
TORSDOF 2
ENDMDL
MODEL 6
REMARK VINA RESULT:      -7.1      2.939      4.009
REMARK  Name = *****
REMARK                            x       y       z     vdW  Elec       q    Type
REMARK                         _______ _______ _______ _____ _____    ______ ____
ROOT
ATOM      1  C   LIG    1       24.228 -23.200   6.478  0.00  0.00    +0.210 C 
ATOM      2  C   LIG    1       24.280 -22.193   7.597  0.00  0.00    +0.237 C 
ATOM      3  N   LIG    1       25.667 -21.755   7.766  0.00  0.00    -0.273 NA
ATOM      4  C   LIG    1       26.260 -21.150   6.789  0.00  0.00    +0.075 C 
ATOM      5  C   LIG    1       25.604 -20.787   5.495  0.00  0.00    +0.027 A 
ATOM      6  C   LIG    1       24.776 -21.692   4.806  0.00  0.00    +0.077 A 
ATOM      7  C   LIG    1       24.217 -21.289   3.585  0.00  0.00    +0.030 A 
ATOM      8  C   LIG    1       24.442 -20.009   3.071  0.00  0.00    +0.022 A 
ATOM      9  C   LIG    1       25.233 -19.114   3.782  0.00  0.00    +0.042 A 
ATOM     10 CL   LIG    1       25.500 -17.532   3.163  0.00  0.00    -0.084 Cl
ATOM     11  C   LIG    1       25.812 -19.491   4.990  0.00  0.00    +0.032 A 
ATOM     12  N   LIG    1       24.467 -22.998   5.226  0.00  0.00    -0.215 NA
ENDROOT
BRANCH   4  13
ATOM     13  C   LIG    1       27.699 -20.781   6.986  0.00  0.00    +0.001 A 
ATOM     14  C   LIG    1       28.305 -19.783   6.213  0.00  0.00    +0.010 A 
ATOM     15  C   LIG    1       29.648 -19.461   6.418  0.00  0.00    +0.001 A 
ATOM     16  C   LIG    1       30.390 -20.140   7.385  0.00  0.00    +0.000 A 
ATOM     17  C   LIG    1       29.795 -21.148   8.143  0.00  0.00    +0.001 A 
ATOM     18  C   LIG    1       28.453 -21.473   7.941  0.00  0.00    +0.010 A 
ENDBRANCH   4  13
BRANCH   1  19
ATOM     19  O   LIG    1       23.900 -24.447   6.844  0.00  0.00    -0.494 OA
ATOM     20  H   LIG    1       22.936 -24.526   6.759  0.00  0.00    +0.293 HD
ENDBRANCH   1  19
TORSDOF 2
ENDMDL
