MODEL 1
REMARK VINA RESULT:       3.0      0.000      0.000
REMARK  Name = *****
REMARK                            x       y       z     vdW  Elec       q    Type
REMARK                         _______ _______ _______ _____ _____    ______ ____
ROOT
ATOM      1  C   LIG    1       23.230 -17.365   3.664  0.00  0.00    +0.051 C 
ATOM      2  C   LIG    1       21.883 -18.053   3.493  0.00  0.00    -0.026 A 
ATOM      3  C   LIG    1       21.477 -19.082   4.360  0.00  0.00    +0.017 A 
ATOM      4  C   LIG    1       20.210 -19.661   4.210  0.00  0.00    +0.015 A 
ATOM      5  C   LIG    1       19.352 -19.234   3.197  0.00  0.00    +0.001 A 
ATOM      6  C   LIG    1       19.755 -18.233   2.321  0.00  0.00    +0.000 A 
ATOM      7  S   LIG    1       22.558 -19.710   5.634  0.00  0.00    -0.089 S 
ATOM      8  C   LIG    1       24.148 -19.418   4.872  0.00  0.00    +0.017 A 
ATOM      9  C   LIG    1       25.208 -20.275   5.188  0.00  0.00    +0.015 A 
ATOM     10  C   LIG    1       26.455 -20.108   4.586  0.00  0.00    +0.001 A 
ATOM     11  C   LIG    1       26.649 -19.081   3.664  0.00  0.00    +0.000 A 
ATOM     12  C   LIG    1       25.604 -18.210   3.357  0.00  0.00    +0.005 A 
ATOM     13  C   LIG    1       21.013 -17.649   2.464  0.00  0.00    +0.005 A 
ATOM     14  C   LIG    1       24.344 -18.364   3.960  0.00  0.00    -0.026 A 
ENDROOT
BRANCH   1  15
ATOM     15  C   LIG    1       23.225 -16.270   4.767  0.00  0.00    +0.017 C 
BRANCH  15  19
ATOM     16  C   LIG    1       26.882 -13.660   4.504  0.00  0.00    +0.105 C 
ATOM     17  N   LIG    1       26.166 -14.197   3.349  0.00  0.00    -0.305 NA
ATOM     18  C   LIG    1       25.328 -15.352   3.703  0.00  0.00    +0.087 C 
ATOM     19  C   LIG    1       24.032 -14.990   4.463  0.00  0.00    +0.004 C 
ATOM     20  C   LIG    1       23.235 -13.967   3.644  0.00  0.00    +0.006 C 
ATOM     21  C   LIG    1       24.104 -12.753   3.332  0.00  0.00    +0.016 C 
ATOM     22  C   LIG    1       25.401 -13.167   2.636  0.00  0.00    +0.084 C 
ENDBRANCH  15  19
ENDBRANCH   1  15
TORSDOF 2
ENDMDL
MODEL 2
REMARK VINA RESULT:       3.9      1.450      4.587
REMARK  Name = *****
REMARK                            x       y       z     vdW  Elec       q    Type
REMARK                         _______ _______ _______ _____ _____    ______ ____
ROOT
ATOM      1  C   LIG    1       25.143 -17.971   4.492  0.00  0.00    +0.051 C 
ATOM      2  C   LIG    1       25.840 -19.179   5.099  0.00  0.00    -0.026 A 
ATOM      3  C   LIG    1       25.567 -20.481   4.646  0.00  0.00    +0.017 A 
ATOM      4  C   LIG    1       26.264 -21.569   5.188  0.00  0.00    +0.015 A 
ATOM      5  C   LIG    1       27.217 -21.373   6.187  0.00  0.00    +0.001 A 
ATOM      6  C   LIG    1       27.477 -20.091   6.657  0.00  0.00    +0.000 A 
ATOM      7  S   LIG    1       24.313 -20.796   3.415  0.00  0.00    -0.089 S 
ATOM      8  C   LIG    1       23.194 -19.445   3.750  0.00  0.00    +0.017 A 
ATOM      9  C   LIG    1       21.832 -19.625   3.489  0.00  0.00    +0.015 A 
ATOM     10  C   LIG    1       20.918 -18.610   3.773  0.00  0.00    +0.001 A 
ATOM     11  C   LIG    1       21.362 -17.407   4.319  0.00  0.00    +0.000 A 
ATOM     12  C   LIG    1       22.721 -17.211   4.565  0.00  0.00    +0.005 A 
ATOM     13  C   LIG    1       26.791 -19.001   6.121  0.00  0.00    +0.005 A 
ATOM     14  C   LIG    1       23.653 -18.224   4.280  0.00  0.00    -0.026 A 
ENDROOT
BRANCH   1  15
ATOM     15  C   LIG    1       25.775 -17.506   3.150  0.00  0.00    +0.017 C 
BRANCH  15  19
ATOM     16  C   LIG    1       25.631 -13.118   2.164  0.00  0.00    +0.105 C 
ATOM     17  N   LIG    1       25.530 -13.664   3.515  0.00  0.00    -0.305 NA
ATOM     18  C   LIG    1       25.146 -15.084   3.513  0.00  0.00    +0.087 C 
ATOM     19  C   LIG    1       26.280 -16.049   3.100  0.00  0.00    +0.004 C 
ATOM     20  C   LIG    1       27.498 -15.814   4.003  0.00  0.00    +0.006 C 
ATOM     21  C   LIG    1       27.913 -14.347   3.951  0.00  0.00    +0.016 C 
ATOM     22  C   LIG    1       26.742 -13.429   4.307  0.00  0.00    +0.084 C 
ENDBRANCH  15  19
ENDBRANCH   1  15
TORSDOF 2
ENDMDL
MODEL 3
REMARK VINA RESULT:       4.3      2.440      3.274
REMARK  Name = *****
REMARK                            x       y       z     vdW  Elec       q    Type
REMARK                         _______ _______ _______ _____ _____    ______ ____
ROOT
ATOM      1  C   LIG    1       26.091 -18.546   3.937  0.00  0.00    +0.051 C 
ATOM      2  C   LIG    1       25.059 -19.635   3.679  0.00  0.00    -0.026 A 
ATOM      3  C   LIG    1       24.528 -20.398   4.733  0.00  0.00    +0.017 A 
ATOM      4  C   LIG    1       23.541 -21.357   4.471  0.00  0.00    +0.015 A 
ATOM      5  C   LIG    1       23.089 -21.572   3.169  0.00  0.00    +0.001 A 
ATOM      6  C   LIG    1       23.626 -20.837   2.118  0.00  0.00    +0.000 A 
ATOM      7  S   LIG    1       25.113 -20.209   6.409  0.00  0.00    -0.089 S 
ATOM      8  C   LIG    1       26.798 -19.703   6.101  0.00  0.00    +0.017 A 
ATOM      9  C   LIG    1       27.779 -20.037   7.041  0.00  0.00    +0.015 A 
ATOM     10  C   LIG    1       29.113 -19.696   6.821  0.00  0.00    +0.001 A 
ATOM     11  C   LIG    1       29.475 -19.019   5.658  0.00  0.00    +0.000 A 
ATOM     12  C   LIG    1       28.502 -18.665   4.724  0.00  0.00    +0.005 A 
ATOM     13  C   LIG    1       24.607 -19.878   2.369  0.00  0.00    +0.005 A 
ATOM     14  C   LIG    1       27.153 -18.998   4.935  0.00  0.00    -0.026 A 
ENDROOT
BRANCH   1  15
ATOM     15  C   LIG    1       25.466 -17.211   4.430  0.00  0.00    +0.017 C 
BRANCH  15  19
ATOM     16  C   LIG    1       24.593 -13.555   1.956  0.00  0.00    +0.105 C 
ATOM     17  N   LIG    1       25.135 -13.524   3.312  0.00  0.00    -0.305 NA
ATOM     18  C   LIG    1       24.892 -14.780   4.037  0.00  0.00    +0.087 C 
ATOM     19  C   LIG    1       25.793 -15.955   3.596  0.00  0.00    +0.004 C 
ATOM     20  C   LIG    1       27.264 -15.534   3.711  0.00  0.00    +0.006 C 
ATOM     21  C   LIG    1       27.509 -14.259   2.910  0.00  0.00    +0.016 C 
ATOM     22  C   LIG    1       26.552 -13.145   3.340  0.00  0.00    +0.084 C 
ENDBRANCH  15  19
ENDBRANCH   1  15
TORSDOF 2
ENDMDL
MODEL 4
REMARK VINA RESULT:       5.0      2.439      5.851
REMARK  Name = *****
REMARK                            x       y       z     vdW  Elec       q    Type
REMARK                         _______ _______ _______ _____ _____    ______ ____
ROOT
ATOM      1  C   LIG    1       26.097 -17.517   3.515  0.00  0.00    +0.051 C 
ATOM      2  C   LIG    1       25.771 -16.047   3.296  0.00  0.00    -0.026 A 
ATOM      3  C   LIG    1       24.634 -15.459   3.876  0.00  0.00    +0.017 A 
ATOM      4  C   LIG    1       24.390 -14.091   3.700  0.00  0.00    +0.015 A 
ATOM      5  C   LIG    1       25.258 -13.308   2.939  0.00  0.00    +0.001 A 
ATOM      6  C   LIG    1       26.372 -13.886   2.343  0.00  0.00    +0.000 A 
ATOM      7  S   LIG    1       23.457 -16.425   4.807  0.00  0.00    -0.089 S 
ATOM      8  C   LIG    1       23.639 -18.008   4.000  0.00  0.00    +0.017 A 
ATOM      9  C   LIG    1       22.534 -18.866   3.954  0.00  0.00    +0.015 A 
ATOM     10  C   LIG    1       22.620 -20.094   3.299  0.00  0.00    +0.001 A 
ATOM     11  C   LIG    1       23.813 -20.473   2.687  0.00  0.00    +0.000 A 
ATOM     12  C   LIG    1       24.926 -19.634   2.743  0.00  0.00    +0.005 A 
ATOM     13  C   LIG    1       26.626 -15.247   2.515  0.00  0.00    +0.005 A 
ATOM     14  C   LIG    1       24.854 -18.395   3.404  0.00  0.00    -0.026 A 
ENDROOT
BRANCH   1  15
ATOM     15  C   LIG    1       26.795 -17.796   4.875  0.00  0.00    +0.017 C 
BRANCH  15  19
ATOM     16  C   LIG    1       29.174 -21.413   6.106  0.00  0.00    +0.105 C 
ATOM     17  N   LIG    1       28.171 -20.760   6.943  0.00  0.00    -0.305 NA
ATOM     18  C   LIG    1       27.894 -19.383   6.509  0.00  0.00    +0.087 C 
ATOM     19  C   LIG    1       27.037 -19.279   5.228  0.00  0.00    +0.004 C 
ATOM     20  C   LIG    1       25.732 -20.061   5.428  0.00  0.00    +0.006 C 
ATOM     21  C   LIG    1       26.039 -21.501   5.826  0.00  0.00    +0.016 C 
ATOM     22  C   LIG    1       26.940 -21.551   7.062  0.00  0.00    +0.084 C 
ENDBRANCH  15  19
ENDBRANCH   1  15
TORSDOF 2
ENDMDL
MODEL 5
REMARK VINA RESULT:       5.9      2.118      4.331
REMARK  Name = *****
REMARK                            x       y       z     vdW  Elec       q    Type
REMARK                         _______ _______ _______ _____ _____    ______ ____
ROOT
ATOM      1  C   LIG    1       25.591 -16.222   3.284  0.00  0.00    +0.051 C 
ATOM      2  C   LIG    1       24.940 -14.866   3.049  0.00  0.00    -0.026 A 
ATOM      3  C   LIG    1       23.883 -14.416   3.858  0.00  0.00    +0.017 A 
ATOM      4  C   LIG    1       23.339 -13.142   3.650  0.00  0.00    +0.015 A 
ATOM      5  C   LIG    1       23.828 -12.320   2.635  0.00  0.00    +0.001 A 
ATOM      6  C   LIG    1       24.857 -12.767   1.815  0.00  0.00    +0.000 A 
ATOM      7  S   LIG    1       23.177 -15.450   5.131  0.00  0.00    -0.089 S 
ATOM      8  C   LIG    1       23.467 -17.064   4.424  0.00  0.00    +0.017 A 
ATOM      9  C   LIG    1       22.575 -18.098   4.730  0.00  0.00    +0.015 A 
ATOM     10  C   LIG    1       22.741 -19.363   4.168  0.00  0.00    +0.001 A 
ATOM     11  C   LIG    1       23.802 -19.604   3.297  0.00  0.00    +0.000 A 
ATOM     12  C   LIG    1       24.708 -18.585   3.001  0.00  0.00    +0.005 A 
ATOM     13  C   LIG    1       25.407 -14.033   2.016  0.00  0.00    +0.005 A 
ATOM     14  C   LIG    1       24.555 -17.306   3.564  0.00  0.00    -0.026 A 
ENDROOT
BRANCH   1  15
ATOM     15  C   LIG    1       26.636 -16.210   4.434  0.00  0.00    +0.017 C 
BRANCH  15  19
ATOM     16  C   LIG    1       29.475 -12.798   3.687  0.00  0.00    +0.105 C 
ATOM     17  N   LIG    1       28.022 -12.703   3.573  0.00  0.00    -0.305 NA
ATOM     18  C   LIG    1       27.389 -14.021   3.415  0.00  0.00    +0.087 C 
ATOM     19  C   LIG    1       27.333 -14.861   4.711  0.00  0.00    +0.004 C 
ATOM     20  C   LIG    1       26.635 -14.049   5.809  0.00  0.00    +0.006 C 
ATOM     21  C   LIG    1       27.337 -12.707   5.996  0.00  0.00    +0.016 C 
ATOM     22  C   LIG    1       27.423 -11.941   4.675  0.00  0.00    +0.084 C 
ENDBRANCH  15  19
ENDBRANCH   1  15
TORSDOF 2
ENDMDL
