MODEL 1
REMARK VINA RESULT:      48.1      0.000      0.000
REMARK  Name = *****
REMARK                            x       y       z     vdW  Elec       q    Type
REMARK                         _______ _______ _______ _____ _____    ______ ____
ROOT
ATOM      1  C   LIG    1       27.287 -20.397   4.925  0.00  0.00    +0.134 C 
ATOM      2  C   LIG    1       26.205 -20.206   6.005  0.00  0.00    +0.079 C 
ATOM      3  C   LIG    1       24.929 -19.561   5.431  0.00  0.00    +0.158 C 
ATOM      4  C   LIG    1       25.307 -18.198   4.901  0.00  0.00    +0.030 A 
ATOM      5  C   LIG    1       26.467 -18.063   4.121  0.00  0.00    +0.007 A 
ATOM      6  C   LIG    1       26.675 -16.872   3.418  0.00  0.00    +0.132 A 
ATOM      7  C   LIG    1       25.783 -15.797   3.538  0.00  0.00    +0.078 A 
ATOM      8  C   LIG    1       25.965 -14.595   2.717  0.00  0.00    +0.198 C 
ATOM      9  O   LIG    1       26.943 -14.507   1.983  0.00  0.00    -0.286 OA
ATOM     10  C   LIG    1       24.956 -13.528   2.754  0.00  0.00    +0.037 A 
ATOM     11  C   LIG    1       23.927 -13.545   3.701  0.00  0.00    +0.075 A 
ATOM     12  C   LIG    1       22.997 -12.489   3.715  0.00  0.00    +0.132 A 
ATOM     13  C   LIG    1       23.121 -11.447   2.784  0.00  0.00    +0.046 A 
ATOM     14  C   LIG    1       24.137 -11.458   1.828  0.00  0.00    +0.004 A 
ATOM     15  C   LIG    1       23.834 -14.706   4.627  0.00  0.00    +0.202 C 
ATOM     16  O   LIG    1       23.037 -14.757   5.559  0.00  0.00    -0.286 OA
ATOM     17  C   LIG    1       25.057 -12.497   1.814  0.00  0.00    +0.012 A 
ATOM     18  C   LIG    1       24.717 -15.876   4.426  0.00  0.00    +0.078 A 
ATOM     19  C   LIG    1       24.483 -17.080   5.107  0.00  0.00    +0.135 A 
ATOM     20  C   LIG    1       27.526 -19.145   4.058  0.00  0.00    +0.082 C 
ENDROOT
BRANCH   1  21
ATOM     21  O   LIG    1       26.845 -21.435   4.027  0.00  0.00    -0.381 OA
ATOM     22  H   LIG    1       26.246 -22.023   4.529  0.00  0.00    +0.211 HD
ENDBRANCH   1  21
BRANCH  19  23
ATOM     23  O   LIG    1       23.444 -17.224   5.988  0.00  0.00    -0.506 OA
ATOM     24  H   LIG    1       22.872 -17.970   5.691  0.00  0.00    +0.292 HD
ENDBRANCH  19  23
BRANCH   6  25
ATOM     25  O   LIG    1       27.782 -16.817   2.610  0.00  0.00    -0.506 OA
ATOM     26  H   LIG    1       27.672 -17.464   1.874  0.00  0.00    +0.292 HD
ENDBRANCH   6  25
BRANCH  12  27
ATOM     27  O   LIG    1       22.024 -12.492   4.677  0.00  0.00    -0.494 OA
ATOM     28  C   LIG    1       22.343 -11.850   5.906  0.00  0.00    +0.277 C 
ENDBRANCH  12  27
BRANCH   1  29
ATOM     29  C   LIG    1       28.626 -20.876   5.567  0.00  0.00    +0.202 C 
ATOM     30  O   LIG    1       29.437 -21.571   4.945  0.00  0.00    -0.291 OA
BRANCH  29  31
ATOM     31  C   LIG    1       28.946 -20.421   7.009  0.00  0.00    +0.309 C 
BRANCH  31  32
ATOM     32  O   LIG    1       29.473 -19.091   7.061  0.00  0.00    -0.457 OA
BRANCH  32  33
ATOM     33  C   LIG    1       29.228 -18.351   5.970  0.00  0.00    +0.307 C 
ATOM     34  O   LIG    1       29.470 -18.720   4.808  0.00  0.00    -0.251 OA
BRANCH  33  35
ATOM     35  C   LIG    1       28.716 -16.986   6.324  0.00  0.00    +0.120 C 
BRANCH  35  36
ATOM     36  C   LIG    1       28.074 -16.205   5.167  0.00  0.00    +0.011 C 
BRANCH  36  38
ATOM     37  C   LIG    1       28.972 -13.823   5.425  0.00  0.00    +0.004 C 
ATOM     38  C   LIG    1       27.766 -14.750   5.537  0.00  0.00    -0.003 C 
ENDBRANCH  36  38
ENDBRANCH  35  36
ENDBRANCH  33  35
ENDBRANCH  32  33
ENDBRANCH  31  32
ENDBRANCH  29  31
ENDBRANCH   1  29
BRANCH   3  39
ATOM     39  O   LIG    1       24.432 -20.387   4.354  0.00  0.00    -0.343 OA
BRANCH  39  40
ATOM     40  C   LIG    1       23.005 -20.327   4.149  0.00  0.00    +0.253 C 
ATOM     41  O   LIG    1       22.707 -19.993   2.804  0.00  0.00    -0.346 OA
ATOM     42  C   LIG    1       21.313 -19.848   2.525  0.00  0.00    +0.148 C 
ATOM     43  C   LIG    1       20.524 -21.151   2.702  0.00  0.00    +0.040 C 
ATOM     44  C   LIG    1       20.745 -18.657   3.313  0.00  0.00    +0.163 C 
ATOM     45  C   LIG    1       21.029 -18.797   4.827  0.00  0.00    +0.109 C 
ATOM     46  C   LIG    1       22.468 -19.258   5.106  0.00  0.00    +0.086 C 
BRANCH  45  47
ATOM     47  N   LIG    1       20.804 -17.515   5.530  0.00  0.00    -0.302 N 
ATOM     48  H   LIG    1       20.528 -17.547   6.510  0.00  0.00    +0.149 HD
ATOM     49  C   LIG    1       21.165 -16.269   5.027  0.00  0.00    +0.318 C 
ATOM     50  O   LIG    1       21.710 -16.158   3.929  0.00  0.00    -0.266 OA
BRANCH  49  51
ATOM     51  C   LIG    1       20.864 -15.072   5.966  0.00  0.00    +0.469 C 
ATOM     52  F   LIG    1       19.589 -15.073   6.435  0.00  0.00    -0.162 F 
ATOM     53  F   LIG    1       21.061 -13.874   5.352  0.00  0.00    -0.162 F 
ATOM     54  F   LIG    1       21.681 -15.076   7.061  0.00  0.00    -0.162 F 
ENDBRANCH  49  51
ENDBRANCH  45  47
BRANCH  44  55
ATOM     55  O   LIG    1       19.352 -18.527   3.028  0.00  0.00    -0.387 OA
ATOM     56  H   LIG    1       19.168 -18.961   2.169  0.00  0.00    +0.210 HD
ENDBRANCH  44  55
ENDBRANCH  39  40
ENDBRANCH   3  39
TORSDOF 16
ENDMDL
