MODEL 1
REMARK VINA RESULT:      -3.6      0.000      0.000
REMARK  Name = *****
REMARK                            x       y       z     vdW  Elec       q    Type
REMARK                         _______ _______ _______ _____ _____    ______ ____
ROOT
ATOM      1  C   LIG    1       24.663 -18.899   4.367  0.00  0.00    +0.339 C 
ATOM      2  C   LIG    1       23.273 -19.476   3.977  0.00  0.00    +0.214 C 
ATOM      3  C   LIG    1       23.277 -21.009   4.066  0.00  0.00    +0.180 C 
ATOM      4  C   LIG    1       23.740 -21.456   5.468  0.00  0.00    +0.177 C 
ATOM      5  C   LIG    1       24.970 -20.650   5.936  0.00  0.00    +0.179 C 
ATOM      6  O   LIG    1       25.556 -19.926   4.834  0.00  0.00    -0.331 OA
ENDROOT
BRANCH   2   7
ATOM      7  O   LIG    1       22.273 -18.983   4.898  0.00  0.00    -0.383 OA
ATOM      8  H   LIG    1       22.704 -18.907   5.772  0.00  0.00    +0.210 HD
ENDBRANCH   2   7
BRANCH   3   9
ATOM      9  O   LIG    1       24.101 -21.571   3.042  0.00  0.00    -0.386 OA
ATOM     10  H   LIG    1       23.737 -21.301   2.177  0.00  0.00    +0.210 HD
ENDBRANCH   3   9
BRANCH   4  11
ATOM     11  O   LIG    1       22.690 -21.272   6.427  0.00  0.00    -0.387 OA
ATOM     12  H   LIG    1       22.718 -22.035   7.045  0.00  0.00    +0.210 HD
ENDBRANCH   4  11
BRANCH   1  13
ATOM     13  O   LIG    1       25.230 -18.267   3.209  0.00  0.00    -0.457 OA
BRANCH  13  20
ATOM     14  O   LIG    1       29.017 -11.682   4.030  0.00  0.00    -0.245 OA
ATOM     15  C   LIG    1       28.273 -12.633   3.793  0.00  0.00    +0.337 C 
ATOM     16  O   LIG    1       28.598 -13.936   4.138  0.00  0.00    -0.422 OA
ATOM     17  C   LIG    1       27.714 -15.002   3.874  0.00  0.00    +0.143 A 
ATOM     18  C   LIG    1       26.503 -14.778   3.225  0.00  0.00    +0.021 A 
ATOM     19  C   LIG    1       25.647 -15.855   2.972  0.00  0.00    +0.061 A 
ATOM     20  C   LIG    1       25.983 -17.138   3.411  0.00  0.00    +0.166 A 
ATOM     21  C   LIG    1       27.215 -17.331   4.055  0.00  0.00    +0.162 A 
ATOM     22  C   LIG    1       26.148 -13.423   2.833  0.00  0.00    +0.019 C 
ATOM     23  C   LIG    1       28.091 -16.275   4.286  0.00  0.00    +0.096 A 
ATOM     24  C   LIG    1       26.984 -12.419   3.112  0.00  0.00    +0.092 C 
BRANCH  21  25
ATOM     25  O   LIG    1       27.588 -18.573   4.492  0.00  0.00    -0.503 OA
ATOM     26  H   LIG    1       27.869 -18.463   5.418  0.00  0.00    +0.292 HD
ENDBRANCH  21  25
ENDBRANCH  13  20
ENDBRANCH   1  13
BRANCH   5  27
ATOM     27  C   LIG    1       26.043 -21.572   6.530  0.00  0.00    +0.190 C 
BRANCH  27  28
ATOM     28  O   LIG    1       27.335 -20.978   6.406  0.00  0.00    -0.392 OA
ATOM     29  H   LIG    1       27.715 -20.927   7.303  0.00  0.00    +0.209 HD
ENDBRANCH  27  28
ENDBRANCH   5  27
TORSDOF 8
ENDMDL
MODEL 2
REMARK VINA RESULT:      -2.7      1.298      2.531
REMARK  Name = *****
REMARK                            x       y       z     vdW  Elec       q    Type
REMARK                         _______ _______ _______ _____ _____    ______ ____
ROOT
ATOM      1  C   LIG    1       24.632 -19.481   3.515  0.00  0.00    +0.339 C 
ATOM      2  C   LIG    1       24.279 -20.918   3.992  0.00  0.00    +0.214 C 
ATOM      3  C   LIG    1       23.474 -20.873   5.300  0.00  0.00    +0.180 C 
ATOM      4  C   LIG    1       22.230 -19.978   5.123  0.00  0.00    +0.177 C 
ATOM      5  C   LIG    1       22.581 -18.668   4.386  0.00  0.00    +0.179 C 
ATOM      6  O   LIG    1       24.010 -18.476   4.338  0.00  0.00    -0.331 OA
ENDROOT
BRANCH   2   7
ATOM      7  O   LIG    1       23.463 -21.569   2.993  0.00  0.00    -0.383 OA
ATOM      8  H   LIG    1       23.026 -20.863   2.477  0.00  0.00    +0.210 HD
ENDBRANCH   2   7
BRANCH   3   9
ATOM      9  O   LIG    1       24.293 -20.421   6.381  0.00  0.00    -0.386 OA
ATOM     10  H   LIG    1       23.750 -20.419   7.192  0.00  0.00    +0.210 HD
ENDBRANCH   3   9
BRANCH   4  11
ATOM     11  O   LIG    1       21.220 -20.663   4.371  0.00  0.00    -0.387 OA
ATOM     12  H   LIG    1       21.205 -20.270   3.471  0.00  0.00    +0.210 HD
ENDBRANCH   4  11
BRANCH   1  13
ATOM     13  O   LIG    1       26.058 -19.324   3.570  0.00  0.00    -0.457 OA
BRANCH  13  20
ATOM     14  O   LIG    1       28.364 -12.049   3.923  0.00  0.00    -0.245 OA
ATOM     15  C   LIG    1       27.851 -13.152   3.739  0.00  0.00    +0.337 C 
ATOM     16  O   LIG    1       28.390 -14.319   4.259  0.00  0.00    -0.422 OA
ATOM     17  C   LIG    1       27.766 -15.565   4.049  0.00  0.00    +0.143 A 
ATOM     18  C   LIG    1       26.607 -15.662   3.283  0.00  0.00    +0.021 A 
ATOM     19  C   LIG    1       26.012 -16.912   3.088  0.00  0.00    +0.061 A 
ATOM     20  C   LIG    1       26.548 -18.049   3.700  0.00  0.00    +0.166 A 
ATOM     21  C   LIG    1       27.721 -17.919   4.458  0.00  0.00    +0.162 A 
ATOM     22  C   LIG    1       26.034 -14.455   2.709  0.00  0.00    +0.019 C 
ATOM     23  C   LIG    1       28.342 -16.686   4.635  0.00  0.00    +0.096 A 
ATOM     24  C   LIG    1       26.622 -13.277   2.936  0.00  0.00    +0.092 C 
BRANCH  21  25
ATOM     25  O   LIG    1       28.285 -19.007   5.065  0.00  0.00    -0.503 OA
ATOM     26  H   LIG    1       27.909 -19.044   5.964  0.00  0.00    +0.292 HD
ENDBRANCH  21  25
ENDBRANCH  13  20
ENDBRANCH   1  13
BRANCH   5  27
ATOM     27  C   LIG    1       21.956 -17.455   5.085  0.00  0.00    +0.190 C 
BRANCH  27  28
ATOM     28  O   LIG    1       22.513 -16.243   4.574  0.00  0.00    -0.392 OA
ATOM     29  H   LIG    1       22.372 -16.248   3.609  0.00  0.00    +0.209 HD
ENDBRANCH  27  28
ENDBRANCH   5  27
TORSDOF 8
ENDMDL
MODEL 3
REMARK VINA RESULT:      -1.5      2.301      7.753
REMARK  Name = *****
REMARK                            x       y       z     vdW  Elec       q    Type
REMARK                         _______ _______ _______ _____ _____    ______ ____
ROOT
ATOM      1  C   LIG    1       26.290 -14.837   4.051  0.00  0.00    +0.339 C 
ATOM      2  C   LIG    1       27.700 -14.448   3.524  0.00  0.00    +0.214 C 
ATOM      3  C   LIG    1       27.801 -12.929   3.316  0.00  0.00    +0.180 C 
ATOM      4  C   LIG    1       27.423 -12.192   4.617  0.00  0.00    +0.177 C 
ATOM      5  C   LIG    1       26.160 -12.802   5.262  0.00  0.00    +0.179 C 
ATOM      6  O   LIG    1       25.486 -13.678   4.334  0.00  0.00    -0.331 OA
ENDROOT
BRANCH   2   7
ATOM      7  O   LIG    1       28.699 -14.827   4.496  0.00  0.00    -0.383 OA
ATOM      8  H   LIG    1       28.354 -14.571   5.374  0.00  0.00    +0.210 HD
ENDBRANCH   2   7
BRANCH   3   9
ATOM      9  O   LIG    1       26.978 -12.514   2.224  0.00  0.00    -0.386 OA
ATOM     10  H   LIG    1       26.332 -13.223   2.044  0.00  0.00    +0.210 HD
ENDBRANCH   3   9
BRANCH   4  11
ATOM     11  O   LIG    1       28.495 -12.266   5.567  0.00  0.00    -0.387 OA
ATOM     12  H   LIG    1       28.382 -11.522   6.198  0.00  0.00    +0.210 HD
ENDBRANCH   4  11
BRANCH   1  13
ATOM     13  O   LIG    1       25.638 -15.635   3.051  0.00  0.00    -0.457 OA
BRANCH  13  20
ATOM     14  O   LIG    1       21.370 -21.571   5.266  0.00  0.00    -0.245 OA
ATOM     15  C   LIG    1       22.187 -20.755   4.842  0.00  0.00    +0.337 C 
ATOM     16  O   LIG    1       21.942 -19.390   4.840  0.00  0.00    -0.422 OA
ATOM     17  C   LIG    1       22.908 -18.479   4.369  0.00  0.00    +0.143 A 
ATOM     18  C   LIG    1       24.123 -18.929   3.857  0.00  0.00    +0.021 A 
ATOM     19  C   LIG    1       25.060 -18.001   3.391  0.00  0.00    +0.061 A 
ATOM     20  C   LIG    1       24.801 -16.631   3.485  0.00  0.00    +0.166 A 
ATOM     21  C   LIG    1       23.564 -16.211   3.998  0.00  0.00    +0.162 A 
ATOM     22  C   LIG    1       24.394 -20.357   3.827  0.00  0.00    +0.019 C 
ATOM     23  C   LIG    1       22.609 -17.123   4.436  0.00  0.00    +0.096 A 
ATOM     24  C   LIG    1       23.480 -21.208   4.301  0.00  0.00    +0.092 C 
BRANCH  21  25
ATOM     25  O   LIG    1       23.265 -14.880   4.098  0.00  0.00    -0.503 OA
ATOM     26  H   LIG    1       23.921 -14.499   4.710  0.00  0.00    +0.292 HD
ENDBRANCH  21  25
ENDBRANCH  13  20
ENDBRANCH   1  13
BRANCH   5  27
ATOM     27  C   LIG    1       25.175 -11.710   5.694  0.00  0.00    +0.190 C 
BRANCH  27  28
ATOM     28  O   LIG    1       23.887 -11.944   5.124  0.00  0.00    -0.392 OA
ATOM     29  H   LIG    1       23.258 -12.033   5.864  0.00  0.00    +0.209 HD
ENDBRANCH  27  28
ENDBRANCH   5  27
TORSDOF 8
ENDMDL
MODEL 4
REMARK VINA RESULT:      -1.5      2.038      7.349
REMARK  Name = *****
REMARK                            x       y       z     vdW  Elec       q    Type
REMARK                         _______ _______ _______ _____ _____    ______ ____
ROOT
ATOM      1  C   LIG    1       26.485 -15.827   4.186  0.00  0.00    +0.339 C 
ATOM      2  C   LIG    1       27.869 -15.153   3.966  0.00  0.00    +0.214 C 
ATOM      3  C   LIG    1       27.711 -13.824   3.211  0.00  0.00    +0.180 C 
ATOM      4  C   LIG    1       26.711 -12.912   3.952  0.00  0.00    +0.177 C 
ATOM      5  C   LIG    1       25.462 -13.699   4.403  0.00  0.00    +0.179 C 
ATOM      6  O   LIG    1       25.403 -14.984   3.749  0.00  0.00    -0.331 OA
ENDROOT
BRANCH   2   7
ATOM      7  O   LIG    1       28.472 -14.864   5.247  0.00  0.00    -0.383 OA
ATOM      8  H   LIG    1       29.417 -15.103   5.178  0.00  0.00    +0.210 HD
ENDBRANCH   2   7
BRANCH   3   9
ATOM      9  O   LIG    1       27.303 -14.056   1.861  0.00  0.00    -0.386 OA
ATOM     10  H   LIG    1       27.289 -13.198   1.396  0.00  0.00    +0.210 HD
ENDBRANCH   3   9
BRANCH   4  11
ATOM     11  O   LIG    1       27.322 -12.332   5.112  0.00  0.00    -0.387 OA
ATOM     12  H   LIG    1       27.936 -11.631   4.803  0.00  0.00    +0.210 HD
ENDBRANCH   4  11
BRANCH   1  13
ATOM     13  O   LIG    1       26.458 -17.056   3.445  0.00  0.00    -0.457 OA
BRANCH  13  20
ATOM     14  O   LIG    1       20.458 -21.572   4.852  0.00  0.00    -0.245 OA
ATOM     15  C   LIG    1       21.287 -20.706   4.572  0.00  0.00    +0.337 C 
ATOM     16  O   LIG    1       22.645 -20.874   4.799  0.00  0.00    -0.422 OA
ATOM     17  C   LIG    1       23.571 -19.873   4.446  0.00  0.00    +0.143 A 
ATOM     18  C   LIG    1       23.143 -18.670   3.890  0.00  0.00    +0.021 A 
ATOM     19  C   LIG    1       24.085 -17.693   3.553  0.00  0.00    +0.061 A 
ATOM     20  C   LIG    1       25.450 -17.942   3.727  0.00  0.00    +0.166 A 
ATOM     21  C   LIG    1       25.847 -19.160   4.298  0.00  0.00    +0.162 A 
ATOM     22  C   LIG    1       21.723 -18.461   3.661  0.00  0.00    +0.019 C 
ATOM     23  C   LIG    1       24.919 -20.130   4.667  0.00  0.00    +0.096 A 
ATOM     24  C   LIG    1       20.858 -19.428   3.977  0.00  0.00    +0.092 C 
BRANCH  21  25
ATOM     25  O   LIG    1       27.171 -19.440   4.496  0.00  0.00    -0.503 OA
ATOM     26  H   LIG    1       27.369 -20.222   3.949  0.00  0.00    +0.292 HD
ENDBRANCH  21  25
ENDBRANCH  13  20
ENDBRANCH   1  13
BRANCH   5  27
ATOM     27  C   LIG    1       24.175 -12.933   4.072  0.00  0.00    +0.190 C 
BRANCH  27  28
ATOM     28  O   LIG    1       23.787 -13.170   2.719  0.00  0.00    -0.392 OA
ATOM     29  H   LIG    1       22.871 -12.849   2.623  0.00  0.00    +0.209 HD
ENDBRANCH  27  28
ENDBRANCH   5  27
TORSDOF 8
ENDMDL
MODEL 5
REMARK VINA RESULT:      -0.7      1.724      7.090
REMARK  Name = *****
REMARK                            x       y       z     vdW  Elec       q    Type
REMARK                         _______ _______ _______ _____ _____    ______ ____
ROOT
ATOM      1  C   LIG    1       26.854 -15.612   3.249  0.00  0.00    +0.339 C 
ATOM      2  C   LIG    1       25.568 -15.203   4.021  0.00  0.00    +0.214 C 
ATOM      3  C   LIG    1       25.841 -13.991   4.926  0.00  0.00    +0.180 C 
ATOM      4  C   LIG    1       26.435 -12.835   4.095  0.00  0.00    +0.177 C 
ATOM      5  C   LIG    1       27.528 -13.341   3.129  0.00  0.00    +0.179 C 
ATOM      6  O   LIG    1       27.931 -14.684   3.472  0.00  0.00    -0.331 OA
ENDROOT
BRANCH   2   7
ATOM      7  O   LIG    1       24.540 -14.826   3.078  0.00  0.00    -0.383 OA
ATOM      8  H   LIG    1       24.406 -13.862   3.172  0.00  0.00    +0.210 HD
ENDBRANCH   2   7
BRANCH   3   9
ATOM      9  O   LIG    1       26.704 -14.354   6.006  0.00  0.00    -0.386 OA
ATOM     10  H   LIG    1       26.935 -15.297   5.908  0.00  0.00    +0.210 HD
ENDBRANCH   3   9
BRANCH   4  11
ATOM     11  O   LIG    1       25.412 -12.193   3.323  0.00  0.00    -0.387 OA
ATOM     12  H   LIG    1       25.502 -12.506   2.396  0.00  0.00    +0.210 HD
ENDBRANCH   4  11
BRANCH   1  13
ATOM     13  O   LIG    1       27.252 -16.917   3.694  0.00  0.00    -0.457 OA
BRANCH  13  20
ATOM     14  O   LIG    1       21.327 -21.572   4.963  0.00  0.00    -0.245 OA
ATOM     15  C   LIG    1       22.142 -20.690   4.695  0.00  0.00    +0.337 C 
ATOM     16  O   LIG    1       23.493 -20.811   4.987  0.00  0.00    -0.422 OA
ATOM     17  C   LIG    1       24.405 -19.792   4.646  0.00  0.00    +0.143 A 
ATOM     18  C   LIG    1       23.968 -18.618   4.038  0.00  0.00    +0.021 A 
ATOM     19  C   LIG    1       24.895 -17.623   3.715  0.00  0.00    +0.061 A 
ATOM     20  C   LIG    1       26.257 -17.825   3.956  0.00  0.00    +0.166 A 
ATOM     21  C   LIG    1       26.663 -19.015   4.579  0.00  0.00    +0.162 A 
ATOM     22  C   LIG    1       22.553 -18.458   3.740  0.00  0.00    +0.019 C 
ATOM     23  C   LIG    1       25.749 -20.002   4.934  0.00  0.00    +0.096 A 
ATOM     24  C   LIG    1       21.703 -19.442   4.046  0.00  0.00    +0.092 C 
BRANCH  21  25
ATOM     25  O   LIG    1       27.985 -19.249   4.843  0.00  0.00    -0.503 OA
ATOM     26  H   LIG    1       28.365 -18.394   5.114  0.00  0.00    +0.292 HD
ENDBRANCH  21  25
ENDBRANCH  13  20
ENDBRANCH   1  13
BRANCH   5  27
ATOM     27  C   LIG    1       28.768 -12.441   3.174  0.00  0.00    +0.190 C 
BRANCH  27  28
ATOM     28  O   LIG    1       29.137 -12.167   4.526  0.00  0.00    -0.392 OA
ATOM     29  H   LIG    1       28.797 -11.279   4.742  0.00  0.00    +0.209 HD
ENDBRANCH  27  28
ENDBRANCH   5  27
TORSDOF 8
ENDMDL
