MODEL 1
REMARK VINA RESULT:      -4.8      0.000      0.000
REMARK  Name = *****
REMARK                            x       y       z     vdW  Elec       q    Type
REMARK                         _______ _______ _______ _____ _____    ______ ____
ROOT
ATOM      1  C   LIG    1       25.680 -31.387  11.919  0.00  0.00    +0.221 C 
ATOM      2  C   LIG    1       26.232 -31.427  10.389  0.00  0.00    +0.168 C 
ATOM      3  C   LIG    1       26.642 -32.828  10.034  0.00  0.00    +0.062 C 
ATOM      4  C   LIG    1       25.487 -30.854   9.080  0.00  0.00    +0.136 C 
ATOM      5  N   LIG    1       26.093 -29.330   9.137  0.00  0.00    -0.260 N 
ATOM      6  C   LIG    1       27.199 -29.230  10.031  0.00  0.00    +0.404 C 
ATOM      7  O   LIG    1       27.786 -28.309  10.357  0.00  0.00    -0.226 OA
ATOM      8  C   LIG    1       23.825 -31.459   8.745  0.00  0.00    +0.077 C 
ATOM      9  C   LIG    1       23.683 -31.457   7.246  0.00  0.00    +0.017 C 
ATOM     10  C   LIG    1       23.285 -32.796   9.404  0.00  0.00    +0.141 C 
ATOM     11  O   LIG    1       23.996 -33.807   9.307  0.00  0.00    -0.297 OA
ATOM     12  C   LIG    1       21.694 -32.998   9.946  0.00  0.00    +0.055 C 
ATOM     13  C   LIG    1       21.018 -33.820   8.812  0.00  0.00    +0.015 C 
ATOM     14  C   LIG    1       20.901 -31.781  10.824  0.00  0.00    +0.048 C 
ATOM     15  C   LIG    1       19.454 -31.560  11.661  0.00  0.00    +0.094 C 
ATOM     16  C   LIG    1       18.143 -31.019  10.964  0.00  0.00    +0.044 C 
ATOM     17  C   LIG    1       19.684 -30.271  12.685  0.00  0.00    +0.163 C 
ATOM     18  C   LIG    1       20.107 -30.629  14.128  0.00  0.00    +0.085 C 
ATOM     19  C   LIG    1       18.756 -30.910  14.986  0.00  0.00    +0.018 C 
ATOM     20  C   LIG    1       21.077 -31.860  14.487  0.00  0.00    +0.152 C 
ATOM     21  O   LIG    1       20.704 -32.509  15.500  0.00  0.00    -0.296 OA
ATOM     22  C   LIG    1       22.497 -32.387  13.927  0.00  0.00    +0.161 C 
ATOM     23  C   LIG    1       22.526 -33.824  13.522  0.00  0.00    +0.027 C 
ATOM     24  C   LIG    1       23.830 -31.730  13.473  0.00  0.00    +0.318 C 
ATOM     25  O   LIG    1       24.462 -30.960  14.188  0.00  0.00    -0.250 OA
ATOM     26  O   LIG    1       27.442 -30.554  10.416  0.00  0.00    -0.438 OA
ATOM     27  O   LIG    1       24.378 -32.056  12.231  0.00  0.00    -0.457 OA
ENDROOT
BRANCH   1  29
ATOM     28  C   LIG    1       27.378 -30.320  13.413  0.00  0.00    +0.007 C 
ATOM     29  C   LIG    1       26.748 -31.610  13.015  0.00  0.00    +0.045 C 
ENDBRANCH   1  29
BRANCH  15  30
ATOM     30  O   LIG    1       19.073 -32.674  12.498  0.00  0.00    -0.374 OA
ATOM     31  C   LIG    1       17.993 -33.499  12.095  0.00  0.00    +0.195 C 
ENDBRANCH  15  30
BRANCH   5  32
ATOM     32  C   LIG    1       25.645 -27.988   8.548  0.00  0.00    +0.112 C 
BRANCH  32  33
ATOM     33  C   LIG    1       25.055 -28.193   7.175  0.00  0.00    +0.021 C 
BRANCH  33  34
ATOM     34  C   LIG    1       24.863 -26.884   6.416  0.00  0.00    +0.023 C 
BRANCH  34  35
ATOM     35  C   LIG    1       25.989 -25.873   6.648  0.00  0.00    +0.123 C 
BRANCH  35  36
ATOM     36  N   LIG    1       25.589 -24.475   6.697  0.00  0.00    -0.336 N 
ATOM     37  C   LIG    1       24.913 -23.779   5.735  0.00  0.00    +0.115 A 
ATOM     38  C   LIG    1       24.809 -22.473   6.170  0.00  0.00    +0.090 A 
ATOM     39  N   LIG    1       25.448 -22.361   7.390  0.00  0.00    -0.236 NA
ATOM     40  C   LIG    1       25.921 -23.567   7.667  0.00  0.00    +0.200 A 
BRANCH  38  41
ATOM     41  C   LIG    1       24.198 -21.401   5.372  0.00  0.00    +0.020 A 
ATOM     42  C   LIG    1       24.988 -20.542   4.597  0.00  0.00    +0.120 A 
ATOM     43  N   LIG    1       24.543 -19.505   3.835  0.00  0.00    -0.263 NA
ATOM     44  C   LIG    1       23.244 -19.197   3.958  0.00  0.00    +0.111 A 
ATOM     45  C   LIG    1       22.387 -19.900   4.788  0.00  0.00    +0.020 A 
ATOM     46  C   LIG    1       22.843 -21.074   5.418  0.00  0.00    +0.013 A 
ENDBRANCH  38  41
ENDBRANCH  35  36
ENDBRANCH  34  35
ENDBRANCH  33  34
ENDBRANCH  32  33
ENDBRANCH   5  32
BRANCH  17  47
ATOM     47  O   LIG    1       19.948 -28.969  12.096  0.00  0.00    -0.342 OA
BRANCH  47  48
ATOM     48  C   LIG    1       20.522 -27.770  12.581  0.00  0.00    +0.281 C 
ATOM     49  C   LIG    1       19.591 -26.585  12.983  0.00  0.00    +0.187 C 
ATOM     50  C   LIG    1       19.113 -26.591  14.485  0.00  0.00    +0.092 C 
ATOM     51  C   LIG    1       20.334 -26.929  15.243  0.00  0.00    +0.053 C 
ATOM     52  C   LIG    1       21.563 -26.883  14.389  0.00  0.00    +0.120 C 
ATOM     53  C   LIG    1       22.575 -27.422  15.205  0.00  0.00    +0.038 C 
ATOM     54  O   LIG    1       21.533 -27.974  13.498  0.00  0.00    -0.346 OA
BRANCH  50  55
ATOM     55  N   LIG    1       17.780 -27.166  14.640  0.00  0.00    -0.303 NA
ATOM     56  C   LIG    1       17.163 -28.218  15.416  0.00  0.00    +0.105 C 
ATOM     57  C   LIG    1       16.842 -26.084  14.489  0.00  0.00    +0.105 C 
ENDBRANCH  50  55
BRANCH  49  58
ATOM     58  O   LIG    1       20.269 -25.307  12.800  0.00  0.00    -0.385 OA
ATOM     59  H   LIG    1       21.224 -25.492  12.847  0.00  0.00    +0.210 HD
ENDBRANCH  49  58
ENDBRANCH  47  48
ENDBRANCH  17  47
TORSDOF 12
ENDMDL
MODEL 2
REMARK VINA RESULT:      -1.9      1.558      2.060
REMARK  Name = *****
REMARK                            x       y       z     vdW  Elec       q    Type
REMARK                         _______ _______ _______ _____ _____    ______ ____
ROOT
ATOM      1  C   LIG    1       25.776 -31.154  11.324  0.00  0.00    +0.221 C 
ATOM      2  C   LIG    1       26.160 -31.126   9.743  0.00  0.00    +0.168 C 
ATOM      3  C   LIG    1       26.617 -32.490   9.309  0.00  0.00    +0.062 C 
ATOM      4  C   LIG    1       25.242 -30.577   8.537  0.00  0.00    +0.136 C 
ATOM      5  N   LIG    1       25.752 -29.018   8.571  0.00  0.00    -0.260 N 
ATOM      6  C   LIG    1       26.941 -28.863   9.343  0.00  0.00    +0.404 C 
ATOM      7  O   LIG    1       27.501 -27.912   9.629  0.00  0.00    -0.226 OA
ATOM      8  C   LIG    1       23.595 -31.283   8.367  0.00  0.00    +0.077 C 
ATOM      9  C   LIG    1       23.291 -31.260   6.893  0.00  0.00    +0.017 C 
ATOM     10  C   LIG    1       23.216 -32.666   9.043  0.00  0.00    +0.141 C 
ATOM     11  O   LIG    1       23.974 -33.626   8.843  0.00  0.00    -0.297 OA
ATOM     12  C   LIG    1       21.709 -32.984   9.748  0.00  0.00    +0.055 C 
ATOM     13  C   LIG    1       20.967 -33.825   8.671  0.00  0.00    +0.015 C 
ATOM     14  C   LIG    1       20.942 -31.839  10.738  0.00  0.00    +0.048 C 
ATOM     15  C   LIG    1       19.583 -31.731  11.732  0.00  0.00    +0.094 C 
ATOM     16  C   LIG    1       18.172 -31.264  11.194  0.00  0.00    +0.044 C 
ATOM     17  C   LIG    1       19.841 -30.451  12.760  0.00  0.00    +0.163 C 
ATOM     18  C   LIG    1       20.441 -30.810  14.138  0.00  0.00    +0.085 C 
ATOM     19  C   LIG    1       19.212 -31.196  15.128  0.00  0.00    +0.018 C 
ATOM     20  C   LIG    1       21.519 -31.980  14.358  0.00  0.00    +0.152 C 
ATOM     21  O   LIG    1       21.302 -32.673  15.387  0.00  0.00    -0.296 OA
ATOM     22  C   LIG    1       22.901 -32.402  13.635  0.00  0.00    +0.161 C 
ATOM     23  C   LIG    1       22.977 -33.825  13.189  0.00  0.00    +0.027 C 
ATOM     24  C   LIG    1       24.132 -31.648  13.057  0.00  0.00    +0.318 C 
ATOM     25  O   LIG    1       24.788 -30.853  13.722  0.00  0.00    -0.250 OA
ATOM     26  O   LIG    1       27.308 -30.176   9.664  0.00  0.00    -0.438 OA
ATOM     27  O   LIG    1       24.561 -31.913  11.756  0.00  0.00    -0.457 OA
ENDROOT
BRANCH   1  29
ATOM     28  C   LIG    1       27.493 -30.004  12.732  0.00  0.00    +0.007 C 
ATOM     29  C   LIG    1       26.969 -31.327  12.292  0.00  0.00    +0.045 C 
ENDBRANCH   1  29
BRANCH  15  30
ATOM     30  O   LIG    1       19.367 -32.885  12.574  0.00  0.00    -0.374 OA
ATOM     31  C   LIG    1       18.353 -33.811  12.224  0.00  0.00    +0.195 C 
ENDBRANCH  15  30
BRANCH   5  32
ATOM     32  C   LIG    1       25.159 -27.697   8.070  0.00  0.00    +0.112 C 
BRANCH  32  33
ATOM     33  C   LIG    1       25.587 -27.440   6.646  0.00  0.00    +0.021 C 
BRANCH  33  34
ATOM     34  C   LIG    1       26.040 -26.001   6.419  0.00  0.00    +0.023 C 
BRANCH  34  35
ATOM     35  C   LIG    1       25.005 -24.960   6.851  0.00  0.00    +0.123 C 
BRANCH  35  36
ATOM     36  N   LIG    1       25.398 -23.568   6.692  0.00  0.00    -0.336 N 
ATOM     37  C   LIG    1       26.637 -23.034   6.910  0.00  0.00    +0.115 A 
ATOM     38  C   LIG    1       26.539 -21.673   6.705  0.00  0.00    +0.090 A 
ATOM     39  N   LIG    1       25.229 -21.366   6.389  0.00  0.00    -0.236 NA
ATOM     40  C   LIG    1       24.569 -22.515   6.412  0.00  0.00    +0.200 A 
BRANCH  38  41
ATOM     41  C   LIG    1       27.657 -20.741   6.908  0.00  0.00    +0.020 A 
ATOM     42  C   LIG    1       27.997 -20.295   8.192  0.00  0.00    +0.120 A 
ATOM     43  N   LIG    1       28.994 -19.422   8.504  0.00  0.00    -0.263 NA
ATOM     44  C   LIG    1       29.607 -18.831   7.468  0.00  0.00    +0.111 A 
ATOM     45  C   LIG    1       29.272 -19.101   6.152  0.00  0.00    +0.020 A 
ATOM     46  C   LIG    1       28.365 -20.139   5.868  0.00  0.00    +0.013 A 
ENDBRANCH  38  41
ENDBRANCH  35  36
ENDBRANCH  34  35
ENDBRANCH  33  34
ENDBRANCH  32  33
ENDBRANCH   5  32
BRANCH  17  47
ATOM     47  O   LIG    1       19.956 -29.123  12.182  0.00  0.00    -0.342 OA
BRANCH  47  48
ATOM     48  C   LIG    1       20.419 -27.877  12.668  0.00  0.00    +0.281 C 
ATOM     49  C   LIG    1       19.385 -26.759  13.010  0.00  0.00    +0.187 C 
ATOM     50  C   LIG    1       18.847 -26.779  14.491  0.00  0.00    +0.092 C 
ATOM     51  C   LIG    1       20.058 -27.013  15.304  0.00  0.00    +0.053 C 
ATOM     52  C   LIG    1       21.314 -26.887  14.500  0.00  0.00    +0.120 C 
ATOM     53  C   LIG    1       22.329 -27.337  15.366  0.00  0.00    +0.038 C 
ATOM     54  O   LIG    1       21.402 -27.991  13.628  0.00  0.00    -0.346 OA
BRANCH  50  55
ATOM     55  N   LIG    1       17.556 -27.450  14.603  0.00  0.00    -0.303 NA
ATOM     56  C   LIG    1       17.031 -28.645  15.226  0.00  0.00    +0.105 C 
ATOM     57  C   LIG    1       16.555 -26.416  14.657  0.00  0.00    +0.105 C 
ENDBRANCH  50  55
BRANCH  49  58
ATOM     58  O   LIG    1       19.974 -25.437  12.831  0.00  0.00    -0.385 OA
ATOM     59  H   LIG    1       20.940 -25.563  12.826  0.00  0.00    +0.210 HD
ENDBRANCH  49  58
ENDBRANCH  47  48
ENDBRANCH  17  47
TORSDOF 12
ENDMDL
