MODEL 1
REMARK VINA RESULT:      -8.9      0.000      0.000
REMARK  Name = *****
REMARK                            x       y       z     vdW  Elec       q    Type
REMARK                         _______ _______ _______ _____ _____    ______ ____
ROOT
ATOM      1  C   LIG    1       24.827 -21.595   7.573  0.00  0.00    +0.095 C 
ENDROOT
BRANCH   1   2
ATOM      2  C   LIG    1       24.623 -20.549   6.383  0.00  0.00    +0.025 C 
ATOM      3  C   LIG    1       25.271 -20.919   5.020  0.00  0.00    +0.006 C 
ATOM      4  C   LIG    1       24.400 -21.720   4.054  0.00  0.00    +0.000 C 
ATOM      5  C   LIG    1       23.020 -21.108   3.868  0.00  0.00    +0.000 C 
ATOM      6  C   LIG    1       22.329 -20.840   5.197  0.00  0.00    +0.000 C 
ATOM      7  C   LIG    1       23.193 -20.013   6.148  0.00  0.00    +0.006 C 
ENDBRANCH   1   2
BRANCH   1   8
ATOM      8  C   LIG    1       24.804 -23.028   7.007  0.00  0.00    -0.016 A 
ATOM      9  C   LIG    1       26.008 -23.740   6.796  0.00  0.00    +0.006 A 
ATOM     10  C   LIG    1       25.999 -25.065   6.356  0.00  0.00    +0.000 A 
ATOM     11  C   LIG    1       24.803 -25.721   6.112  0.00  0.00    +0.000 A 
ATOM     12  C   LIG    1       23.600 -25.042   6.306  0.00  0.00    +0.000 A 
ATOM     13  C   LIG    1       23.607 -23.717   6.752  0.00  0.00    +0.006 A 
ENDBRANCH   1   8
BRANCH   1  14
ATOM     14  O   LIG    1       23.673 -21.445   8.425  0.00  0.00    -0.384 OA
ATOM     15  H   LIG    1       23.402 -22.337   8.712  0.00  0.00    +0.211 HD
ENDBRANCH   1  14
BRANCH   1  16
ATOM     16  C   LIG    1       26.052 -21.278   8.478  0.00  0.00    +0.055 C 
BRANCH  16  17
ATOM     17  C   LIG    1       27.105 -20.255   7.953  0.00  0.00    +0.087 C 
BRANCH  17  18
ATOM     18  N   LIG    1       28.165 -20.891   7.131  0.00  0.00    -0.302 NA
ATOM     19  C   LIG    1       28.586 -20.108   5.961  0.00  0.00    +0.084 C 
ATOM     20  C   LIG    1       29.436 -18.892   6.322  0.00  0.00    +0.015 C 
ATOM     21  C   LIG    1       30.716 -19.344   7.009  0.00  0.00    +0.002 C 
ATOM     22  C   LIG    1       30.398 -20.235   8.208  0.00  0.00    +0.015 C 
ATOM     23  C   LIG    1       29.352 -21.319   7.900  0.00  0.00    +0.084 C 
ENDBRANCH  17  18
ENDBRANCH  16  17
ENDBRANCH   1  16
TORSDOF 6
ENDMDL
MODEL 2
REMARK VINA RESULT:      -8.9      2.391      5.936
REMARK  Name = *****
REMARK                            x       y       z     vdW  Elec       q    Type
REMARK                         _______ _______ _______ _____ _____    ______ ____
ROOT
ATOM      1  C   LIG    1       24.176 -23.098   6.091  0.00  0.00    +0.095 C 
ENDROOT
BRANCH   1   2
ATOM      2  C   LIG    1       24.997 -22.897   7.447  0.00  0.00    +0.025 C 
ATOM      3  C   LIG    1       26.540 -23.044   7.349  0.00  0.00    +0.006 C 
ATOM      4  C   LIG    1       27.321 -21.766   7.048  0.00  0.00    +0.000 C 
ATOM      5  C   LIG    1       26.928 -20.613   7.958  0.00  0.00    +0.000 C 
ATOM      6  C   LIG    1       25.423 -20.390   7.980  0.00  0.00    +0.000 C 
ATOM      7  C   LIG    1       24.647 -21.664   8.311  0.00  0.00    +0.006 C 
ENDBRANCH   1   2
BRANCH   1   8
ATOM      8  C   LIG    1       23.922 -21.726   5.438  0.00  0.00    -0.016 A 
ATOM      9  C   LIG    1       24.860 -21.172   4.535  0.00  0.00    +0.006 A 
ATOM     10  C   LIG    1       24.609 -19.967   3.877  0.00  0.00    +0.000 A 
ATOM     11  C   LIG    1       23.426 -19.278   4.092  0.00  0.00    +0.000 A 
ATOM     12  C   LIG    1       22.484 -19.797   4.981  0.00  0.00    +0.000 A 
ATOM     13  C   LIG    1       22.733 -21.006   5.636  0.00  0.00    +0.006 A 
ENDBRANCH   1   8
BRANCH   1  14
ATOM     14  O   LIG    1       22.898 -23.636   6.487  0.00  0.00    -0.384 OA
ATOM     15  H   LIG    1       22.426 -23.898   5.674  0.00  0.00    +0.211 HD
ENDBRANCH   1  14
BRANCH   1  16
ATOM     16  C   LIG    1       24.796 -24.162   5.140  0.00  0.00    +0.055 C 
BRANCH  16  17
ATOM     17  C   LIG    1       24.233 -25.615   5.203  0.00  0.00    +0.087 C 
BRANCH  17  18
ATOM     18  N   LIG    1       25.289 -26.647   5.052  0.00  0.00    -0.302 NA
ATOM     19  C   LIG    1       26.404 -26.529   6.002  0.00  0.00    +0.084 C 
ATOM     20  C   LIG    1       26.033 -26.951   7.422  0.00  0.00    +0.015 C 
ATOM     21  C   LIG    1       25.624 -28.417   7.433  0.00  0.00    +0.002 C 
ATOM     22  C   LIG    1       24.513 -28.674   6.418  0.00  0.00    +0.015 C 
ATOM     23  C   LIG    1       24.783 -28.035   5.045  0.00  0.00    +0.084 C 
ENDBRANCH  17  18
ENDBRANCH  16  17
ENDBRANCH   1  16
TORSDOF 6
ENDMDL
MODEL 3
REMARK VINA RESULT:      -8.7      1.302      1.979
REMARK  Name = *****
REMARK                            x       y       z     vdW  Elec       q    Type
REMARK                         _______ _______ _______ _____ _____    ______ ____
ROOT
ATOM      1  C   LIG    1       24.800 -21.517   5.908  0.00  0.00    +0.095 C 
ENDROOT
BRANCH   1   2
ATOM      2  C   LIG    1       23.770 -21.203   4.728  0.00  0.00    +0.025 C 
ATOM      3  C   LIG    1       22.394 -20.618   5.149  0.00  0.00    +0.006 C 
ATOM      4  C   LIG    1       22.301 -19.095   5.220  0.00  0.00    +0.000 C 
ATOM      5  C   LIG    1       22.835 -18.418   3.966  0.00  0.00    +0.000 C 
ATOM      6  C   LIG    1       24.230 -18.906   3.603  0.00  0.00    +0.000 C 
ATOM      7  C   LIG    1       24.310 -20.428   3.504  0.00  0.00    +0.006 C 
ENDBRANCH   1   2
BRANCH   1   8
ATOM      8  C   LIG    1       25.036 -23.037   5.991  0.00  0.00    -0.016 A 
ATOM      9  C   LIG    1       24.804 -23.866   4.869  0.00  0.00    +0.006 A 
ATOM     10  C   LIG    1       25.087 -25.233   4.907  0.00  0.00    +0.000 A 
ATOM     11  C   LIG    1       25.605 -25.816   6.052  0.00  0.00    +0.000 A 
ATOM     12  C   LIG    1       25.840 -25.024   7.176  0.00  0.00    +0.000 A 
ATOM     13  C   LIG    1       25.562 -23.655   7.138  0.00  0.00    +0.006 A 
ENDBRANCH   1   8
BRANCH   1  14
ATOM     14  O   LIG    1       24.134 -21.112   7.122  0.00  0.00    -0.384 OA
ATOM     15  H   LIG    1       23.191 -20.979   6.909  0.00  0.00    +0.211 HD
ENDBRANCH   1  14
BRANCH   1  16
ATOM     16  C   LIG    1       26.099 -20.663   5.845  0.00  0.00    +0.055 C 
BRANCH  16  17
ATOM     17  C   LIG    1       26.986 -20.585   7.124  0.00  0.00    +0.087 C 
BRANCH  17  18
ATOM     18  N   LIG    1       28.413 -20.893   6.855  0.00  0.00    -0.302 NA
ATOM     19  C   LIG    1       28.983 -20.193   5.695  0.00  0.00    +0.084 C 
ATOM     20  C   LIG    1       29.232 -18.708   5.949  0.00  0.00    +0.015 C 
ATOM     21  C   LIG    1       30.239 -18.541   7.078  0.00  0.00    +0.002 C 
ATOM     22  C   LIG    1       29.782 -19.297   8.323  0.00  0.00    +0.015 C 
ATOM     23  C   LIG    1       29.300 -20.727   8.024  0.00  0.00    +0.084 C 
ENDBRANCH  17  18
ENDBRANCH  16  17
ENDBRANCH   1  16
TORSDOF 6
ENDMDL
MODEL 4
REMARK VINA RESULT:      -8.1      1.269      3.670
REMARK  Name = *****
REMARK                            x       y       z     vdW  Elec       q    Type
REMARK                         _______ _______ _______ _____ _____    ______ ____
ROOT
ATOM      1  C   LIG    1       25.683 -21.255   6.742  0.00  0.00    +0.095 C 
ENDROOT
BRANCH   1   2
ATOM      2  C   LIG    1       25.000 -22.443   7.562  0.00  0.00    +0.025 C 
ATOM      3  C   LIG    1       23.499 -22.713   7.266  0.00  0.00    +0.006 C 
ATOM      4  C   LIG    1       23.202 -23.720   6.157  0.00  0.00    +0.000 C 
ATOM      5  C   LIG    1       23.980 -25.017   6.320  0.00  0.00    +0.000 C 
ATOM      6  C   LIG    1       25.470 -24.769   6.505  0.00  0.00    +0.000 C 
ATOM      7  C   LIG    1       25.764 -23.785   7.635  0.00  0.00    +0.006 C 
ENDBRANCH   1   2
BRANCH   1   8
ATOM      8  C   LIG    1       24.649 -20.632   5.784  0.00  0.00    -0.016 A 
ATOM      9  C   LIG    1       23.415 -20.143   6.272  0.00  0.00    +0.006 A 
ATOM     10  C   LIG    1       22.501 -19.508   5.429  0.00  0.00    +0.000 A 
ATOM     11  C   LIG    1       22.782 -19.340   4.083  0.00  0.00    +0.000 A 
ATOM     12  C   LIG    1       23.989 -19.816   3.571  0.00  0.00    +0.000 A 
ATOM     13  C   LIG    1       24.906 -20.448   4.415  0.00  0.00    +0.006 A 
ENDBRANCH   1   8
BRANCH   1  14
ATOM     14  O   LIG    1       26.705 -21.876   5.936  0.00  0.00    -0.384 OA
ATOM     15  H   LIG    1       26.401 -22.779   5.722  0.00  0.00    +0.211 HD
ENDBRANCH   1  14
BRANCH   1  16
ATOM     16  C   LIG    1       26.432 -20.228   7.639  0.00  0.00    +0.055 C 
BRANCH  16  17
ATOM     17  C   LIG    1       27.740 -20.694   8.349  0.00  0.00    +0.087 C 
BRANCH  17  18
ATOM     18  N   LIG    1       28.871 -20.878   7.407  0.00  0.00    -0.302 NA
ATOM     19  C   LIG    1       29.160 -19.713   6.559  0.00  0.00    +0.084 C 
ATOM     20  C   LIG    1       29.827 -18.566   7.316  0.00  0.00    +0.015 C 
ATOM     21  C   LIG    1       31.168 -19.026   7.870  0.00  0.00    +0.002 C 
ATOM     22  C   LIG    1       30.998 -20.288   8.713  0.00  0.00    +0.015 C 
ATOM     23  C   LIG    1       30.117 -21.355   8.041  0.00  0.00    +0.084 C 
ENDBRANCH  17  18
ENDBRANCH  16  17
ENDBRANCH   1  16
TORSDOF 6
ENDMDL
MODEL 5
REMARK VINA RESULT:      -8.1      1.942      5.502
REMARK  Name = *****
REMARK                            x       y       z     vdW  Elec       q    Type
REMARK                         _______ _______ _______ _____ _____    ______ ____
ROOT
ATOM      1  C   LIG    1       25.595 -21.914   6.518  0.00  0.00    +0.095 C 
ENDROOT
BRANCH   1   2
ATOM      2  C   LIG    1       24.238 -21.123   6.813  0.00  0.00    +0.025 C 
ATOM      3  C   LIG    1       23.813 -20.064   5.759  0.00  0.00    +0.006 C 
ATOM      4  C   LIG    1       22.915 -20.562   4.628  0.00  0.00    +0.000 C 
ATOM      5  C   LIG    1       21.720 -21.355   5.135  0.00  0.00    +0.000 C 
ATOM      6  C   LIG    1       22.135 -22.466   6.088  0.00  0.00    +0.000 C 
ATOM      7  C   LIG    1       23.008 -21.959   7.235  0.00  0.00    +0.006 C 
ENDBRANCH   1   2
BRANCH   1   8
ATOM      8  C   LIG    1       26.789 -20.948   6.641  0.00  0.00    -0.016 A 
ATOM      9  C   LIG    1       27.505 -20.837   7.856  0.00  0.00    +0.006 A 
ATOM     10  C   LIG    1       28.635 -20.024   7.960  0.00  0.00    +0.000 A 
ATOM     11  C   LIG    1       29.087 -19.300   6.869  0.00  0.00    +0.000 A 
ATOM     12  C   LIG    1       28.398 -19.385   5.658  0.00  0.00    +0.000 A 
ATOM     13  C   LIG    1       27.270 -20.203   5.552  0.00  0.00    +0.006 A 
ENDBRANCH   1   8
BRANCH   1  14
ATOM     14  O   LIG    1       25.510 -22.329   5.139  0.00  0.00    -0.384 OA
ATOM     15  H   LIG    1       25.722 -23.281   5.106  0.00  0.00    +0.211 HD
ENDBRANCH   1  14
BRANCH   1  16
ATOM     16  C   LIG    1       25.740 -23.229   7.337  0.00  0.00    +0.055 C 
BRANCH  16  17
ATOM     17  C   LIG    1       26.086 -24.538   6.564  0.00  0.00    +0.087 C 
BRANCH  17  18
ATOM     18  N   LIG    1       24.966 -25.021   5.719  0.00  0.00    -0.302 NA
ATOM     19  C   LIG    1       25.376 -25.633   4.447  0.00  0.00    +0.084 C 
ATOM     20  C   LIG    1       25.997 -27.018   4.617  0.00  0.00    +0.015 C 
ATOM     21  C   LIG    1       24.979 -27.967   5.232  0.00  0.00    +0.002 C 
ATOM     22  C   LIG    1       24.424 -27.392   6.533  0.00  0.00    +0.015 C 
ATOM     23  C   LIG    1       24.019 -25.912   6.421  0.00  0.00    +0.084 C 
ENDBRANCH  17  18
ENDBRANCH  16  17
ENDBRANCH   1  16
TORSDOF 6
ENDMDL
MODEL 6
REMARK VINA RESULT:      -8.0      2.103      4.727
REMARK  Name = *****
REMARK                            x       y       z     vdW  Elec       q    Type
REMARK                         _______ _______ _______ _____ _____    ______ ____
ROOT
ATOM      1  C   LIG    1       25.035 -23.525   6.591  0.00  0.00    +0.095 C 
ENDROOT
BRANCH   1   2
ATOM      2  C   LIG    1       26.113 -23.043   7.668  0.00  0.00    +0.025 C 
ATOM      3  C   LIG    1       27.450 -22.488   7.105  0.00  0.00    +0.006 C 
ATOM      4  C   LIG    1       27.498 -20.985   6.838  0.00  0.00    +0.000 C 
ATOM      5  C   LIG    1       27.010 -20.165   8.023  0.00  0.00    +0.000 C 
ATOM      6  C   LIG    1       25.648 -20.632   8.518  0.00  0.00    +0.000 C 
ATOM      7  C   LIG    1       25.614 -22.131   8.811  0.00  0.00    +0.006 C 
ENDBRANCH   1   2
BRANCH   1   8
ATOM      8  C   LIG    1       25.031 -25.063   6.523  0.00  0.00    -0.016 A 
ATOM      9  C   LIG    1       24.117 -25.747   5.687  0.00  0.00    +0.006 A 
ATOM     10  C   LIG    1       24.152 -27.137   5.557  0.00  0.00    +0.000 A 
ATOM     11  C   LIG    1       25.089 -27.887   6.248  0.00  0.00    +0.000 A 
ATOM     12  C   LIG    1       26.001 -27.241   7.085  0.00  0.00    +0.000 A 
ATOM     13  C   LIG    1       25.969 -25.850   7.212  0.00  0.00    +0.006 A 
ENDBRANCH   1   8
BRANCH   1  14
ATOM     14  O   LIG    1       25.508 -23.033   5.321  0.00  0.00    -0.384 OA
ATOM     15  H   LIG    1       25.662 -22.074   5.417  0.00  0.00    +0.211 HD
ENDBRANCH   1  14
BRANCH   1  16
ATOM     16  C   LIG    1       23.631 -22.883   6.786  0.00  0.00    +0.055 C 
BRANCH  16  17
ATOM     17  C   LIG    1       23.125 -21.885   5.700  0.00  0.00    +0.087 C 
BRANCH  17  18
ATOM     18  N   LIG    1       23.677 -20.518   5.873  0.00  0.00    -0.302 NA
ATOM     19  C   LIG    1       24.769 -20.176   4.950  0.00  0.00    +0.084 C 
ATOM     20  C   LIG    1       24.293 -19.928   3.520  0.00  0.00    +0.015 C 
ATOM     21  C   LIG    1       23.334 -18.747   3.494  0.00  0.00    +0.002 C 
ATOM     22  C   LIG    1       22.190 -18.961   4.481  0.00  0.00    +0.015 C 
ATOM     23  C   LIG    1       22.660 -19.447   5.862  0.00  0.00    +0.084 C 
ENDBRANCH  17  18
ENDBRANCH  16  17
ENDBRANCH   1  16
TORSDOF 6
ENDMDL
MODEL 7
REMARK VINA RESULT:      -7.8      1.549      5.732
REMARK  Name = *****
REMARK                            x       y       z     vdW  Elec       q    Type
REMARK                         _______ _______ _______ _____ _____    ______ ____
ROOT
ATOM      1  C   LIG    1       25.804 -21.592   7.334  0.00  0.00    +0.095 C 
ENDROOT
BRANCH   1   2
ATOM      2  C   LIG    1       26.784 -20.348   7.545  0.00  0.00    +0.025 C 
ATOM      3  C   LIG    1       27.952 -20.552   8.548  0.00  0.00    +0.006 C 
ATOM      4  C   LIG    1       29.258 -21.087   7.963  0.00  0.00    +0.000 C 
ATOM      5  C   LIG    1       29.707 -20.313   6.733  0.00  0.00    +0.000 C 
ATOM      6  C   LIG    1       28.601 -20.199   5.694  0.00  0.00    +0.000 C 
ATOM      7  C   LIG    1       27.307 -19.635   6.278  0.00  0.00    +0.006 C 
ENDBRANCH   1   2
BRANCH   1   8
ATOM      8  C   LIG    1       24.722 -21.223   6.302  0.00  0.00    -0.016 A 
ATOM      9  C   LIG    1       23.542 -20.552   6.700  0.00  0.00    +0.006 A 
ATOM     10  C   LIG    1       22.589 -20.143   5.766  0.00  0.00    +0.000 A 
ATOM     11  C   LIG    1       22.775 -20.387   4.414  0.00  0.00    +0.000 A 
ATOM     12  C   LIG    1       23.926 -21.052   3.991  0.00  0.00    +0.000 A 
ATOM     13  C   LIG    1       24.884 -21.456   4.926  0.00  0.00    +0.006 A 
ENDBRANCH   1   8
BRANCH   1  14
ATOM     14  O   LIG    1       25.147 -21.789   8.603  0.00  0.00    -0.384 OA
ATOM     15  H   LIG    1       24.993 -20.907   8.993  0.00  0.00    +0.211 HD
ENDBRANCH   1  14
BRANCH   1  16
ATOM     16  C   LIG    1       26.547 -22.927   7.042  0.00  0.00    +0.055 C 
BRANCH  16  17
ATOM     17  C   LIG    1       25.708 -24.242   7.020  0.00  0.00    +0.087 C 
BRANCH  17  18
ATOM     18  N   LIG    1       26.090 -25.149   5.910  0.00  0.00    -0.302 NA
ATOM     19  C   LIG    1       26.656 -26.437   6.336  0.00  0.00    +0.084 C 
ATOM     20  C   LIG    1       25.613 -27.393   6.912  0.00  0.00    +0.015 C 
ATOM     21  C   LIG    1       24.574 -27.721   5.850  0.00  0.00    +0.002 C 
ATOM     22  C   LIG    1       23.968 -26.442   5.276  0.00  0.00    +0.015 C 
ATOM     23  C   LIG    1       25.019 -25.378   4.918  0.00  0.00    +0.084 C 
ENDBRANCH  17  18
ENDBRANCH  16  17
ENDBRANCH   1  16
TORSDOF 6
ENDMDL
MODEL 8
REMARK VINA RESULT:      -7.4      2.214      5.670
REMARK  Name = *****
REMARK                            x       y       z     vdW  Elec       q    Type
REMARK                         _______ _______ _______ _____ _____    ______ ____
ROOT
ATOM      1  C   LIG    1       24.934 -22.605   6.324  0.00  0.00    +0.095 C 
ENDROOT
BRANCH   1   2
ATOM      2  C   LIG    1       23.571 -21.911   6.787  0.00  0.00    +0.025 C 
ATOM      3  C   LIG    1       23.557 -20.358   6.804  0.00  0.00    +0.006 C 
ATOM      4  C   LIG    1       23.108 -19.674   5.514  0.00  0.00    +0.000 C 
ATOM      5  C   LIG    1       21.800 -20.237   4.979  0.00  0.00    +0.000 C 
ATOM      6  C   LIG    1       21.839 -21.754   4.856  0.00  0.00    +0.000 C 
ATOM      7  C   LIG    1       22.260 -22.435   6.158  0.00  0.00    +0.006 C 
ENDBRANCH   1   2
BRANCH   1   8
ATOM      8  C   LIG    1       26.111 -21.644   6.581  0.00  0.00    -0.016 A 
ATOM      9  C   LIG    1       26.859 -21.723   7.778  0.00  0.00    +0.006 A 
ATOM     10  C   LIG    1       27.975 -20.911   7.992  0.00  0.00    +0.000 A 
ATOM     11  C   LIG    1       28.381 -20.001   7.029  0.00  0.00    +0.000 A 
ATOM     12  C   LIG    1       27.659 -19.897   5.839  0.00  0.00    +0.000 A 
ATOM     13  C   LIG    1       26.545 -20.713   5.623  0.00  0.00    +0.006 A 
ENDBRANCH   1   8
BRANCH   1  14
ATOM     14  O   LIG    1       24.816 -22.778   4.897  0.00  0.00    -0.384 OA
ATOM     15  H   LIG    1       25.355 -23.554   4.651  0.00  0.00    +0.211 HD
ENDBRANCH   1  14
BRANCH   1  16
ATOM     16  C   LIG    1       25.131 -24.036   6.899  0.00  0.00    +0.055 C 
BRANCH  16  17
ATOM     17  C   LIG    1       24.310 -25.200   6.265  0.00  0.00    +0.087 C 
BRANCH  17  18
ATOM     18  N   LIG    1       25.168 -26.233   5.634  0.00  0.00    -0.302 NA
ATOM     19  C   LIG    1       26.347 -26.617   6.423  0.00  0.00    +0.084 C 
ATOM     20  C   LIG    1       26.005 -27.479   7.636  0.00  0.00    +0.015 C 
ATOM     21  C   LIG    1       25.362 -28.780   7.179  0.00  0.00    +0.002 C 
ATOM     22  C   LIG    1       24.159 -28.500   6.281  0.00  0.00    +0.015 C 
ATOM     23  C   LIG    1       24.440 -27.443   5.199  0.00  0.00    +0.084 C 
ENDBRANCH  17  18
ENDBRANCH  16  17
ENDBRANCH   1  16
TORSDOF 6
ENDMDL
MODEL 9
REMARK VINA RESULT:      -7.1      1.415      2.114
REMARK  Name = *****
REMARK                            x       y       z     vdW  Elec       q    Type
REMARK                         _______ _______ _______ _____ _____    ______ ____
ROOT
ATOM      1  C   LIG    1       25.455 -22.377   7.124  0.00  0.00    +0.095 C 
ENDROOT
BRANCH   1   2
ATOM      2  C   LIG    1       23.967 -21.872   7.411  0.00  0.00    +0.025 C 
ATOM      3  C   LIG    1       23.668 -20.383   7.088  0.00  0.00    +0.006 C 
ATOM      4  C   LIG    1       23.167 -20.087   5.676  0.00  0.00    +0.000 C 
ATOM      5  C   LIG    1       22.013 -20.989   5.264  0.00  0.00    +0.000 C 
ATOM      6  C   LIG    1       22.335 -22.461   5.476  0.00  0.00    +0.000 C 
ATOM      7  C   LIG    1       22.807 -22.757   6.899  0.00  0.00    +0.006 C 
ENDBRANCH   1   2
BRANCH   1   8
ATOM      8  C   LIG    1       25.411 -23.808   6.555  0.00  0.00    -0.016 A 
ATOM      9  C   LIG    1       25.112 -24.033   5.191  0.00  0.00    +0.006 A 
ATOM     10  C   LIG    1       25.143 -25.317   4.644  0.00  0.00    +0.000 A 
ATOM     11  C   LIG    1       25.470 -26.412   5.429  0.00  0.00    +0.000 A 
ATOM     12  C   LIG    1       25.764 -26.221   6.780  0.00  0.00    +0.000 A 
ATOM     13  C   LIG    1       25.738 -24.935   7.327  0.00  0.00    +0.006 A 
ENDBRANCH   1   8
BRANCH   1  14
ATOM     14  O   LIG    1       26.099 -22.440   8.413  0.00  0.00    -0.384 OA
ATOM     15  H   LIG    1       26.080 -21.542   8.795  0.00  0.00    +0.211 HD
ENDBRANCH   1  14
BRANCH   1  16
ATOM     16  C   LIG    1       26.302 -21.375   6.288  0.00  0.00    +0.055 C 
BRANCH  16  17
ATOM     17  C   LIG    1       27.807 -21.202   6.657  0.00  0.00    +0.087 C 
BRANCH  17  18
ATOM     18  N   LIG    1       28.146 -19.813   7.055  0.00  0.00    -0.302 NA
ATOM     19  C   LIG    1       28.905 -19.702   8.309  0.00  0.00    +0.084 C 
ATOM     20  C   LIG    1       30.362 -20.140   8.172  0.00  0.00    +0.015 C 
ATOM     21  C   LIG    1       31.076 -19.249   7.167  0.00  0.00    +0.002 C 
ATOM     22  C   LIG    1       30.325 -19.228   5.837  0.00  0.00    +0.015 C 
ATOM     23  C   LIG    1       28.809 -19.024   5.997  0.00  0.00    +0.084 C 
ENDBRANCH  17  18
ENDBRANCH  16  17
ENDBRANCH   1  16
TORSDOF 6
ENDMDL
