MODEL 1
REMARK VINA RESULT:      -7.8      0.000      0.000
REMARK  Name = *****
REMARK                            x       y       z     vdW  Elec       q    Type
REMARK                         _______ _______ _______ _____ _____    ______ ____
ROOT
ATOM      1  N   LIG    1       28.889 -19.583   7.380  0.00  0.00    -0.225 N 
ATOM      2  C   LIG    1       27.920 -20.536   7.566  0.00  0.00    +0.248 C 
ATOM      3  O   LIG    1       27.609 -21.048   8.634  0.00  0.00    -0.273 OA
ATOM      4  C   LIG    1       27.304 -20.867   6.202  0.00  0.00    +0.191 C 
ATOM      5  N   LIG    1       28.049 -19.970   5.359  0.00  0.00    -0.284 N 
ATOM      6  H   LIG    1       27.909 -19.838   4.367  0.00  0.00    +0.151 HD
ATOM      7  C   LIG    1       28.948 -19.213   6.071  0.00  0.00    +0.309 C 
ATOM      8  O   LIG    1       29.652 -18.352   5.574  0.00  0.00    -0.252 OA
ENDROOT
BRANCH   4   9
ATOM      9  C   LIG    1       25.812 -20.655   6.133  0.00  0.00    -0.018 A 
ATOM     10  C   LIG    1       24.977 -20.850   7.245  0.00  0.00    +0.006 A 
ATOM     11  C   LIG    1       23.598 -20.653   7.146  0.00  0.00    +0.000 A 
ATOM     12  C   LIG    1       23.033 -20.267   5.933  0.00  0.00    +0.000 A 
ATOM     13  C   LIG    1       23.845 -20.083   4.816  0.00  0.00    +0.000 A 
ATOM     14  C   LIG    1       25.225 -20.280   4.914  0.00  0.00    +0.006 A 
ENDBRANCH   4   9
BRANCH   1  16
ATOM     15  C   LIG    1       31.024 -19.682   8.597  0.00  0.00    +0.025 C 
ATOM     16  C   LIG    1       29.680 -18.990   8.437  0.00  0.00    +0.114 C 
ENDBRANCH   1  16
TORSDOF 2
ENDMDL
MODEL 2
REMARK VINA RESULT:      -7.8      3.741      5.197
REMARK  Name = *****
REMARK                            x       y       z     vdW  Elec       q    Type
REMARK                         _______ _______ _______ _____ _____    ______ ____
ROOT
ATOM      1  N   LIG    1       24.927 -23.731   6.737  0.00  0.00    -0.225 N 
ATOM      2  C   LIG    1       25.326 -22.419   6.733  0.00  0.00    +0.248 C 
ATOM      3  O   LIG    1       26.482 -22.017   6.680  0.00  0.00    -0.273 OA
ATOM      4  C   LIG    1       24.076 -21.537   6.827  0.00  0.00    +0.191 C 
ATOM      5  N   LIG    1       23.050 -22.545   6.851  0.00  0.00    -0.284 N 
ATOM      6  H   LIG    1       22.054 -22.375   6.859  0.00  0.00    +0.151 HD
ATOM      7  C   LIG    1       23.569 -23.815   6.771  0.00  0.00    +0.309 C 
ATOM      8  O   LIG    1       22.886 -24.824   6.725  0.00  0.00    -0.252 OA
ENDROOT
BRANCH   4   9
ATOM      9  C   LIG    1       23.928 -20.557   5.689  0.00  0.00    -0.018 A 
ATOM     10  C   LIG    1       24.965 -20.310   4.775  0.00  0.00    +0.006 A 
ATOM     11  C   LIG    1       24.798 -19.391   3.737  0.00  0.00    +0.000 A 
ATOM     12  C   LIG    1       23.597 -18.699   3.603  0.00  0.00    +0.000 A 
ATOM     13  C   LIG    1       22.563 -18.921   4.510  0.00  0.00    +0.000 A 
ATOM     14  C   LIG    1       22.728 -19.841   5.549  0.00  0.00    +0.006 A 
ENDBRANCH   4   9
BRANCH   1  16
ATOM     15  C   LIG    1       25.663 -25.592   5.307  0.00  0.00    +0.025 C 
ATOM     16  C   LIG    1       25.819 -24.867   6.634  0.00  0.00    +0.114 C 
ENDBRANCH   1  16
TORSDOF 2
ENDMDL
MODEL 3
REMARK VINA RESULT:      -7.7      2.325      3.195
REMARK  Name = *****
REMARK                            x       y       z     vdW  Elec       q    Type
REMARK                         _______ _______ _______ _____ _____    ______ ____
ROOT
ATOM      1  N   LIG    1       27.917 -20.442   6.606  0.00  0.00    -0.225 N 
ATOM      2  C   LIG    1       26.589 -20.471   6.266  0.00  0.00    +0.248 C 
ATOM      3  O   LIG    1       26.109 -20.095   5.204  0.00  0.00    -0.273 OA
ATOM      4  C   LIG    1       25.802 -21.037   7.453  0.00  0.00    +0.191 C 
ATOM      5  N   LIG    1       26.876 -21.296   8.375  0.00  0.00    -0.284 N 
ATOM      6  H   LIG    1       26.784 -21.729   9.283  0.00  0.00    +0.151 HD
ATOM      7  C   LIG    1       28.102 -20.967   7.849  0.00  0.00    +0.309 C 
ATOM      8  O   LIG    1       29.158 -21.145   8.430  0.00  0.00    -0.252 OA
ENDROOT
BRANCH   4   9
ATOM      9  C   LIG    1       24.986 -22.262   7.123  0.00  0.00    -0.018 A 
ATOM     10  C   LIG    1       23.582 -22.243   7.104  0.00  0.00    +0.006 A 
ATOM     11  C   LIG    1       22.856 -23.397   6.801  0.00  0.00    +0.000 A 
ATOM     12  C   LIG    1       23.522 -24.588   6.523  0.00  0.00    +0.000 A 
ATOM     13  C   LIG    1       24.914 -24.628   6.553  0.00  0.00    +0.000 A 
ATOM     14  C   LIG    1       25.642 -23.475   6.854  0.00  0.00    +0.006 A 
ENDBRANCH   4   9
BRANCH   1  16
ATOM     15  C   LIG    1       29.467 -18.602   6.095  0.00  0.00    +0.025 C 
ATOM     16  C   LIG    1       28.985 -19.998   5.735  0.00  0.00    +0.114 C 
ENDBRANCH   1  16
TORSDOF 2
ENDMDL
MODEL 4
REMARK VINA RESULT:      -7.7      0.086      1.248
REMARK  Name = *****
REMARK                            x       y       z     vdW  Elec       q    Type
REMARK                         _______ _______ _______ _____ _____    ______ ____
ROOT
ATOM      1  N   LIG    1       28.850 -19.502   7.367  0.00  0.00    -0.225 N 
ATOM      2  C   LIG    1       27.881 -20.449   7.578  0.00  0.00    +0.248 C 
ATOM      3  O   LIG    1       27.551 -20.913   8.662  0.00  0.00    -0.273 OA
ATOM      4  C   LIG    1       27.293 -20.845   6.219  0.00  0.00    +0.191 C 
ATOM      5  N   LIG    1       28.051 -19.985   5.350  0.00  0.00    -0.284 N 
ATOM      6  H   LIG    1       27.930 -19.900   4.350  0.00  0.00    +0.151 HD
ATOM      7  C   LIG    1       28.934 -19.193   6.044  0.00  0.00    +0.309 C 
ATOM      8  O   LIG    1       29.645 -18.353   5.521  0.00  0.00    -0.252 OA
ENDROOT
BRANCH   4   9
ATOM      9  C   LIG    1       25.802 -20.642   6.112  0.00  0.00    -0.018 A 
ATOM     10  C   LIG    1       25.187 -20.230   4.918  0.00  0.00    +0.006 A 
ATOM     11  C   LIG    1       23.805 -20.044   4.854  0.00  0.00    +0.000 A 
ATOM     12  C   LIG    1       23.018 -20.258   5.984  0.00  0.00    +0.000 A 
ATOM     13  C   LIG    1       23.613 -20.653   7.179  0.00  0.00    +0.000 A 
ATOM     14  C   LIG    1       24.996 -20.840   7.245  0.00  0.00    +0.006 A 
ENDBRANCH   4   9
BRANCH   1  16
ATOM     15  C   LIG    1       30.974 -19.518   8.607  0.00  0.00    +0.025 C 
ATOM     16  C   LIG    1       29.619 -18.858   8.411  0.00  0.00    +0.114 C 
ENDBRANCH   1  16
TORSDOF 2
ENDMDL
MODEL 5
REMARK VINA RESULT:      -7.7      1.995      2.269
REMARK  Name = *****
REMARK                            x       y       z     vdW  Elec       q    Type
REMARK                         _______ _______ _______ _____ _____    ______ ____
ROOT
ATOM      1  N   LIG    1       30.285 -19.621   7.660  0.00  0.00    -0.225 N 
ATOM      2  C   LIG    1       29.716 -20.820   8.005  0.00  0.00    +0.248 C 
ATOM      3  O   LIG    1       29.918 -21.442   9.040  0.00  0.00    -0.273 OA
ATOM      4  C   LIG    1       28.795 -21.261   6.862  0.00  0.00    +0.191 C 
ATOM      5  N   LIG    1       28.960 -20.155   5.957  0.00  0.00    -0.284 N 
ATOM      6  H   LIG    1       28.472 -20.030   5.080  0.00  0.00    +0.151 HD
ATOM      7  C   LIG    1       29.812 -19.199   6.455  0.00  0.00    +0.309 C 
ATOM      8  O   LIG    1       30.064 -18.152   5.884  0.00  0.00    -0.252 OA
ENDROOT
BRANCH   4   9
ATOM      9  C   LIG    1       27.363 -21.487   7.278  0.00  0.00    -0.018 A 
ATOM     10  C   LIG    1       26.689 -22.692   7.019  0.00  0.00    +0.006 A 
ATOM     11  C   LIG    1       25.361 -22.866   7.411  0.00  0.00    +0.000 A 
ATOM     12  C   LIG    1       24.682 -21.836   8.058  0.00  0.00    +0.000 A 
ATOM     13  C   LIG    1       25.330 -20.629   8.309  0.00  0.00    +0.000 A 
ATOM     14  C   LIG    1       26.660 -20.453   7.918  0.00  0.00    +0.006 A 
ENDBRANCH   4   9
BRANCH   1  16
ATOM     15  C   LIG    1       30.460 -17.910   9.418  0.00  0.00    +0.025 C 
ATOM     16  C   LIG    1       31.197 -18.867   8.494  0.00  0.00    +0.114 C 
ENDBRANCH   1  16
TORSDOF 2
ENDMDL
MODEL 6
REMARK VINA RESULT:      -7.4      4.291      5.847
REMARK  Name = *****
REMARK                            x       y       z     vdW  Elec       q    Type
REMARK                         _______ _______ _______ _____ _____    ______ ____
ROOT
ATOM      1  N   LIG    1       23.632 -21.593   5.497  0.00  0.00    -0.225 N 
ATOM      2  C   LIG    1       23.583 -22.679   6.332  0.00  0.00    +0.248 C 
ATOM      3  O   LIG    1       22.569 -23.196   6.784  0.00  0.00    -0.273 OA
ATOM      4  C   LIG    1       25.020 -23.126   6.622  0.00  0.00    +0.191 C 
ATOM      5  N   LIG    1       25.752 -22.172   5.832  0.00  0.00    -0.284 N 
ATOM      6  H   LIG    1       26.754 -22.152   5.707  0.00  0.00    +0.151 HD
ATOM      7  C   LIG    1       24.920 -21.305   5.164  0.00  0.00    +0.309 C 
ATOM      8  O   LIG    1       25.315 -20.444   4.397  0.00  0.00    -0.252 OA
ENDROOT
BRANCH   4   9
ATOM      9  C   LIG    1       25.306 -24.559   6.248  0.00  0.00    -0.018 A 
ATOM     10  C   LIG    1       25.814 -25.487   7.172  0.00  0.00    +0.006 A 
ATOM     11  C   LIG    1       26.075 -26.805   6.792  0.00  0.00    +0.000 A 
ATOM     12  C   LIG    1       25.842 -27.212   5.480  0.00  0.00    +0.000 A 
ATOM     13  C   LIG    1       25.353 -26.301   4.547  0.00  0.00    +0.000 A 
ATOM     14  C   LIG    1       25.090 -24.983   4.926  0.00  0.00    +0.006 A 
ENDBRANCH   4   9
BRANCH   1  16
ATOM     15  C   LIG    1       22.490 -19.421   5.324  0.00  0.00    +0.025 C 
ATOM     16  C   LIG    1       22.474 -20.900   4.973  0.00  0.00    +0.114 C 
ENDBRANCH   1  16
TORSDOF 2
ENDMDL
MODEL 7
REMARK VINA RESULT:      -7.2      3.111      4.146
REMARK  Name = *****
REMARK                            x       y       z     vdW  Elec       q    Type
REMARK                         _______ _______ _______ _____ _____    ______ ____
ROOT
ATOM      1  N   LIG    1       25.315 -22.554   7.375  0.00  0.00    -0.225 N 
ATOM      2  C   LIG    1       24.429 -21.509   7.430  0.00  0.00    +0.248 C 
ATOM      3  O   LIG    1       24.427 -20.609   8.260  0.00  0.00    -0.273 OA
ATOM      4  C   LIG    1       23.424 -21.671   6.284  0.00  0.00    +0.191 C 
ATOM      5  N   LIG    1       23.927 -22.870   5.668  0.00  0.00    -0.284 N 
ATOM      6  H   LIG    1       23.566 -23.298   4.827  0.00  0.00    +0.151 HD
ATOM      7  C   LIG    1       25.046 -23.351   6.304  0.00  0.00    +0.309 C 
ATOM      8  O   LIG    1       25.671 -24.327   5.929  0.00  0.00    -0.252 OA
ENDROOT
BRANCH   4   9
ATOM      9  C   LIG    1       23.366 -20.493   5.345  0.00  0.00    -0.018 A 
ATOM     10  C   LIG    1       22.258 -19.630   5.294  0.00  0.00    +0.006 A 
ATOM     11  C   LIG    1       22.233 -18.552   4.407  0.00  0.00    +0.000 A 
ATOM     12  C   LIG    1       23.309 -18.325   3.553  0.00  0.00    +0.000 A 
ATOM     13  C   LIG    1       24.409 -19.179   3.580  0.00  0.00    +0.000 A 
ATOM     14  C   LIG    1       24.437 -20.258   4.467  0.00  0.00    +0.006 A 
ENDBRANCH   4   9
BRANCH   1  16
ATOM     15  C   LIG    1       27.548 -21.739   8.008  0.00  0.00    +0.025 C 
ATOM     16  C   LIG    1       26.434 -22.739   8.275  0.00  0.00    +0.114 C 
ENDBRANCH   1  16
TORSDOF 2
ENDMDL
MODEL 8
REMARK VINA RESULT:      -7.2      2.774      6.693
REMARK  Name = *****
REMARK                            x       y       z     vdW  Elec       q    Type
REMARK                         _______ _______ _______ _____ _____    ______ ____
ROOT
ATOM      1  N   LIG    1       29.861 -20.241   7.660  0.00  0.00    -0.225 N 
ATOM      2  C   LIG    1       30.431 -18.999   7.562  0.00  0.00    +0.248 C 
ATOM      3  O   LIG    1       30.008 -18.062   6.896  0.00  0.00    -0.273 OA
ATOM      4  C   LIG    1       31.706 -18.987   8.414  0.00  0.00    +0.191 C 
ATOM      5  N   LIG    1       31.674 -20.324   8.943  0.00  0.00    -0.284 N 
ATOM      6  H   LIG    1       32.329 -20.712   9.608  0.00  0.00    +0.151 HD
ATOM      7  C   LIG    1       30.576 -21.028   8.512  0.00  0.00    +0.309 C 
ATOM      8  O   LIG    1       30.315 -22.163   8.870  0.00  0.00    -0.252 OA
ENDROOT
BRANCH   4   9
ATOM      9  C   LIG    1       31.723 -17.920   9.480  0.00  0.00    -0.018 A 
ATOM     10  C   LIG    1       30.815 -17.918  10.551  0.00  0.00    +0.006 A 
ATOM     11  C   LIG    1       30.852 -16.911  11.518  0.00  0.00    +0.000 A 
ATOM     12  C   LIG    1       31.790 -15.887  11.423  0.00  0.00    +0.000 A 
ATOM     13  C   LIG    1       32.689 -15.864  10.359  0.00  0.00    +0.000 A 
ATOM     14  C   LIG    1       32.653 -16.872   9.391  0.00  0.00    +0.006 A 
ENDBRANCH   4   9
BRANCH   1  16
ATOM     15  C   LIG    1       27.414 -20.344   7.890  0.00  0.00    +0.025 C 
ATOM     16  C   LIG    1       28.625 -20.638   7.019  0.00  0.00    +0.114 C 
ENDBRANCH   1  16
TORSDOF 2
ENDMDL
MODEL 9
REMARK VINA RESULT:      -7.1      2.265      5.608
REMARK  Name = *****
REMARK                            x       y       z     vdW  Elec       q    Type
REMARK                         _______ _______ _______ _____ _____    ______ ____
ROOT
ATOM      1  N   LIG    1       24.129 -20.462   5.895  0.00  0.00    -0.225 N 
ATOM      2  C   LIG    1       25.328 -20.466   5.230  0.00  0.00    +0.248 C 
ATOM      3  O   LIG    1       25.531 -20.022   4.107  0.00  0.00    -0.273 OA
ATOM      4  C   LIG    1       26.372 -21.142   6.126  0.00  0.00    +0.191 C 
ATOM      5  N   LIG    1       25.568 -21.435   7.283  0.00  0.00    -0.284 N 
ATOM      6  H   LIG    1       25.899 -21.847   8.144  0.00  0.00    +0.151 HD
ATOM      7  C   LIG    1       24.271 -21.005   7.136  0.00  0.00    +0.309 C 
ATOM      8  O   LIG    1       23.423 -21.102   8.005  0.00  0.00    -0.252 OA
ENDROOT
BRANCH   4   9
ATOM      9  C   LIG    1       27.571 -20.279   6.432  0.00  0.00    -0.018 A 
ATOM     10  C   LIG    1       28.216 -19.516   5.444  0.00  0.00    +0.006 A 
ATOM     11  C   LIG    1       29.328 -18.734   5.759  0.00  0.00    +0.000 A 
ATOM     12  C   LIG    1       29.819 -18.710   7.062  0.00  0.00    +0.000 A 
ATOM     13  C   LIG    1       29.202 -19.472   8.051  0.00  0.00    +0.000 A 
ATOM     14  C   LIG    1       28.088 -20.255   7.738  0.00  0.00    +0.006 A 
ENDBRANCH   4   9
BRANCH   1  16
ATOM     15  C   LIG    1       21.959 -20.945   4.842  0.00  0.00    +0.025 C 
ATOM     16  C   LIG    1       22.903 -19.885   5.387  0.00  0.00    +0.114 C 
ENDBRANCH   1  16
TORSDOF 2
ENDMDL
