MODEL 1
REMARK VINA RESULT:      19.9      0.000      0.000
REMARK  Name = *****
REMARK                            x       y       z     vdW  Elec       q    Type
REMARK                         _______ _______ _______ _____ _____    ______ ____
ROOT
ATOM      1  C   LIG    1       22.691 -17.050   3.413  0.00  0.00    +0.081 C 
ATOM      2  C   LIG    1       23.327 -16.220   4.570  0.00  0.00    -0.018 C 
ATOM      3  C   LIG    1       22.519 -16.375   5.885  0.00  0.00    +0.012 C 
ATOM      4  C   LIG    1       23.199 -14.754   4.060  0.00  0.00    -0.001 C 
ATOM      5  C   LIG    1       24.302 -14.309   3.063  0.00  0.00    -0.003 C 
ATOM      6  C   LIG    1       25.746 -14.659   3.504  0.00  0.00    +0.004 C 
ATOM      7  C   LIG    1       25.822 -16.153   3.874  0.00  0.00    +0.005 C 
ATOM      8  C   LIG    1       26.445 -13.651   4.501  0.00  0.00    +0.008 C 
ATOM      9  C   LIG    1       26.004 -13.788   5.972  0.00  0.00    +0.018 C 
ATOM     10  C   LIG    1       26.200 -12.167   4.066  0.00  0.00    +0.083 C 
ATOM     11  N   LIG    1       27.054 -11.765   2.955  0.00  0.00    -0.308 N 
ATOM     12  H   LIG    1       26.828 -10.925   2.437  0.00  0.00    +0.149 HD
ATOM     13  C   LIG    1       28.388 -12.057   2.923  0.00  0.00    +0.237 C 
ATOM     14  O   LIG    1       29.174 -11.452   2.212  0.00  0.00    -0.271 OA
ATOM     15  C   LIG    1       28.828 -13.171   3.790  0.00  0.00    +0.063 C 
ATOM     16  C   LIG    1       24.734 -11.882   3.744  0.00  0.00    +0.023 C 
ATOM     17  C   LIG    1       27.954 -13.912   4.486  0.00  0.00    -0.013 C 
ATOM     18  C   LIG    1       24.198 -12.822   2.673  0.00  0.00    +0.006 C 
ATOM     19  C   LIG    1       21.804 -14.751   3.407  0.00  0.00    +0.005 C 
ATOM     20  C   LIG    1       24.779 -16.628   4.878  0.00  0.00    +0.008 C 
ATOM     21  C   LIG    1       21.614 -16.137   2.800  0.00  0.00    +0.014 C 
ENDROOT
BRANCH   1  24
ATOM     22  N   LIG    1       23.005 -19.228   4.482  0.00  0.00    -0.310 N 
ATOM     23  H   LIG    1       23.983 -18.977   4.419  0.00  0.00    +0.149 HD
ATOM     24  C   LIG    1       22.105 -18.403   3.836  0.00  0.00    +0.217 C 
ATOM     25  O   LIG    1       20.930 -18.702   3.650  0.00  0.00    -0.276 OA
BRANCH  22  27
ATOM     26  C   LIG    1       23.640 -21.572   4.223  0.00  0.00    +0.031 C 
ATOM     27  C   LIG    1       22.694 -20.594   4.946  0.00  0.00    +0.026 C 
ATOM     28  C   LIG    1       22.929 -20.741   6.458  0.00  0.00    +0.031 C 
ATOM     29  C   LIG    1       21.246 -20.974   4.599  0.00  0.00    +0.031 C 
ENDBRANCH  22  27
ENDBRANCH   1  24
TORSDOF 2
ENDMDL
MODEL 2
REMARK VINA RESULT:      22.6      1.692      3.041
REMARK  Name = *****
REMARK                            x       y       z     vdW  Elec       q    Type
REMARK                         _______ _______ _______ _____ _____    ______ ____
ROOT
ATOM      1  C   LIG    1       23.886 -18.660   4.809  0.00  0.00    +0.081 C 
ATOM      2  C   LIG    1       23.611 -17.400   3.931  0.00  0.00    -0.018 C 
ATOM      3  C   LIG    1       22.504 -17.676   2.881  0.00  0.00    +0.012 C 
ATOM      4  C   LIG    1       24.969 -17.181   3.200  0.00  0.00    -0.001 C 
ATOM      5  C   LIG    1       26.046 -16.434   4.030  0.00  0.00    -0.003 C 
ATOM      6  C   LIG    1       25.538 -15.150   4.735  0.00  0.00    +0.004 C 
ATOM      7  C   LIG    1       24.264 -15.474   5.537  0.00  0.00    +0.005 C 
ATOM      8  C   LIG    1       25.504 -13.832   3.863  0.00  0.00    +0.008 C 
ATOM      9  C   LIG    1       24.307 -13.728   2.896  0.00  0.00    +0.018 C 
ATOM     10  C   LIG    1       26.813 -13.680   3.018  0.00  0.00    +0.083 C 
ATOM     11  N   LIG    1       27.937 -13.204   3.816  0.00  0.00    -0.308 N 
ATOM     12  H   LIG    1       28.877 -13.292   3.448  0.00  0.00    +0.149 HD
ATOM     13  C   LIG    1       27.814 -12.166   4.695  0.00  0.00    +0.237 C 
ATOM     14  O   LIG    1       28.776 -11.532   5.099  0.00  0.00    -0.271 OA
ATOM     15  C   LIG    1       26.441 -11.862   5.151  0.00  0.00    +0.063 C 
ATOM     16  C   LIG    1       27.190 -14.962   2.278  0.00  0.00    +0.023 C 
ATOM     17  C   LIG    1       25.395 -12.625   4.800  0.00  0.00    -0.013 C 
ATOM     18  C   LIG    1       27.329 -16.143   3.229  0.00  0.00    +0.006 C 
ATOM     19  C   LIG    1       25.402 -18.621   2.867  0.00  0.00    +0.005 C 
ATOM     20  C   LIG    1       23.163 -16.178   4.752  0.00  0.00    +0.008 C 
ATOM     21  C   LIG    1       24.912 -19.492   4.020  0.00  0.00    +0.014 C 
ENDROOT
BRANCH   1  24
ATOM     22  N   LIG    1       21.930 -19.923   4.057  0.00  0.00    -0.310 N 
ATOM     23  H   LIG    1       22.148 -19.489   3.169  0.00  0.00    +0.149 HD
ATOM     24  C   LIG    1       22.642 -19.488   5.157  0.00  0.00    +0.217 C 
ATOM     25  O   LIG    1       22.336 -19.767   6.312  0.00  0.00    -0.276 OA
BRANCH  22  27
ATOM     26  C   LIG    1       19.503 -19.701   4.203  0.00  0.00    +0.031 C 
ATOM     27  C   LIG    1       20.675 -20.696   4.132  0.00  0.00    +0.026 C 
ATOM     28  C   LIG    1       20.479 -21.570   2.882  0.00  0.00    +0.031 C 
ATOM     29  C   LIG    1       20.646 -21.571   5.395  0.00  0.00    +0.031 C 
ENDBRANCH  22  27
ENDBRANCH   1  24
TORSDOF 2
ENDMDL
