MODEL 1
REMARK VINA RESULT:      -5.8      0.000      0.000
REMARK  Name = *****
REMARK                            x       y       z     vdW  Elec       q    Type
REMARK                         _______ _______ _______ _____ _____    ______ ____
ROOT
ATOM      1  C   LIG    1       24.425 -32.000   9.281  0.00  0.00    +0.169 C 
ATOM      2  C   LIG    1       25.321 -32.130  10.582  0.00  0.00    +0.175 C 
ATOM      3  C   LIG    1       25.052 -30.946  11.592  0.00  0.00    +0.169 C 
ATOM      4  C   LIG    1       23.562 -31.116  12.055  0.00  0.00    +0.084 C 
ATOM      5  C   LIG    1       22.551 -31.320  10.913  0.00  0.00    +0.042 C 
ATOM      6  C   LIG    1       22.994 -32.334   9.837  0.00  0.00    +0.084 C 
ENDROOT
BRANCH   4   7
ATOM      7  N   LIG    1       23.059 -30.063  12.932  0.00  0.00    -0.325 NA
ATOM      8  H   LIG    1       23.350 -30.297  13.885  0.00  0.00    +0.118 HD
ATOM      9  H   LIG    1       23.547 -29.182  12.761  0.00  0.00    +0.118 HD
ENDBRANCH   4   7
BRANCH   6  10
ATOM     10  N   LIG    1       21.973 -32.464   8.806  0.00  0.00    -0.325 NA
ATOM     11  H   LIG    1       22.235 -31.904   7.993  0.00  0.00    +0.118 HD
ATOM     12  H   LIG    1       21.968 -33.428   8.464  0.00  0.00    +0.118 HD
ENDBRANCH   6  10
BRANCH   2  13
ATOM     13  O   LIG    1       26.670 -32.306  10.254  0.00  0.00    -0.387 OA
ATOM     14  H   LIG    1       27.156 -32.178  11.078  0.00  0.00    +0.210 HD
ENDBRANCH   2  13
BRANCH   1  15
ATOM     15  O   LIG    1       24.335 -30.738   8.528  0.00  0.00    -0.342 OA
BRANCH  15  18
ATOM     16  C   LIG    1       24.389 -28.286   6.492  0.00  0.00    +0.138 C 
ATOM     17  O   LIG    1       25.289 -28.647   7.594  0.00  0.00    -0.345 OA
ATOM     18  C   LIG    1       25.487 -30.110   7.897  0.00  0.00    +0.268 C 
ATOM     19  C   LIG    1       25.985 -30.689   6.537  0.00  0.00    +0.107 C 
ATOM     20  C   LIG    1       24.821 -30.695   5.546  0.00  0.00    +0.026 C 
ATOM     21  C   LIG    1       23.827 -29.549   5.800  0.00  0.00    +0.035 C 
BRANCH  19  22
ATOM     22  N   LIG    1       26.755 -31.938   6.484  0.00  0.00    -0.323 NA
ATOM     23  H   LIG    1       26.481 -32.535   5.708  0.00  0.00    +0.119 HD
ATOM     24  H   LIG    1       26.685 -32.474   7.344  0.00  0.00    +0.119 HD
ENDBRANCH  19  22
BRANCH  16  25
ATOM     25  C   LIG    1       24.825 -27.053   5.453  0.00  0.00    +0.079 C 
ATOM     26  C   LIG    1       26.185 -26.396   5.784  0.00  0.00    +0.026 C 
BRANCH  25  28
ATOM     27  C   LIG    1       23.886 -24.867   6.408  0.00  0.00    +0.101 C 
ATOM     28  N   LIG    1       23.775 -25.971   5.440  0.00  0.00    -0.314 NA
ATOM     29  H   LIG    1       22.865 -26.408   5.590  0.00  0.00    +0.122 HD
ENDBRANCH  25  28
ENDBRANCH  16  25
ENDBRANCH  15  18
ENDBRANCH   1  15
BRANCH   3  30
ATOM     30  O   LIG    1       25.405 -29.787  10.848  0.00  0.00    -0.341 OA
BRANCH  30  31
ATOM     31  C   LIG    1       26.089 -28.670  11.368  0.00  0.00    +0.281 C 
ATOM     32  C   LIG    1       27.614 -28.817  11.612  0.00  0.00    +0.190 C 
ATOM     33  C   LIG    1       28.089 -28.679  13.115  0.00  0.00    +0.121 C 
ATOM     34  C   LIG    1       27.239 -27.603  13.911  0.00  0.00    +0.104 C 
ATOM     35  C   LIG    1       26.463 -28.080  15.163  0.00  0.00    +0.045 C 
ATOM     36  C   LIG    1       26.214 -26.943  12.964  0.00  0.00    +0.199 C 
ATOM     37  O   LIG    1       25.393 -27.957  12.383  0.00  0.00    -0.346 OA
BRANCH  33  38
ATOM     38  N   LIG    1       28.159 -30.063  13.668  0.00  0.00    -0.311 NA
ATOM     39  H   LIG    1       28.402 -30.660  12.881  0.00  0.00    +0.122 HD
ATOM     40  C   LIG    1       29.127 -30.267  14.737  0.00  0.00    +0.101 C 
ENDBRANCH  33  38
BRANCH  32  41
ATOM     41  O   LIG    1       28.228 -29.951  10.995  0.00  0.00    -0.385 OA
ATOM     42  H   LIG    1       28.186 -30.676  11.654  0.00  0.00    +0.210 HD
ENDBRANCH  32  41
BRANCH  34  43
ATOM     43  O   LIG    1       28.147 -26.597  14.378  0.00  0.00    -0.385 OA
ATOM     44  H   LIG    1       28.991 -26.744  13.899  0.00  0.00    +0.210 HD
ENDBRANCH  34  43
ENDBRANCH  30  31
ENDBRANCH   3  30
TORSDOF 13
ENDMDL
MODEL 2
REMARK VINA RESULT:      -5.6      2.018      3.314
REMARK  Name = *****
REMARK                            x       y       z     vdW  Elec       q    Type
REMARK                         _______ _______ _______ _____ _____    ______ ____
ROOT
ATOM      1  C   LIG    1       25.998 -29.613   7.093  0.00  0.00    +0.169 C 
ATOM      2  C   LIG    1       26.238 -30.602   8.308  0.00  0.00    +0.175 C 
ATOM      3  C   LIG    1       24.968 -30.693   9.242  0.00  0.00    +0.169 C 
ATOM      4  C   LIG    1       23.840 -31.334   8.358  0.00  0.00    +0.084 C 
ATOM      5  C   LIG    1       23.660 -30.688   6.973  0.00  0.00    +0.042 C 
ATOM      6  C   LIG    1       24.976 -30.420   6.214  0.00  0.00    +0.084 C 
ENDROOT
BRANCH   4   7
ATOM      7  N   LIG    1       22.529 -31.429   8.996  0.00  0.00    -0.325 NA
ATOM      8  H   LIG    1       22.689 -31.547  10.000  0.00  0.00    +0.118 HD
ATOM      9  H   LIG    1       22.037 -30.536   8.952  0.00  0.00    +0.118 HD
ENDBRANCH   4   7
BRANCH   6  10
ATOM     10  N   LIG    1       24.704 -29.817   4.917  0.00  0.00    -0.325 NA
ATOM     11  H   LIG    1       25.344 -29.036   4.762  0.00  0.00    +0.118 HD
ATOM     12  H   LIG    1       24.936 -30.490   4.182  0.00  0.00    +0.118 HD
ENDBRANCH   6  10
BRANCH   2  13
ATOM     13  O   LIG    1       27.424 -30.296   8.984  0.00  0.00    -0.387 OA
ATOM     14  H   LIG    1       27.813 -31.147   9.224  0.00  0.00    +0.210 HD
ENDBRANCH   2  13
BRANCH   1  15
ATOM     15  O   LIG    1       25.452 -28.261   7.294  0.00  0.00    -0.342 OA
BRANCH  15  18
ATOM     16  C   LIG    1       24.390 -25.291   6.830  0.00  0.00    +0.138 C 
ATOM     17  O   LIG    1       25.565 -25.795   7.551  0.00  0.00    -0.345 OA
ATOM     18  C   LIG    1       26.224 -27.052   7.042  0.00  0.00    +0.268 C 
ATOM     19  C   LIG    1       26.568 -26.696   5.563  0.00  0.00    +0.107 C 
ATOM     20  C   LIG    1       25.273 -26.632   4.754  0.00  0.00    +0.026 C 
ATOM     21  C   LIG    1       24.074 -26.175   5.602  0.00  0.00    +0.035 C 
BRANCH  19  22
ATOM     22  N   LIG    1       27.629 -27.410   4.841  0.00  0.00    -0.323 NA
ATOM     23  H   LIG    1       28.169 -28.025   5.445  0.00  0.00    +0.119 HD
ATOM     24  H   LIG    1       28.270 -26.778   4.368  0.00  0.00    +0.119 HD
ENDBRANCH  19  22
BRANCH  16  25
ATOM     25  C   LIG    1       24.236 -23.649   6.569  0.00  0.00    +0.079 C 
ATOM     26  C   LIG    1       22.792 -23.116   6.721  0.00  0.00    +0.026 C 
BRANCH  25  28
ATOM     27  C   LIG    1       24.572 -21.886   4.739  0.00  0.00    +0.101 C 
ATOM     28  N   LIG    1       24.728 -23.278   5.193  0.00  0.00    -0.314 NA
ATOM     29  H   LIG    1       24.248 -23.868   4.514  0.00  0.00    +0.122 HD
ENDBRANCH  25  28
ENDBRANCH  16  25
ENDBRANCH  15  18
ENDBRANCH   1  15
BRANCH   3  30
ATOM     30  O   LIG    1       24.797 -29.358   9.701  0.00  0.00    -0.341 OA
BRANCH  30  31
ATOM     31  C   LIG    1       24.833 -28.958  11.051  0.00  0.00    +0.281 C 
ATOM     32  C   LIG    1       26.122 -28.256  11.553  0.00  0.00    +0.190 C 
ATOM     33  C   LIG    1       26.924 -29.011  12.688  0.00  0.00    +0.121 C 
ATOM     34  C   LIG    1       25.958 -29.756  13.702  0.00  0.00    +0.104 C 
ATOM     35  C   LIG    1       26.112 -31.291  13.848  0.00  0.00    +0.045 C 
ATOM     36  C   LIG    1       24.488 -29.480  13.323  0.00  0.00    +0.199 C 
ATOM     37  O   LIG    1       24.269 -29.886  11.971  0.00  0.00    -0.346 OA
BRANCH  33  38
ATOM     38  N   LIG    1       27.975 -29.818  12.003  0.00  0.00    -0.311 NA
ATOM     39  H   LIG    1       27.916 -29.565  11.020  0.00  0.00    +0.122 HD
ATOM     40  C   LIG    1       29.338 -29.604  12.468  0.00  0.00    +0.101 C 
ENDBRANCH  33  38
BRANCH  32  41
ATOM     41  O   LIG    1       27.012 -27.801  10.530  0.00  0.00    -0.385 OA
ATOM     42  H   LIG    1       26.466 -27.698   9.721  0.00  0.00    +0.210 HD
ENDBRANCH  32  41
BRANCH  34  43
ATOM     43  O   LIG    1       26.206 -29.218  15.007  0.00  0.00    -0.385 OA
ATOM     44  H   LIG    1       25.532 -29.614  15.601  0.00  0.00    +0.210 HD
ENDBRANCH  34  43
ENDBRANCH  30  31
ENDBRANCH   3  30
TORSDOF 13
ENDMDL
MODEL 3
REMARK VINA RESULT:      -5.5      2.803      4.548
REMARK  Name = *****
REMARK                            x       y       z     vdW  Elec       q    Type
REMARK                         _______ _______ _______ _____ _____    ______ ____
ROOT
ATOM      1  C   LIG    1       25.638 -30.864   6.690  0.00  0.00    +0.169 C 
ATOM      2  C   LIG    1       25.582 -31.728   8.017  0.00  0.00    +0.175 C 
ATOM      3  C   LIG    1       24.109 -32.196   8.344  0.00  0.00    +0.169 C 
ATOM      4  C   LIG    1       23.699 -33.152   7.167  0.00  0.00    +0.084 C 
ATOM      5  C   LIG    1       23.974 -32.595   5.759  0.00  0.00    +0.042 C 
ATOM      6  C   LIG    1       25.362 -31.945   5.585  0.00  0.00    +0.084 C 
ENDROOT
BRANCH   4   7
ATOM      7  N   LIG    1       22.323 -33.636   7.211  0.00  0.00    -0.325 NA
ATOM      8  H   LIG    1       22.072 -33.922   6.262  0.00  0.00    +0.118 HD
ATOM      9  H   LIG    1       22.261 -34.513   7.732  0.00  0.00    +0.118 HD
ENDBRANCH   4   7
BRANCH   6  10
ATOM     10  N   LIG    1       25.530 -31.457   4.223  0.00  0.00    -0.325 NA
ATOM     11  H   LIG    1       25.238 -32.179   3.562  0.00  0.00    +0.118 HD
ATOM     12  H   LIG    1       24.880 -30.684   4.063  0.00  0.00    +0.118 HD
ENDBRANCH   6  10
BRANCH   2  13
ATOM     13  O   LIG    1       26.223 -31.076   9.076  0.00  0.00    -0.387 OA
ATOM     14  H   LIG    1       25.619 -31.143   9.826  0.00  0.00    +0.210 HD
ENDBRANCH   2  13
BRANCH   1  15
ATOM     15  O   LIG    1       24.716 -29.738   6.462  0.00  0.00    -0.342 OA
BRANCH  15  18
ATOM     16  C   LIG    1       24.383 -26.675   5.647  0.00  0.00    +0.138 C 
ATOM     17  O   LIG    1       23.838 -27.439   6.775  0.00  0.00    -0.345 OA
ATOM     18  C   LIG    1       24.664 -28.570   7.330  0.00  0.00    +0.268 C 
ATOM     19  C   LIG    1       26.009 -27.875   7.705  0.00  0.00    +0.107 C 
ATOM     20  C   LIG    1       26.750 -27.503   6.420  0.00  0.00    +0.026 C 
ATOM     21  C   LIG    1       25.791 -27.186   5.261  0.00  0.00    +0.035 C 
BRANCH  19  22
ATOM     22  N   LIG    1       26.910 -28.462   8.705  0.00  0.00    -0.323 NA
ATOM     23  H   LIG    1       26.456 -28.611   9.603  0.00  0.00    +0.119 HD
ATOM     24  H   LIG    1       27.744 -27.899   8.855  0.00  0.00    +0.119 HD
ENDBRANCH  19  22
BRANCH  16  25
ATOM     25  C   LIG    1       24.212 -25.014   5.627  0.00  0.00    +0.079 C 
ATOM     26  C   LIG    1       25.470 -24.241   6.087  0.00  0.00    +0.026 C 
BRANCH  25  28
ATOM     27  C   LIG    1       22.919 -23.160   6.837  0.00  0.00    +0.101 C 
ATOM     28  N   LIG    1       23.058 -24.586   6.497  0.00  0.00    -0.314 NA
ATOM     29  H   LIG    1       23.116 -25.098   7.378  0.00  0.00    +0.122 HD
ENDBRANCH  25  28
ENDBRANCH  16  25
ENDBRANCH  15  18
ENDBRANCH   1  15
BRANCH   3  30
ATOM     30  O   LIG    1       23.401 -30.974   8.506  0.00  0.00    -0.341 OA
BRANCH  30  31
ATOM     31  C   LIG    1       22.568 -30.662   9.598  0.00  0.00    +0.281 C 
ATOM     32  C   LIG    1       23.245 -30.094  10.873  0.00  0.00    +0.190 C 
ATOM     33  C   LIG    1       23.114 -30.978  12.178  0.00  0.00    +0.121 C 
ATOM     34  C   LIG    1       21.708 -31.708  12.262  0.00  0.00    +0.104 C 
ATOM     35  C   LIG    1       21.703 -33.256  12.322  0.00  0.00    +0.045 C 
ATOM     36  C   LIG    1       20.833 -31.296  11.060  0.00  0.00    +0.199 C 
ATOM     37  O   LIG    1       21.527 -31.600   9.849  0.00  0.00    -0.346 OA
BRANCH  33  38
ATOM     38  N   LIG    1       24.344 -31.820  12.249  0.00  0.00    -0.311 NA
ATOM     39  H   LIG    1       24.970 -31.449  11.538  0.00  0.00    +0.122 HD
ATOM     40  C   LIG    1       25.032 -31.825  13.532  0.00  0.00    +0.101 C 
ENDBRANCH  33  38
BRANCH  32  41
ATOM     41  O   LIG    1       24.593 -29.647  10.705  0.00  0.00    -0.385 OA
ATOM     42  H   LIG    1       25.137 -30.457  10.597  0.00  0.00    +0.210 HD
ENDBRANCH  32  41
BRANCH  34  43
ATOM     43  O   LIG    1       21.068 -31.272  13.468  0.00  0.00    -0.385 OA
ATOM     44  H   LIG    1       21.679 -31.499  14.202  0.00  0.00    +0.210 HD
ENDBRANCH  34  43
ENDBRANCH  30  31
ENDBRANCH   3  30
TORSDOF 13
ENDMDL
MODEL 4
REMARK VINA RESULT:      -5.3      3.014      7.265
REMARK  Name = *****
REMARK                            x       y       z     vdW  Elec       q    Type
REMARK                         _______ _______ _______ _____ _____    ______ ____
ROOT
ATOM      1  C   LIG    1       26.458 -28.670  13.721  0.00  0.00    +0.169 C 
ATOM      2  C   LIG    1       27.142 -29.959  13.103  0.00  0.00    +0.175 C 
ATOM      3  C   LIG    1       26.689 -30.195  11.608  0.00  0.00    +0.169 C 
ATOM      4  C   LIG    1       27.238 -28.965  10.802  0.00  0.00    +0.084 C 
ATOM      5  C   LIG    1       26.933 -27.594  11.430  0.00  0.00    +0.042 C 
ATOM      6  C   LIG    1       27.187 -27.513  12.949  0.00  0.00    +0.084 C 
ENDROOT
BRANCH   4   7
ATOM      7  N   LIG    1       26.854 -28.923   9.394  0.00  0.00    -0.325 NA
ATOM      8  H   LIG    1       27.654 -28.558   8.872  0.00  0.00    +0.118 HD
ATOM      9  H   LIG    1       26.752 -29.866   9.015  0.00  0.00    +0.118 HD
ENDBRANCH   4   7
BRANCH   6  10
ATOM     10  N   LIG    1       26.878 -26.180  13.449  0.00  0.00    -0.325 NA
ATOM     11  H   LIG    1       27.708 -25.779  13.890  0.00  0.00    +0.118 HD
ATOM     12  H   LIG    1       26.685 -25.564  12.655  0.00  0.00    +0.118 HD
ENDBRANCH   6  10
BRANCH   2  13
ATOM     13  O   LIG    1       26.973 -31.072  13.934  0.00  0.00    -0.387 OA
ATOM     14  H   LIG    1       27.420 -30.849  14.760  0.00  0.00    +0.210 HD
ENDBRANCH   2  13
BRANCH   1  15
ATOM     15  O   LIG    1       25.008 -28.440  13.618  0.00  0.00    -0.342 OA
BRANCH  15  18
ATOM     16  C   LIG    1       21.838 -28.632  13.892  0.00  0.00    +0.138 C 
ATOM     17  O   LIG    1       22.910 -28.920  14.853  0.00  0.00    -0.345 OA
ATOM     18  C   LIG    1       24.176 -28.107  14.766  0.00  0.00    +0.268 C 
ATOM     19  C   LIG    1       23.664 -26.640  14.900  0.00  0.00    +0.107 C 
ATOM     20  C   LIG    1       22.918 -26.256  13.622  0.00  0.00    +0.026 C 
ATOM     21  C   LIG    1       22.228 -27.461  12.961  0.00  0.00    +0.035 C 
BRANCH  19  22
ATOM     22  N   LIG    1       24.557 -25.566  15.355  0.00  0.00    -0.323 NA
ATOM     23  H   LIG    1       24.151 -25.009  16.102  0.00  0.00    +0.119 HD
ATOM     24  H   LIG    1       24.832 -24.944  14.600  0.00  0.00    +0.119 HD
ENDBRANCH  19  22
BRANCH  16  25
ATOM     25  C   LIG    1       20.254 -28.609  14.420  0.00  0.00    +0.079 C 
ATOM     26  C   LIG    1       19.541 -29.980  14.348  0.00  0.00    +0.026 C 
BRANCH  25  28
ATOM     27  C   LIG    1       18.815 -26.489  14.334  0.00  0.00    +0.101 C 
ATOM     28  N   LIG    1       19.441 -27.619  13.626  0.00  0.00    -0.314 NA
ATOM     29  H   LIG    1       18.692 -28.126  13.155  0.00  0.00    +0.122 HD
ENDBRANCH  25  28
ENDBRANCH  16  25
ENDBRANCH  15  18
ENDBRANCH   1  15
BRANCH   3  30
ATOM     30  O   LIG    1       25.282 -30.368  11.711  0.00  0.00    -0.341 OA
BRANCH  30  31
ATOM     31  C   LIG    1       24.460 -30.912  10.704  0.00  0.00    +0.281 C 
ATOM     32  C   LIG    1       24.941 -32.215  10.014  0.00  0.00    +0.190 C 
ATOM     33  C   LIG    1       25.237 -32.107   8.464  0.00  0.00    +0.121 C 
ATOM     34  C   LIG    1       24.226 -31.129   7.733  0.00  0.00    +0.104 C 
ATOM     35  C   LIG    1       24.817 -29.901   6.996  0.00  0.00    +0.045 C 
ATOM     36  C   LIG    1       23.189 -30.597   8.745  0.00  0.00    +0.199 C 
ATOM     37  O   LIG    1       23.873 -29.959   9.824  0.00  0.00    -0.346 OA
BRANCH  33  38
ATOM     38  N   LIG    1       26.697 -31.835   8.325  0.00  0.00    -0.311 NA
ATOM     39  H   LIG    1       27.101 -32.043   9.236  0.00  0.00    +0.122 HD
ATOM     40  C   LIG    1       27.391 -32.613   7.309  0.00  0.00    +0.101 C 
ENDBRANCH  33  38
BRANCH  32  41
ATOM     41  O   LIG    1       26.003 -32.905  10.679  0.00  0.00    -0.385 OA
ATOM     42  H   LIG    1       26.791 -32.813  10.102  0.00  0.00    +0.210 HD
ENDBRANCH  32  41
BRANCH  34  43
ATOM     43  O   LIG    1       23.540 -31.888   6.729  0.00  0.00    -0.385 OA
ATOM     44  H   LIG    1       24.072 -32.701   6.588  0.00  0.00    +0.210 HD
ENDBRANCH  34  43
ENDBRANCH  30  31
ENDBRANCH   3  30
TORSDOF 13
ENDMDL
MODEL 5
REMARK VINA RESULT:      -5.2      1.638      2.483
REMARK  Name = *****
REMARK                            x       y       z     vdW  Elec       q    Type
REMARK                         _______ _______ _______ _____ _____    ______ ____
ROOT
ATOM      1  C   LIG    1       24.524 -32.969   8.937  0.00  0.00    +0.169 C 
ATOM      2  C   LIG    1       24.882 -33.633  10.331  0.00  0.00    +0.175 C 
ATOM      3  C   LIG    1       24.122 -32.927  11.522  0.00  0.00    +0.169 C 
ATOM      4  C   LIG    1       22.596 -33.202  11.272  0.00  0.00    +0.084 C 
ATOM      5  C   LIG    1       22.113 -32.902   9.841  0.00  0.00    +0.042 C 
ATOM      6  C   LIG    1       23.038 -33.433   8.727  0.00  0.00    +0.084 C 
ENDROOT
BRANCH   4   7
ATOM      7  N   LIG    1       21.686 -32.554  12.211  0.00  0.00    -0.325 NA
ATOM      8  H   LIG    1       20.748 -32.919  12.024  0.00  0.00    +0.118 HD
ATOM      9  H   LIG    1       21.861 -32.869  13.166  0.00  0.00    +0.118 HD
ENDBRANCH   4   7
BRANCH   6  10
ATOM     10  N   LIG    1       22.496 -33.109   7.415  0.00  0.00    -0.325 NA
ATOM     11  H   LIG    1       22.588 -32.106   7.245  0.00  0.00    +0.118 HD
ATOM     12  H   LIG    1       23.079 -33.546   6.697  0.00  0.00    +0.118 HD
ENDBRANCH   6  10
BRANCH   2  13
ATOM     13  O   LIG    1       26.266 -33.724  10.511  0.00  0.00    -0.387 OA
ATOM     14  H   LIG    1       26.396 -34.394  11.193  0.00  0.00    +0.210 HD
ENDBRANCH   2  13
BRANCH   1  15
ATOM     15  O   LIG    1       24.575 -31.511   8.740  0.00  0.00    -0.342 OA
BRANCH  15  18
ATOM     16  C   LIG    1       24.633 -28.842   6.998  0.00  0.00    +0.138 C 
ATOM     17  O   LIG    1       25.546 -29.340   8.034  0.00  0.00    -0.345 OA
ATOM     18  C   LIG    1       25.726 -30.831   8.164  0.00  0.00    +0.268 C 
ATOM     19  C   LIG    1       26.191 -31.256   6.737  0.00  0.00    +0.107 C 
ATOM     20  C   LIG    1       25.010 -31.132   5.774  0.00  0.00    +0.026 C 
ATOM     21  C   LIG    1       24.040 -30.010   6.176  0.00  0.00    +0.035 C 
BRANCH  19  22
ATOM     22  N   LIG    1       26.941 -32.501   6.527  0.00  0.00    -0.323 NA
ATOM     23  H   LIG    1       27.024 -33.057   7.374  0.00  0.00    +0.119 HD
ATOM     24  H   LIG    1       27.873 -32.336   6.156  0.00  0.00    +0.119 HD
ENDBRANCH  19  22
BRANCH  16  25
ATOM     25  C   LIG    1       25.070 -27.504   6.099  0.00  0.00    +0.079 C 
ATOM     26  C   LIG    1       26.195 -26.654   6.735  0.00  0.00    +0.026 C 
BRANCH  25  28
ATOM     27  C   LIG    1       23.974 -25.194   6.270  0.00  0.00    +0.101 C 
ATOM     28  N   LIG    1       23.882 -26.607   5.866  0.00  0.00    -0.314 NA
ATOM     29  H   LIG    1       23.081 -27.005   6.357  0.00  0.00    +0.122 HD
ENDBRANCH  25  28
ENDBRANCH  16  25
ENDBRANCH  15  18
ENDBRANCH   1  15
BRANCH   3  30
ATOM     30  O   LIG    1       24.589 -31.585  11.465  0.00  0.00    -0.341 OA
BRANCH  30  31
ATOM     31  C   LIG    1       25.453 -30.991  12.406  0.00  0.00    +0.281 C 
ATOM     32  C   LIG    1       24.807 -30.157  13.543  0.00  0.00    +0.190 C 
ATOM     33  C   LIG    1       25.178 -28.620  13.569  0.00  0.00    +0.121 C 
ATOM     34  C   LIG    1       26.680 -28.363  13.127  0.00  0.00    +0.104 C 
ATOM     35  C   LIG    1       26.923 -27.459  11.894  0.00  0.00    +0.045 C 
ATOM     36  C   LIG    1       27.380 -29.710  12.851  0.00  0.00    +0.199 C 
ATOM     37  O   LIG    1       26.641 -30.427  11.861  0.00  0.00    -0.346 OA
BRANCH  33  38
ATOM     38  N   LIG    1       24.099 -27.908  12.824  0.00  0.00    -0.311 NA
ATOM     39  H   LIG    1       23.379 -28.605  12.654  0.00  0.00    +0.122 HD
ATOM     40  C   LIG    1       23.505 -26.769  13.510  0.00  0.00    +0.101 C 
ENDBRANCH  33  38
BRANCH  32  41
ATOM     41  O   LIG    1       23.398 -30.335  13.709  0.00  0.00    -0.385 OA
ATOM     42  H   LIG    1       23.007 -30.264  12.812  0.00  0.00    +0.210 HD
ENDBRANCH  32  41
BRANCH  34  43
ATOM     43  O   LIG    1       27.345 -27.715  14.219  0.00  0.00    -0.385 OA
ATOM     44  H   LIG    1       26.660 -27.188  14.684  0.00  0.00    +0.210 HD
ENDBRANCH  34  43
ENDBRANCH  30  31
ENDBRANCH   3  30
TORSDOF 13
ENDMDL
MODEL 6
REMARK VINA RESULT:      -5.0      3.101      7.305
REMARK  Name = *****
REMARK                            x       y       z     vdW  Elec       q    Type
REMARK                         _______ _______ _______ _____ _____    ______ ____
ROOT
ATOM      1  C   LIG    1       25.350 -29.443  12.669  0.00  0.00    +0.169 C 
ATOM      2  C   LIG    1       26.150 -30.562  11.882  0.00  0.00    +0.175 C 
ATOM      3  C   LIG    1       26.132 -30.301  10.325  0.00  0.00    +0.169 C 
ATOM      4  C   LIG    1       26.915 -28.957  10.113  0.00  0.00    +0.084 C 
ATOM      5  C   LIG    1       26.476 -27.803  11.032  0.00  0.00    +0.042 C 
ATOM      6  C   LIG    1       26.293 -28.197  12.513  0.00  0.00    +0.084 C 
ENDROOT
BRANCH   4   7
ATOM      7  N   LIG    1       26.944 -28.465   8.739  0.00  0.00    -0.325 NA
ATOM      8  H   LIG    1       26.510 -29.182   8.151  0.00  0.00    +0.118 HD
ATOM      9  H   LIG    1       26.313 -27.670   8.622  0.00  0.00    +0.118 HD
ENDBRANCH   4   7
BRANCH   6  10
ATOM     10  N   LIG    1       25.887 -27.042  13.302  0.00  0.00    -0.325 NA
ATOM     11  H   LIG    1       26.432 -27.008  14.165  0.00  0.00    +0.118 HD
ATOM     12  H   LIG    1       26.145 -26.189  12.801  0.00  0.00    +0.118 HD
ENDBRANCH   6  10
BRANCH   2  13
ATOM     13  O   LIG    1       25.728 -31.843  12.253  0.00  0.00    -0.387 OA
ATOM     14  H   LIG    1       24.765 -31.792  12.312  0.00  0.00    +0.210 HD
ENDBRANCH   2  13
BRANCH   1  15
ATOM     15  O   LIG    1       23.993 -29.036  12.267  0.00  0.00    -0.342 OA
BRANCH  15  18
ATOM     16  C   LIG    1       21.386 -27.806  13.628  0.00  0.00    +0.138 C 
ATOM     17  O   LIG    1       21.546 -28.887  12.647  0.00  0.00    -0.345 OA
ATOM     18  C   LIG    1       22.794 -29.729  12.717  0.00  0.00    +0.268 C 
ATOM     19  C   LIG    1       22.768 -30.279  14.176  0.00  0.00    +0.107 C 
ATOM     20  C   LIG    1       23.069 -29.133  15.143  0.00  0.00    +0.026 C 
ATOM     21  C   LIG    1       22.576 -27.775  14.615  0.00  0.00    +0.035 C 
BRANCH  19  22
ATOM     22  N   LIG    1       23.496 -31.503  14.535  0.00  0.00    -0.323 NA
ATOM     23  H   LIG    1       24.180 -31.351  15.272  0.00  0.00    +0.119 HD
ATOM     24  H   LIG    1       23.967 -31.922  13.738  0.00  0.00    +0.119 HD
ENDBRANCH  19  22
BRANCH  16  25
ATOM     25  C   LIG    1       19.890 -27.552  14.326  0.00  0.00    +0.079 C 
ATOM     26  C   LIG    1       18.988 -28.808  14.366  0.00  0.00    +0.026 C 
BRANCH  25  28
ATOM     27  C   LIG    1       17.743 -26.198  13.975  0.00  0.00    +0.101 C 
ATOM     28  N   LIG    1       19.142 -26.463  13.601  0.00  0.00    -0.314 NA
ATOM     29  H   LIG    1       19.147 -26.682  12.604  0.00  0.00    +0.122 HD
ENDBRANCH  25  28
ENDBRANCH  16  25
ENDBRANCH  15  18
ENDBRANCH   1  15
BRANCH   3  30
ATOM     30  O   LIG    1       24.749 -30.343   9.997  0.00  0.00    -0.341 OA
BRANCH  30  31
ATOM     31  C   LIG    1       24.218 -30.866   8.802  0.00  0.00    +0.281 C 
ATOM     32  C   LIG    1       24.749 -32.244   8.327  0.00  0.00    +0.190 C 
ATOM     33  C   LIG    1       25.508 -32.251   6.940  0.00  0.00    +0.121 C 
ATOM     34  C   LIG    1       24.871 -31.229   5.909  0.00  0.00    +0.104 C 
ATOM     35  C   LIG    1       25.780 -30.103   5.356  0.00  0.00    +0.045 C 
ATOM     36  C   LIG    1       23.638 -30.550   6.541  0.00  0.00    +0.199 C 
ATOM     37  O   LIG    1       24.026 -29.916   7.760  0.00  0.00    -0.346 OA
BRANCH  33  38
ATOM     38  N   LIG    1       26.962 -32.120   7.248  0.00  0.00    -0.311 NA
ATOM     39  H   LIG    1       27.048 -32.309   8.243  0.00  0.00    +0.122 HD
ATOM     40  C   LIG    1       27.846 -33.015   6.515  0.00  0.00    +0.101 C 
ENDBRANCH  33  38
BRANCH  32  41
ATOM     41  O   LIG    1       25.483 -32.988   9.303  0.00  0.00    -0.385 OA
ATOM     42  H   LIG    1       25.004 -33.837   9.417  0.00  0.00    +0.210 HD
ENDBRANCH  32  41
BRANCH  34  43
ATOM     43  O   LIG    1       24.446 -31.979   4.764  0.00  0.00    -0.385 OA
ATOM     44  H   LIG    1       23.776 -31.428   4.306  0.00  0.00    +0.210 HD
ENDBRANCH  34  43
ENDBRANCH  30  31
ENDBRANCH   3  30
TORSDOF 13
ENDMDL
MODEL 7
REMARK VINA RESULT:      -4.9      2.511      6.825
REMARK  Name = *****
REMARK                            x       y       z     vdW  Elec       q    Type
REMARK                         _______ _______ _______ _____ _____    ______ ____
ROOT
ATOM      1  C   LIG    1       25.140 -30.024  14.402  0.00  0.00    +0.169 C 
ATOM      2  C   LIG    1       26.584 -30.470  13.924  0.00  0.00    +0.175 C 
ATOM      3  C   LIG    1       26.990 -29.769  12.569  0.00  0.00    +0.169 C 
ATOM      4  C   LIG    1       27.080 -28.236  12.898  0.00  0.00    +0.084 C 
ATOM      5  C   LIG    1       25.869 -27.668  13.659  0.00  0.00    +0.042 C 
ATOM      6  C   LIG    1       25.388 -28.536  14.840  0.00  0.00    +0.084 C 
ENDROOT
BRANCH   4   7
ATOM      7  N   LIG    1       27.354 -27.370  11.755  0.00  0.00    -0.325 NA
ATOM      8  H   LIG    1       27.590 -26.446  12.125  0.00  0.00    +0.118 HD
ATOM      9  H   LIG    1       28.216 -27.648  11.284  0.00  0.00    +0.118 HD
ENDBRANCH   4   7
BRANCH   6  10
ATOM     10  N   LIG    1       24.248 -27.915  15.500  0.00  0.00    -0.325 NA
ATOM     11  H   LIG    1       24.500 -26.973  15.804  0.00  0.00    +0.118 HD
ATOM     12  H   LIG    1       23.503 -27.773  14.813  0.00  0.00    +0.118 HD
ENDBRANCH   6  10
BRANCH   2  13
ATOM     13  O   LIG    1       26.704 -31.864  13.904  0.00  0.00    -0.387 OA
ATOM     14  H   LIG    1       27.308 -32.062  13.178  0.00  0.00    +0.210 HD
ENDBRANCH   2  13
BRANCH   1  15
ATOM     15  O   LIG    1       23.985 -30.040  13.488  0.00  0.00    -0.342 OA
BRANCH  15  18
ATOM     16  C   LIG    1       21.650 -31.226  11.671  0.00  0.00    +0.138 C 
ATOM     17  O   LIG    1       22.100 -31.584  13.022  0.00  0.00    -0.345 OA
ATOM     18  C   LIG    1       22.662 -30.492  13.895  0.00  0.00    +0.268 C 
ATOM     19  C   LIG    1       21.509 -29.443  13.935  0.00  0.00    +0.107 C 
ATOM     20  C   LIG    1       21.402 -28.771  12.566  0.00  0.00    +0.026 C 
ATOM     21  C   LIG    1       21.812 -29.709  11.418  0.00  0.00    +0.035 C 
BRANCH  19  22
ATOM     22  N   LIG    1       21.409 -28.471  15.031  0.00  0.00    -0.323 NA
ATOM     23  H   LIG    1       21.475 -28.905  15.948  0.00  0.00    +0.119 HD
ATOM     24  H   LIG    1       20.551 -27.928  14.992  0.00  0.00    +0.119 HD
ENDBRANCH  19  22
BRANCH  16  25
ATOM     25  C   LIG    1       20.234 -31.886  11.081  0.00  0.00    +0.079 C 
ATOM     26  C   LIG    1       20.445 -33.053  10.087  0.00  0.00    +0.026 C 
BRANCH  25  28
ATOM     27  C   LIG    1       18.118 -31.234   9.791  0.00  0.00    +0.101 C 
ATOM     28  N   LIG    1       19.400 -30.835  10.395  0.00  0.00    -0.314 NA
ATOM     29  H   LIG    1       19.961 -30.416   9.653  0.00  0.00    +0.122 HD
ENDBRANCH  25  28
ENDBRANCH  16  25
ENDBRANCH  15  18
ENDBRANCH   1  15
BRANCH   3  30
ATOM     30  O   LIG    1       25.995 -30.211  11.655  0.00  0.00    -0.341 OA
BRANCH  30  31
ATOM     31  C   LIG    1       26.220 -31.098  10.584  0.00  0.00    +0.281 C 
ATOM     32  C   LIG    1       26.647 -30.484   9.225  0.00  0.00    +0.190 C 
ATOM     33  C   LIG    1       25.644 -30.705   8.022  0.00  0.00    +0.121 C 
ATOM     34  C   LIG    1       24.943 -32.126   8.086  0.00  0.00    +0.104 C 
ATOM     35  C   LIG    1       23.397 -32.163   8.177  0.00  0.00    +0.045 C 
ATOM     36  C   LIG    1       25.489 -32.925   9.288  0.00  0.00    +0.199 C 
ATOM     37  O   LIG    1       25.287 -32.169  10.483  0.00  0.00    -0.346 OA
BRANCH  33  38
ATOM     38  N   LIG    1       24.771 -29.496   7.966  0.00  0.00    -0.311 NA
ATOM     39  H   LIG    1       25.233 -28.800   8.546  0.00  0.00    +0.122 HD
ATOM     40  C   LIG    1       24.549 -28.939   6.640  0.00  0.00    +0.101 C 
ENDBRANCH  33  38
BRANCH  32  41
ATOM     41  O   LIG    1       27.076 -29.121   9.275  0.00  0.00    -0.385 OA
ATOM     42  H   LIG    1       27.810 -29.043   8.628  0.00  0.00    +0.210 HD
ENDBRANCH  32  41
BRANCH  34  43
ATOM     43  O   LIG    1       25.275 -32.825   6.880  0.00  0.00    -0.385 OA
ATOM     44  H   LIG    1       25.003 -32.242   6.139  0.00  0.00    +0.210 HD
ENDBRANCH  34  43
ENDBRANCH  30  31
ENDBRANCH   3  30
TORSDOF 13
ENDMDL
MODEL 8
REMARK VINA RESULT:      -4.9      2.251      3.645
REMARK  Name = *****
REMARK                            x       y       z     vdW  Elec       q    Type
REMARK                         _______ _______ _______ _____ _____    ______ ____
ROOT
ATOM      1  C   LIG    1       25.701 -29.319   7.239  0.00  0.00    +0.169 C 
ATOM      2  C   LIG    1       26.052 -30.402   8.342  0.00  0.00    +0.175 C 
ATOM      3  C   LIG    1       25.052 -30.332   9.562  0.00  0.00    +0.169 C 
ATOM      4  C   LIG    1       23.647 -30.724   8.979  0.00  0.00    +0.084 C 
ATOM      5  C   LIG    1       23.253 -29.978   7.692  0.00  0.00    +0.042 C 
ATOM      6  C   LIG    1       24.370 -29.891   6.632  0.00  0.00    +0.084 C 
ENDROOT
BRANCH   4   7
ATOM      7  N   LIG    1       22.536 -30.635   9.922  0.00  0.00    -0.325 NA
ATOM      8  H   LIG    1       22.243 -29.655   9.953  0.00  0.00    +0.118 HD
ATOM      9  H   LIG    1       21.707 -31.104   9.554  0.00  0.00    +0.118 HD
ENDBRANCH   4   7
BRANCH   6  10
ATOM     10  N   LIG    1       23.902 -29.177   5.452  0.00  0.00    -0.325 NA
ATOM     11  H   LIG    1       23.586 -29.848   4.749  0.00  0.00    +0.118 HD
ATOM     12  H   LIG    1       23.062 -28.646   5.696  0.00  0.00    +0.118 HD
ENDBRANCH   6  10
BRANCH   2  13
ATOM     13  O   LIG    1       27.402 -30.338   8.704  0.00  0.00    -0.387 OA
ATOM     14  H   LIG    1       27.892 -30.308   7.873  0.00  0.00    +0.210 HD
ENDBRANCH   2  13
BRANCH   1  15
ATOM     15  O   LIG    1       25.469 -27.908   7.588  0.00  0.00    -0.342 OA
BRANCH  15  18
ATOM     16  C   LIG    1       24.685 -24.876   6.993  0.00  0.00    +0.138 C 
ATOM     17  O   LIG    1       25.889 -25.462   7.593  0.00  0.00    -0.345 OA
ATOM     18  C   LIG    1       26.324 -26.826   7.121  0.00  0.00    +0.268 C 
ATOM     19  C   LIG    1       26.487 -26.632   5.582  0.00  0.00    +0.107 C 
ATOM     20  C   LIG    1       25.103 -26.473   4.953  0.00  0.00    +0.026 C 
ATOM     21  C   LIG    1       24.097 -25.807   5.908  0.00  0.00    +0.035 C 
BRANCH  19  22
ATOM     22  N   LIG    1       27.347 -27.525   4.795  0.00  0.00    -0.323 NA
ATOM     23  H   LIG    1       27.456 -27.217   3.832  0.00  0.00    +0.119 HD
ATOM     24  H   LIG    1       27.009 -28.484   4.790  0.00  0.00    +0.119 HD
ENDBRANCH  19  22
BRANCH  16  25
ATOM     25  C   LIG    1       24.677 -23.252   6.601  0.00  0.00    +0.079 C 
ATOM     26  C   LIG    1       23.431 -22.485   7.103  0.00  0.00    +0.026 C 
BRANCH  25  28
ATOM     27  C   LIG    1       24.501 -21.729   4.547  0.00  0.00    +0.101 C 
ATOM     28  N   LIG    1       24.770 -23.063   5.109  0.00  0.00    -0.314 NA
ATOM     29  H   LIG    1       24.119 -23.710   4.664  0.00  0.00    +0.122 HD
ENDBRANCH  25  28
ENDBRANCH  16  25
ENDBRANCH  15  18
ENDBRANCH   1  15
BRANCH   3  30
ATOM     30  O   LIG    1       25.236 -29.017  10.068  0.00  0.00    -0.341 OA
BRANCH  30  31
ATOM     31  C   LIG    1       25.891 -28.700  11.274  0.00  0.00    +0.281 C 
ATOM     32  C   LIG    1       25.139 -29.004  12.596  0.00  0.00    +0.190 C 
ATOM     33  C   LIG    1       24.794 -27.751  13.498  0.00  0.00    +0.121 C 
ATOM     34  C   LIG    1       25.934 -26.650  13.448  0.00  0.00    +0.104 C 
ATOM     35  C   LIG    1       25.548 -25.237  12.944  0.00  0.00    +0.045 C 
ATOM     36  C   LIG    1       27.100 -27.146  12.567  0.00  0.00    +0.199 C 
ATOM     37  O   LIG    1       26.602 -27.467  11.268  0.00  0.00    -0.346 OA
BRANCH  33  38
ATOM     38  N   LIG    1       23.406 -27.338  13.141  0.00  0.00    -0.311 NA
ATOM     39  H   LIG    1       23.005 -28.128  12.642  0.00  0.00    +0.122 HD
ATOM     40  C   LIG    1       22.541 -26.995  14.261  0.00  0.00    +0.101 C 
ENDBRANCH  33  38
BRANCH  32  41
ATOM     41  O   LIG    1       24.001 -29.861  12.472  0.00  0.00    -0.385 OA
ATOM     42  H   LIG    1       23.315 -29.336  12.004  0.00  0.00    +0.210 HD
ENDBRANCH  32  41
BRANCH  34  43
ATOM     43  O   LIG    1       26.414 -26.466  14.786  0.00  0.00    -0.385 OA
ATOM     44  H   LIG    1       26.389 -25.499  14.956  0.00  0.00    +0.210 HD
ENDBRANCH  34  43
ENDBRANCH  30  31
ENDBRANCH   3  30
TORSDOF 13
ENDMDL
MODEL 9
REMARK VINA RESULT:      -4.6      3.079      7.265
REMARK  Name = *****
REMARK                            x       y       z     vdW  Elec       q    Type
REMARK                         _______ _______ _______ _____ _____    ______ ____
ROOT
ATOM      1  C   LIG    1       24.958 -30.794  12.530  0.00  0.00    +0.169 C 
ATOM      2  C   LIG    1       25.984 -31.591  11.621  0.00  0.00    +0.175 C 
ATOM      3  C   LIG    1       25.914 -31.118  10.116  0.00  0.00    +0.169 C 
ATOM      4  C   LIG    1       26.389 -29.621  10.122  0.00  0.00    +0.084 C 
ATOM      5  C   LIG    1       25.708 -28.733  11.179  0.00  0.00    +0.042 C 
ATOM      6  C   LIG    1       25.611 -29.366  12.583  0.00  0.00    +0.084 C 
ENDROOT
BRANCH   4   7
ATOM      7  N   LIG    1       26.315 -28.941   8.832  0.00  0.00    -0.325 NA
ATOM      8  H   LIG    1       27.239 -28.544   8.646  0.00  0.00    +0.118 HD
ATOM      9  H   LIG    1       26.202 -29.612   8.071  0.00  0.00    +0.118 HD
ENDBRANCH   4   7
BRANCH   6  10
ATOM     10  N   LIG    1       24.962 -28.451  13.512  0.00  0.00    -0.325 NA
ATOM     11  H   LIG    1       25.072 -28.799  14.467  0.00  0.00    +0.118 HD
ATOM     12  H   LIG    1       25.461 -27.559  13.504  0.00  0.00    +0.118 HD
ENDBRANCH   6  10
BRANCH   2  13
ATOM     13  O   LIG    1       25.848 -32.972  11.793  0.00  0.00    -0.387 OA
ATOM     14  H   LIG    1       26.249 -33.168  12.649  0.00  0.00    +0.210 HD
ENDBRANCH   2  13
BRANCH   1  15
ATOM     15  O   LIG    1       23.547 -30.632  12.143  0.00  0.00    -0.342 OA
BRANCH  15  18
ATOM     16  C   LIG    1       20.511 -31.199  11.355  0.00  0.00    +0.138 C 
ATOM     17  O   LIG    1       21.394 -31.851  12.330  0.00  0.00    -0.345 OA
ATOM     18  C   LIG    1       22.441 -31.008  13.012  0.00  0.00    +0.268 C 
ATOM     19  C   LIG    1       21.604 -29.867  13.669  0.00  0.00    +0.107 C 
ATOM     20  C   LIG    1       21.077 -28.944  12.571  0.00  0.00    +0.026 C 
ATOM     21  C   LIG    1       20.822 -29.688  11.250  0.00  0.00    +0.035 C 
BRANCH  19  22
ATOM     22  N   LIG    1       22.125 -29.113  14.816  0.00  0.00    -0.323 NA
ATOM     23  H   LIG    1       22.181 -28.114  14.635  0.00  0.00    +0.119 HD
ATOM     24  H   LIG    1       23.041 -29.439  15.112  0.00  0.00    +0.119 HD
ENDBRANCH  19  22
BRANCH  16  25
ATOM     25  C   LIG    1       18.885 -31.582  11.343  0.00  0.00    +0.079 C 
ATOM     26  C   LIG    1       18.202 -31.406   9.966  0.00  0.00    +0.026 C 
BRANCH  25  28
ATOM     27  C   LIG    1       18.010 -31.240  13.728  0.00  0.00    +0.101 C 
ATOM     28  N   LIG    1       18.133 -30.745  12.347  0.00  0.00    -0.314 NA
ATOM     29  H   LIG    1       17.186 -30.602  11.996  0.00  0.00    +0.122 HD
ENDBRANCH  25  28
ENDBRANCH  16  25
ENDBRANCH  15  18
ENDBRANCH   1  15
BRANCH   3  30
ATOM     30  O   LIG    1       24.575 -31.405   9.739  0.00  0.00    -0.341 OA
BRANCH  30  31
ATOM     31  C   LIG    1       24.175 -31.874   8.472  0.00  0.00    +0.281 C 
ATOM     32  C   LIG    1       24.931 -33.099   7.892  0.00  0.00    +0.190 C 
ATOM     33  C   LIG    1       25.732 -32.845   6.553  0.00  0.00    +0.121 C 
ATOM     34  C   LIG    1       24.983 -31.827   5.595  0.00  0.00    +0.104 C 
ATOM     35  C   LIG    1       25.726 -30.525   5.205  0.00  0.00    +0.045 C 
ATOM     36  C   LIG    1       23.636 -31.412   6.225  0.00  0.00    +0.199 C 
ATOM     37  O   LIG    1       23.877 -30.859   7.520  0.00  0.00    -0.346 OA
BRANCH  33  38
ATOM     38  N   LIG    1       27.136 -32.529   6.948  0.00  0.00    -0.311 NA
ATOM     39  H   LIG    1       27.195 -32.744   7.940  0.00  0.00    +0.122 HD
ATOM     40  C   LIG    1       28.172 -33.267   6.240  0.00  0.00    +0.101 C 
ENDBRANCH  33  38
BRANCH  32  41
ATOM     41  O   LIG    1       25.735 -33.822   8.828  0.00  0.00    -0.385 OA
ATOM     42  H   LIG    1       26.627 -33.413   8.794  0.00  0.00    +0.210 HD
ENDBRANCH  32  41
BRANCH  34  43
ATOM     43  O   LIG    1       24.722 -32.508   4.361  0.00  0.00    -0.385 OA
ATOM     44  H   LIG    1       24.953 -31.878   3.645  0.00  0.00    +0.210 HD
ENDBRANCH  34  43
ENDBRANCH  30  31
ENDBRANCH   3  30
TORSDOF 13
ENDMDL
