MODEL 1
REMARK VINA RESULT:      -6.2      0.000      0.000
REMARK  Name = *****
REMARK                            x       y       z     vdW  Elec       q    Type
REMARK                         _______ _______ _______ _____ _____    ______ ____
ROOT
ATOM      1  C   LIG    1       24.403 -29.350   7.587  0.00  0.00    +0.011 C 
ATOM      2  C   LIG    1       24.206 -30.460   8.618  0.00  0.00    +0.026 C 
ATOM      3  C   LIG    1       25.447 -30.800   9.498  0.00  0.00    +0.134 C 
ATOM      4  C   LIG    1       24.781 -31.458  10.756  0.00  0.00    +0.010 C 
ATOM      5  C   LIG    1       23.566 -30.526  11.019  0.00  0.00    +0.005 C 
ATOM      6  C   LIG    1       23.831 -29.258  11.891  0.00  0.00    +0.036 C 
ATOM      7  C   LIG    1       24.711 -29.524  13.136  0.00  0.00    +0.153 C 
ATOM      8  C   LIG    1       25.983 -30.309  12.757  0.00  0.00    +0.154 C 
ATOM      9  F   LIG    1       23.962 -30.376  13.930  0.00  0.00    -0.238 F 
ATOM     10  C   LIG    1       24.977 -28.196  13.988  0.00  0.00    +0.047 C 
ATOM     11  C   LIG    1       23.806 -27.221  13.788  0.00  0.00    -0.020 C 
ATOM     12  C   LIG    1       23.947 -25.893  13.635  0.00  0.00    +0.054 C 
ATOM     13  C   LIG    1       25.280 -25.263  13.561  0.00  0.00    +0.179 C 
ATOM     14  C   LIG    1       26.443 -26.172  13.508  0.00  0.00    +0.047 C 
ATOM     15  O   LIG    1       25.415 -24.052  13.487  0.00  0.00    -0.288 OA
ATOM     16  C   LIG    1       22.473 -27.884  13.627  0.00  0.00    +0.194 C 
ATOM     17  F   LIG    1       21.452 -26.981  13.610  0.00  0.00    -0.241 F 
ATOM     18  C   LIG    1       25.038 -28.539  15.500  0.00  0.00    +0.023 C 
ATOM     19  C   LIG    1       26.297 -27.493  13.679  0.00  0.00    -0.009 C 
ATOM     20  C   LIG    1       22.461 -28.635  12.298  0.00  0.00    +0.048 C 
ATOM     21  C   LIG    1       24.257 -32.889  10.432  0.00  0.00    +0.015 C 
ATOM     22  C   LIG    1       25.655 -31.598  12.015  0.00  0.00    +0.044 C 
ATOM     23  C   LIG    1       23.075 -30.121   9.609  0.00  0.00    +0.011 C 
ENDROOT
BRANCH   3  24
ATOM     24  O   LIG    1       26.091 -29.585   9.871  0.00  0.00    -0.380 OA
ATOM     25  H   LIG    1       26.109 -28.988   9.101  0.00  0.00    +0.211 HD
ENDBRANCH   3  24
BRANCH   3  26
ATOM     26  C   LIG    1       26.432 -31.744   8.749  0.00  0.00    +0.190 C 
ATOM     27  O   LIG    1       27.520 -32.076   9.231  0.00  0.00    -0.292 OA
BRANCH  26  28
ATOM     28  C   LIG    1       26.052 -32.226   7.350  0.00  0.00    +0.233 C 
BRANCH  28  29
ATOM     29  O   LIG    1       26.721 -31.550   6.306  0.00  0.00    -0.387 OA
ATOM     30  H   LIG    1       26.295 -31.814   5.471  0.00  0.00    +0.210 HD
ENDBRANCH  28  29
ENDBRANCH  26  28
ENDBRANCH   3  26
BRANCH   8  31
ATOM     31  O   LIG    1       26.731 -30.668  13.926  0.00  0.00    -0.389 OA
ATOM     32  H   LIG    1       27.660 -30.779  13.650  0.00  0.00    +0.210 HD
ENDBRANCH   8  31
TORSDOF 5
ENDMDL
MODEL 2
REMARK VINA RESULT:      -6.1      3.131      5.870
REMARK  Name = *****
REMARK                            x       y       z     vdW  Elec       q    Type
REMARK                         _______ _______ _______ _____ _____    ______ ____
ROOT
ATOM      1  C   LIG    1       20.795 -27.053  12.921  0.00  0.00    +0.011 C 
ATOM      2  C   LIG    1       21.426 -28.312  13.514  0.00  0.00    +0.026 C 
ATOM      3  C   LIG    1       21.166 -29.636  12.734  0.00  0.00    +0.134 C 
ATOM      4  C   LIG    1       22.368 -30.529  13.202  0.00  0.00    +0.010 C 
ATOM      5  C   LIG    1       23.561 -29.534  13.159  0.00  0.00    +0.005 C 
ATOM      6  C   LIG    1       24.288 -29.371  11.787  0.00  0.00    +0.036 C 
ATOM      7  C   LIG    1       24.545 -30.707  11.048  0.00  0.00    +0.153 C 
ATOM      8  C   LIG    1       23.262 -31.560  10.987  0.00  0.00    +0.154 C 
ATOM      9  F   LIG    1       25.426 -31.402  11.860  0.00  0.00    -0.238 F 
ATOM     10  C   LIG    1       25.271 -30.493   9.639  0.00  0.00    +0.047 C 
ATOM     11  C   LIG    1       26.110 -29.207   9.689  0.00  0.00    -0.020 C 
ATOM     12  C   LIG    1       26.195 -28.319   8.682  0.00  0.00    +0.054 C 
ATOM     13  C   LIG    1       25.399 -28.475   7.449  0.00  0.00    +0.179 C 
ATOM     14  C   LIG    1       24.396 -29.560   7.438  0.00  0.00    +0.047 C 
ATOM     15  O   LIG    1       25.519 -27.710   6.506  0.00  0.00    -0.288 OA
ATOM     16  C   LIG    1       26.731 -28.929  11.023  0.00  0.00    +0.194 C 
ATOM     17  F   LIG    1       27.588 -27.870  10.977  0.00  0.00    -0.241 F 
ATOM     18  C   LIG    1       26.243 -31.668   9.358  0.00  0.00    +0.023 C 
ATOM     19  C   LIG    1       24.329 -30.451   8.436  0.00  0.00    -0.009 C 
ATOM     20  C   LIG    1       25.620 -28.593  12.016  0.00  0.00    +0.048 C 
ATOM     21  C   LIG    1       22.171 -31.015  14.668  0.00  0.00    +0.015 C 
ATOM     22  C   LIG    1       22.666 -31.788  12.371  0.00  0.00    +0.044 C 
ATOM     23  C   LIG    1       22.958 -28.185  13.617  0.00  0.00    +0.011 C 
ENDROOT
BRANCH   3  24
ATOM     24  O   LIG    1       21.273 -29.374  11.337  0.00  0.00    -0.380 OA
ATOM     25  H   LIG    1       20.477 -28.893  11.045  0.00  0.00    +0.211 HD
ENDBRANCH   3  24
BRANCH   3  26
ATOM     26  C   LIG    1       19.773 -30.235  13.082  0.00  0.00    +0.190 C 
ATOM     27  O   LIG    1       19.154 -29.914  14.102  0.00  0.00    -0.292 OA
BRANCH  26  28
ATOM     28  C   LIG    1       19.186 -31.295  12.151  0.00  0.00    +0.233 C 
BRANCH  28  29
ATOM     29  O   LIG    1       18.954 -30.841  10.835  0.00  0.00    -0.387 OA
ATOM     30  H   LIG    1       19.824 -30.714  10.416  0.00  0.00    +0.210 HD
ENDBRANCH  28  29
ENDBRANCH  26  28
ENDBRANCH   3  26
BRANCH   8  31
ATOM     31  O   LIG    1       23.532 -32.850  10.421  0.00  0.00    -0.389 OA
ATOM     32  H   LIG    1       23.250 -33.515  11.076  0.00  0.00    +0.210 HD
ENDBRANCH   8  31
TORSDOF 5
ENDMDL
MODEL 3
REMARK VINA RESULT:      -5.8      2.784      4.451
REMARK  Name = *****
REMARK                            x       y       z     vdW  Elec       q    Type
REMARK                         _______ _______ _______ _____ _____    ______ ____
ROOT
ATOM      1  C   LIG    1       22.867 -33.441   6.549  0.00  0.00    +0.011 C 
ATOM      2  C   LIG    1       24.289 -33.151   7.025  0.00  0.00    +0.026 C 
ATOM      3  C   LIG    1       24.657 -31.645   7.192  0.00  0.00    +0.134 C 
ATOM      4  C   LIG    1       25.848 -31.714   8.210  0.00  0.00    +0.010 C 
ATOM      5  C   LIG    1       25.348 -32.765   9.241  0.00  0.00    +0.005 C 
ATOM      6  C   LIG    1       24.456 -32.233  10.406  0.00  0.00    +0.036 C 
ATOM      7  C   LIG    1       24.963 -30.913  11.036  0.00  0.00    +0.153 C 
ATOM      8  C   LIG    1       25.275 -29.865   9.948  0.00  0.00    +0.154 C 
ATOM      9  F   LIG    1       26.180 -31.236  11.612  0.00  0.00    -0.238 F 
ATOM     10  C   LIG    1       24.008 -30.392  12.209  0.00  0.00    +0.047 C 
ATOM     11  C   LIG    1       23.293 -31.590  12.852  0.00  0.00    -0.020 C 
ATOM     12  C   LIG    1       22.000 -31.589  13.224  0.00  0.00    +0.054 C 
ATOM     13  C   LIG    1       21.124 -30.432  12.957  0.00  0.00    +0.179 C 
ATOM     14  C   LIG    1       21.690 -29.345  12.130  0.00  0.00    +0.047 C 
ATOM     15  O   LIG    1       19.968 -30.397  13.348  0.00  0.00    -0.288 OA
ATOM     16  C   LIG    1       24.115 -32.841  12.908  0.00  0.00    +0.194 C 
ATOM     17  F   LIG    1       23.500 -33.825  13.623  0.00  0.00    -0.241 F 
ATOM     18  C   LIG    1       24.853 -29.710  13.317  0.00  0.00    +0.023 C 
ATOM     19  C   LIG    1       22.983 -29.345  11.779  0.00  0.00    -0.009 C 
ATOM     20  C   LIG    1       24.321 -33.351  11.484  0.00  0.00    +0.048 C 
ATOM     21  C   LIG    1       27.141 -32.253   7.529  0.00  0.00    +0.015 C 
ATOM     22  C   LIG    1       26.248 -30.402   8.906  0.00  0.00    +0.044 C 
ATOM     23  C   LIG    1       24.574 -33.801   8.393  0.00  0.00    +0.011 C 
ENDROOT
BRANCH   3  24
ATOM     24  O   LIG    1       23.554 -30.966   7.784  0.00  0.00    -0.380 OA
ATOM     25  H   LIG    1       23.165 -31.535   8.472  0.00  0.00    +0.211 HD
ENDBRANCH   3  24
BRANCH   3  26
ATOM     26  C   LIG    1       25.041 -31.001   5.828  0.00  0.00    +0.190 C 
ATOM     27  O   LIG    1       25.670 -31.618   4.963  0.00  0.00    -0.292 OA
BRANCH  26  28
ATOM     28  C   LIG    1       24.667 -29.540   5.586  0.00  0.00    +0.233 C 
BRANCH  28  29
ATOM     29  O   LIG    1       23.285 -29.323   5.394  0.00  0.00    -0.387 OA
ATOM     30  H   LIG    1       22.896 -30.170   5.111  0.00  0.00    +0.210 HD
ENDBRANCH  28  29
ENDBRANCH  26  28
ENDBRANCH   3  26
BRANCH   8  31
ATOM     31  O   LIG    1       25.868 -28.693  10.522  0.00  0.00    -0.389 OA
ATOM     32  H   LIG    1       25.302 -27.937  10.279  0.00  0.00    +0.210 HD
ENDBRANCH   8  31
TORSDOF 5
ENDMDL
MODEL 4
REMARK VINA RESULT:      -5.7      2.466      3.729
REMARK  Name = *****
REMARK                            x       y       z     vdW  Elec       q    Type
REMARK                         _______ _______ _______ _____ _____    ______ ____
ROOT
ATOM      1  C   LIG    1       22.380 -33.201   8.463  0.00  0.00    +0.011 C 
ATOM      2  C   LIG    1       23.886 -32.947   8.451  0.00  0.00    +0.026 C 
ATOM      3  C   LIG    1       24.326 -31.473   8.199  0.00  0.00    +0.134 C 
ATOM      4  C   LIG    1       25.760 -31.450   8.834  0.00  0.00    +0.010 C 
ATOM      5  C   LIG    1       25.556 -32.245  10.154  0.00  0.00    +0.005 C 
ATOM      6  C   LIG    1       25.056 -31.433  11.390  0.00  0.00    +0.036 C 
ATOM      7  C   LIG    1       25.760 -30.066  11.572  0.00  0.00    +0.153 C 
ATOM      8  C   LIG    1       25.768 -29.269  10.251  0.00  0.00    +0.154 C 
ATOM      9  F   LIG    1       27.083 -30.377  11.836  0.00  0.00    -0.238 F 
ATOM     10  C   LIG    1       25.203 -29.258  12.835  0.00  0.00    +0.047 C 
ATOM     11  C   LIG    1       24.676 -30.252  13.882  0.00  0.00    -0.020 C 
ATOM     12  C   LIG    1       23.548 -30.073  14.593  0.00  0.00    +0.054 C 
ATOM     13  C   LIG    1       22.663 -28.917  14.355  0.00  0.00    +0.179 C 
ATOM     14  C   LIG    1       22.990 -28.055  13.201  0.00  0.00    +0.047 C 
ATOM     15  O   LIG    1       21.673 -28.714  15.040  0.00  0.00    -0.288 OA
ATOM     16  C   LIG    1       25.445 -31.534  13.956  0.00  0.00    +0.194 C 
ATOM     17  F   LIG    1       25.041 -32.313  14.999  0.00  0.00    -0.241 F 
ATOM     18  C   LIG    1       26.351 -28.454  13.499  0.00  0.00    +0.023 C 
ATOM     19  C   LIG    1       24.124 -28.227  12.508  0.00  0.00    -0.009 C 
ATOM     20  C   LIG    1       25.213 -32.316  12.665  0.00  0.00    +0.048 C 
ATOM     21  C   LIG    1       26.783 -32.213   7.941  0.00  0.00    +0.015 C 
ATOM     22  C   LIG    1       26.379 -30.070   9.109  0.00  0.00    +0.044 C 
ATOM     23  C   LIG    1       24.541 -33.353   9.786  0.00  0.00    +0.011 C 
ENDROOT
BRANCH   3  24
ATOM     24  O   LIG    1       23.461 -30.606   8.927  0.00  0.00    -0.380 OA
ATOM     25  H   LIG    1       23.126 -31.079   9.711  0.00  0.00    +0.211 HD
ENDBRANCH   3  24
BRANCH   3  26
ATOM     26  C   LIG    1       24.311 -31.129   6.682  0.00  0.00    +0.190 C 
ATOM     27  O   LIG    1       24.416 -31.996   5.809  0.00  0.00    -0.292 OA
BRANCH  26  28
ATOM     28  C   LIG    1       24.216 -29.659   6.273  0.00  0.00    +0.233 C 
BRANCH  28  29
ATOM     29  O   LIG    1       23.168 -29.380   5.369  0.00  0.00    -0.387 OA
ATOM     30  H   LIG    1       22.347 -29.314   5.890  0.00  0.00    +0.210 HD
ENDBRANCH  28  29
ENDBRANCH  26  28
ENDBRANCH   3  26
BRANCH   8  31
ATOM     31  O   LIG    1       26.532 -28.064  10.386  0.00  0.00    -0.389 OA
ATOM     32  H   LIG    1       26.918 -28.068  11.281  0.00  0.00    +0.210 HD
ENDBRANCH   8  31
TORSDOF 5
ENDMDL
MODEL 5
REMARK VINA RESULT:      -5.7      3.727      6.126
REMARK  Name = *****
REMARK                            x       y       z     vdW  Elec       q    Type
REMARK                         _______ _______ _______ _____ _____    ______ ____
ROOT
ATOM      1  C   LIG    1       20.566 -29.385  12.268  0.00  0.00    +0.011 C 
ATOM      2  C   LIG    1       21.496 -30.587  12.417  0.00  0.00    +0.026 C 
ATOM      3  C   LIG    1       21.392 -31.671  11.302  0.00  0.00    +0.134 C 
ATOM      4  C   LIG    1       22.792 -32.371  11.399  0.00  0.00    +0.010 C 
ATOM      5  C   LIG    1       23.759 -31.166  11.566  0.00  0.00    +0.005 C 
ATOM      6  C   LIG    1       24.255 -30.479  10.255  0.00  0.00    +0.036 C 
ATOM      7  C   LIG    1       24.662 -31.472   9.139  0.00  0.00    +0.153 C 
ATOM      8  C   LIG    1       23.567 -32.536   8.921  0.00  0.00    +0.154 C 
ATOM      9  F   LIG    1       25.757 -32.151   9.645  0.00  0.00    -0.238 F 
ATOM     10  C   LIG    1       25.141 -30.727   7.807  0.00  0.00    +0.047 C 
ATOM     11  C   LIG    1       25.721 -29.353   8.174  0.00  0.00    -0.020 C 
ATOM     12  C   LIG    1       25.503 -28.227   7.470  0.00  0.00    +0.054 C 
ATOM     13  C   LIG    1       24.595 -28.211   6.306  0.00  0.00    +0.179 C 
ATOM     14  C   LIG    1       23.824 -29.444   6.047  0.00  0.00    +0.047 C 
ATOM     15  O   LIG    1       24.443 -27.211   5.624  0.00  0.00    -0.288 OA
ATOM     16  C   LIG    1       26.447 -29.320   9.483  0.00  0.00    +0.194 C 
ATOM     17  F   LIG    1       27.075 -28.128   9.690  0.00  0.00    -0.241 F 
ATOM     18  C   LIG    1       26.274 -31.538   7.124  0.00  0.00    +0.023 C 
ATOM     19  C   LIG    1       24.059 -30.566   6.741  0.00  0.00    -0.009 C 
ATOM     20  C   LIG    1       25.433 -29.521  10.607  0.00  0.00    +0.048 C 
ATOM     21  C   LIG    1       22.886 -33.271  12.667  0.00  0.00    +0.015 C 
ATOM     22  C   LIG    1       23.212 -33.258  10.215  0.00  0.00    +0.044 C 
ATOM     23  C   LIG    1       22.977 -30.160  12.443  0.00  0.00    +0.011 C 
ENDROOT
BRANCH   3  24
ATOM     24  O   LIG    1       21.263 -31.021  10.041  0.00  0.00    -0.380 OA
ATOM     25  H   LIG    1       20.960 -30.106  10.187  0.00  0.00    +0.211 HD
ENDBRANCH   3  24
BRANCH   3  26
ATOM     26  C   LIG    1       20.196 -32.634  11.557  0.00  0.00    +0.190 C 
ATOM     27  O   LIG    1       19.708 -32.794  12.680  0.00  0.00    -0.292 OA
BRANCH  26  28
ATOM     28  C   LIG    1       19.651 -33.441  10.380  0.00  0.00    +0.233 C 
BRANCH  28  29
ATOM     29  O   LIG    1       18.733 -32.734   9.572  0.00  0.00    -0.387 OA
ATOM     30  H   LIG    1       17.893 -33.227   9.591  0.00  0.00    +0.210 HD
ENDBRANCH  28  29
ENDBRANCH  26  28
ENDBRANCH   3  26
BRANCH   8  31
ATOM     31  O   LIG    1       24.000 -33.530   7.982  0.00  0.00    -0.389 OA
ATOM     32  H   LIG    1       24.468 -33.063   7.266  0.00  0.00    +0.210 HD
ENDBRANCH   8  31
TORSDOF 5
ENDMDL
MODEL 6
REMARK VINA RESULT:      -5.2      2.034      3.310
REMARK  Name = *****
REMARK                            x       y       z     vdW  Elec       q    Type
REMARK                         _______ _______ _______ _____ _____    ______ ____
ROOT
ATOM      1  C   LIG    1       25.482 -29.443   5.610  0.00  0.00    +0.011 C 
ATOM      2  C   LIG    1       24.888 -30.780   6.050  0.00  0.00    +0.026 C 
ATOM      3  C   LIG    1       25.852 -31.731   6.824  0.00  0.00    +0.134 C 
ATOM      4  C   LIG    1       24.845 -32.639   7.613  0.00  0.00    +0.010 C 
ATOM      5  C   LIG    1       23.795 -31.613   8.122  0.00  0.00    +0.005 C 
ATOM      6  C   LIG    1       24.115 -30.892   9.469  0.00  0.00    +0.036 C 
ATOM      7  C   LIG    1       24.674 -31.829  10.567  0.00  0.00    +0.153 C 
ATOM      8  C   LIG    1       25.829 -32.693  10.021  0.00  0.00    +0.154 C 
ATOM      9  F   LIG    1       23.641 -32.708  10.847  0.00  0.00    -0.238 F 
ATOM     10  C   LIG    1       25.010 -31.047  11.922  0.00  0.00    +0.047 C 
ATOM     11  C   LIG    1       24.100 -29.814  12.036  0.00  0.00    -0.020 C 
ATOM     12  C   LIG    1       24.510 -28.610  12.473  0.00  0.00    +0.054 C 
ATOM     13  C   LIG    1       25.925 -28.352  12.805  0.00  0.00    +0.179 C 
ATOM     14  C   LIG    1       26.888 -29.427  12.490  0.00  0.00    +0.047 C 
ATOM     15  O   LIG    1       26.293 -27.282  13.263  0.00  0.00    -0.288 OA
ATOM     16  C   LIG    1       22.725 -30.010  11.478  0.00  0.00    +0.194 C 
ATOM     17  F   LIG    1       21.910 -28.950  11.741  0.00  0.00    -0.241 F 
ATOM     18  C   LIG    1       24.713 -31.954  13.145  0.00  0.00    +0.023 C 
ATOM     19  C   LIG    1       26.472 -30.630  12.072  0.00  0.00    -0.009 C 
ATOM     20  C   LIG    1       22.831 -30.157   9.962  0.00  0.00    +0.048 C 
ATOM     21  C   LIG    1       24.139 -33.653   6.665  0.00  0.00    +0.015 C 
ATOM     22  C   LIG    1       25.418 -33.468   8.775  0.00  0.00    +0.044 C 
ATOM     23  C   LIG    1       23.669 -30.584   6.973  0.00  0.00    +0.011 C 
ENDROOT
BRANCH   3  24
ATOM     24  O   LIG    1       26.624 -30.957   7.738  0.00  0.00    -0.380 OA
ATOM     25  H   LIG    1       27.372 -31.496   8.054  0.00  0.00    +0.211 HD
ENDBRANCH   3  24
BRANCH   3  26
ATOM     26  C   LIG    1       26.771 -32.521   5.849  0.00  0.00    +0.190 C 
ATOM     27  O   LIG    1       26.498 -32.660   4.653  0.00  0.00    -0.292 OA
BRANCH  26  28
ATOM     28  C   LIG    1       28.024 -33.189   6.415  0.00  0.00    +0.233 C 
BRANCH  28  29
ATOM     29  O   LIG    1       28.829 -33.820   5.442  0.00  0.00    -0.387 OA
ATOM     30  H   LIG    1       28.272 -34.478   4.988  0.00  0.00    +0.210 HD
ENDBRANCH  28  29
ENDBRANCH  26  28
ENDBRANCH   3  26
BRANCH   8  31
ATOM     31  O   LIG    1       26.258 -33.651  10.998  0.00  0.00    -0.389 OA
ATOM     32  H   LIG    1       25.518 -33.775  11.621  0.00  0.00    +0.210 HD
ENDBRANCH   8  31
TORSDOF 5
ENDMDL
MODEL 7
REMARK VINA RESULT:      -4.8      2.344      2.974
REMARK  Name = *****
REMARK                            x       y       z     vdW  Elec       q    Type
REMARK                         _______ _______ _______ _____ _____    ______ ____
ROOT
ATOM      1  C   LIG    1       23.733 -30.844   7.657  0.00  0.00    +0.011 C 
ATOM      2  C   LIG    1       24.106 -31.767   8.816  0.00  0.00    +0.026 C 
ATOM      3  C   LIG    1       25.077 -31.168   9.878  0.00  0.00    +0.134 C 
ATOM      4  C   LIG    1       24.767 -32.054  11.135  0.00  0.00    +0.010 C 
ATOM      5  C   LIG    1       23.216 -32.147  11.106  0.00  0.00    +0.005 C 
ATOM      6  C   LIG    1       22.432 -30.988  11.797  0.00  0.00    +0.036 C 
ATOM      7  C   LIG    1       23.018 -30.558  13.164  0.00  0.00    +0.153 C 
ATOM      8  C   LIG    1       24.539 -30.321  13.062  0.00  0.00    +0.154 C 
ATOM      9  F   LIG    1       22.860 -31.662  13.986  0.00  0.00    -0.238 F 
ATOM     10  C   LIG    1       22.199 -29.354  13.827  0.00  0.00    +0.047 C 
ATOM     11  C   LIG    1       20.743 -29.403  13.342  0.00  0.00    -0.020 C 
ATOM     12  C   LIG    1       20.021 -28.320  13.003  0.00  0.00    +0.054 C 
ATOM     13  C   LIG    1       20.619 -26.970  12.991  0.00  0.00    +0.179 C 
ATOM     14  C   LIG    1       22.076 -26.886  13.216  0.00  0.00    +0.047 C 
ATOM     15  O   LIG    1       19.954 -25.975  12.748  0.00  0.00    -0.288 OA
ATOM     16  C   LIG    1       20.211 -30.787  13.129  0.00  0.00    +0.194 C 
ATOM     17  F   LIG    1       18.876 -30.785  12.853  0.00  0.00    -0.241 F 
ATOM     18  C   LIG    1       22.178 -29.513  15.370  0.00  0.00    +0.023 C 
ATOM     19  C   LIG    1       22.785 -27.967  13.570  0.00  0.00    -0.009 C 
ATOM     20  C   LIG    1       20.937 -31.409  11.939  0.00  0.00    +0.048 C 
ATOM     21  C   LIG    1       25.360 -33.485  10.976  0.00  0.00    +0.015 C 
ATOM     22  C   LIG    1       25.266 -31.534  12.495  0.00  0.00    +0.044 C 
ATOM     23  C   LIG    1       22.860 -32.221   9.603  0.00  0.00    +0.011 C 
ENDROOT
BRANCH   3  24
ATOM     24  O   LIG    1       24.702 -29.818  10.133  0.00  0.00    -0.380 OA
ATOM     25  H   LIG    1       23.761 -29.703   9.908  0.00  0.00    +0.211 HD
ENDBRANCH   3  24
BRANCH   3  26
ATOM     26  C   LIG    1       26.557 -31.255   9.405  0.00  0.00    +0.190 C 
ATOM     27  O   LIG    1       26.952 -32.138   8.637  0.00  0.00    -0.292 OA
BRANCH  26  28
ATOM     28  C   LIG    1       27.556 -30.240   9.959  0.00  0.00    +0.233 C 
BRANCH  28  29
ATOM     29  O   LIG    1       27.432 -28.948   9.403  0.00  0.00    -0.387 OA
ATOM     30  H   LIG    1       27.808 -28.983   8.505  0.00  0.00    +0.210 HD
ENDBRANCH  28  29
ENDBRANCH  26  28
ENDBRANCH   3  26
BRANCH   8  31
ATOM     31  O   LIG    1       25.103 -30.052  14.353  0.00  0.00    -0.389 OA
ATOM     32  H   LIG    1       24.361 -29.989  14.982  0.00  0.00    +0.210 HD
ENDBRANCH   8  31
TORSDOF 5
ENDMDL
MODEL 8
REMARK VINA RESULT:      -4.5      2.873      4.786
REMARK  Name = *****
REMARK                            x       y       z     vdW  Elec       q    Type
REMARK                         _______ _______ _______ _____ _____    ______ ____
ROOT
ATOM      1  C   LIG    1       27.660 -33.574   8.395  0.00  0.00    +0.011 C 
ATOM      2  C   LIG    1       26.999 -32.228   8.102  0.00  0.00    +0.026 C 
ATOM      3  C   LIG    1       25.447 -32.249   7.958  0.00  0.00    +0.134 C 
ATOM      4  C   LIG    1       25.073 -30.759   8.277  0.00  0.00    +0.010 C 
ATOM      5  C   LIG    1       25.982 -30.439   9.496  0.00  0.00    +0.005 C 
ATOM      6  C   LIG    1       25.427 -30.822  10.904  0.00  0.00    +0.036 C 
ATOM      7  C   LIG    1       23.935 -30.465  11.111  0.00  0.00    +0.153 C 
ATOM      8  C   LIG    1       23.077 -30.971   9.932  0.00  0.00    +0.154 C 
ATOM      9  F   LIG    1       23.885 -29.082  11.050  0.00  0.00    -0.238 F 
ATOM     10  C   LIG    1       23.401 -30.895  12.556  0.00  0.00    +0.047 C 
ATOM     11  C   LIG    1       24.571 -30.891  13.551  0.00  0.00    -0.020 C 
ATOM     12  C   LIG    1       24.760 -31.826  14.500  0.00  0.00    +0.054 C 
ATOM     13  C   LIG    1       23.881 -33.006  14.603  0.00  0.00    +0.179 C 
ATOM     14  C   LIG    1       22.884 -33.190  13.528  0.00  0.00    +0.047 C 
ATOM     15  O   LIG    1       24.006 -33.825  15.500  0.00  0.00    -0.288 OA
ATOM     16  C   LIG    1       25.593 -29.826  13.297  0.00  0.00    +0.194 C 
ATOM     17  F   LIG    1       26.523 -29.762  14.291  0.00  0.00    -0.241 F 
ATOM     18  C   LIG    1       22.359 -29.865  13.065  0.00  0.00    +0.023 C 
ATOM     19  C   LIG    1       22.688 -32.246  12.597  0.00  0.00    -0.009 C 
ATOM     20  C   LIG    1       26.318 -30.150  11.993  0.00  0.00    +0.048 C 
ATOM     21  C   LIG    1       25.459 -29.817   7.099  0.00  0.00    +0.015 C 
ATOM     22  C   LIG    1       23.597 -30.464   8.593  0.00  0.00    +0.044 C 
ATOM     23  C   LIG    1       27.299 -31.196   9.207  0.00  0.00    +0.011 C 
ENDROOT
BRANCH   3  24
ATOM     24  O   LIG    1       24.905 -33.109   8.956  0.00  0.00    -0.380 OA
ATOM     25  H   LIG    1       25.622 -33.391   9.553  0.00  0.00    +0.211 HD
ENDBRANCH   3  24
BRANCH   3  26
ATOM     26  C   LIG    1       25.016 -32.708   6.535  0.00  0.00    +0.190 C 
ATOM     27  O   LIG    1       25.827 -32.841   5.613  0.00  0.00    -0.292 OA
BRANCH  26  28
ATOM     28  C   LIG    1       23.531 -32.947   6.268  0.00  0.00    +0.233 C 
BRANCH  28  29
ATOM     29  O   LIG    1       22.955 -32.034   5.358  0.00  0.00    -0.387 OA
ATOM     30  H   LIG    1       22.016 -32.275   5.262  0.00  0.00    +0.210 HD
ENDBRANCH  28  29
ENDBRANCH  26  28
ENDBRANCH   3  26
BRANCH   8  31
ATOM     31  O   LIG    1       21.720 -30.528  10.060  0.00  0.00    -0.389 OA
ATOM     32  H   LIG    1       21.194 -31.022   9.405  0.00  0.00    +0.210 HD
ENDBRANCH   8  31
TORSDOF 5
ENDMDL
MODEL 9
REMARK VINA RESULT:      -4.5      2.698      5.429
REMARK  Name = *****
REMARK                            x       y       z     vdW  Elec       q    Type
REMARK                         _______ _______ _______ _____ _____    ______ ____
ROOT
ATOM      1  C   LIG    1       26.822 -28.130  15.322  0.00  0.00    +0.011 C 
ATOM      2  C   LIG    1       26.665 -27.973  13.811  0.00  0.00    +0.026 C 
ATOM      3  C   LIG    1       26.871 -29.268  12.967  0.00  0.00    +0.134 C 
ATOM      4  C   LIG    1       26.080 -28.929  11.656  0.00  0.00    +0.010 C 
ATOM      5  C   LIG    1       24.789 -28.261  12.207  0.00  0.00    +0.005 C 
ATOM      6  C   LIG    1       23.619 -29.217  12.599  0.00  0.00    +0.036 C 
ATOM      7  C   LIG    1       23.363 -30.353  11.578  0.00  0.00    +0.153 C 
ATOM      8  C   LIG    1       24.677 -31.075  11.216  0.00  0.00    +0.154 C 
ATOM      9  F   LIG    1       22.952 -29.710  10.423  0.00  0.00    -0.238 F 
ATOM     10  C   LIG    1       22.173 -31.321  12.030  0.00  0.00    +0.047 C 
ATOM     11  C   LIG    1       21.189 -30.539  12.913  0.00  0.00    -0.020 C 
ATOM     12  C   LIG    1       20.609 -31.035  14.021  0.00  0.00    +0.054 C 
ATOM     13  C   LIG    1       20.948 -32.377  14.533  0.00  0.00    +0.179 C 
ATOM     14  C   LIG    1       22.061 -33.082  13.864  0.00  0.00    +0.047 C 
ATOM     15  O   LIG    1       20.379 -32.859  15.500  0.00  0.00    -0.288 OA
ATOM     16  C   LIG    1       21.025 -29.101  12.529  0.00  0.00    +0.194 C 
ATOM     17  F   LIG    1       20.031 -28.493  13.237  0.00  0.00    -0.241 F 
ATOM     18  C   LIG    1       21.387 -31.811  10.786  0.00  0.00    +0.023 C 
ATOM     19  C   LIG    1       22.622 -32.591  12.751  0.00  0.00    -0.009 C 
ATOM     20  C   LIG    1       22.331 -28.367  12.823  0.00  0.00    +0.048 C 
ATOM     21  C   LIG    1       26.850 -27.892  10.786  0.00  0.00    +0.015 C 
ATOM     22  C   LIG    1       25.741 -30.103  10.722  0.00  0.00    +0.044 C 
ATOM     23  C   LIG    1       25.264 -27.452  13.436  0.00  0.00    +0.011 C 
ENDROOT
BRANCH   3  24
ATOM     24  O   LIG    1       26.247 -30.358  13.640  0.00  0.00    -0.380 OA
ATOM     25  H   LIG    1       25.407 -30.567  13.192  0.00  0.00    +0.211 HD
ENDBRANCH   3  24
BRANCH   3  26
ATOM     26  C   LIG    1       28.381 -29.554  12.727  0.00  0.00    +0.190 C 
ATOM     27  O   LIG    1       28.850 -29.705  11.594  0.00  0.00    -0.292 OA
BRANCH  26  28
ATOM     28  C   LIG    1       29.294 -29.703  13.943  0.00  0.00    +0.233 C 
BRANCH  28  29
ATOM     29  O   LIG    1       29.005 -30.829  14.745  0.00  0.00    -0.387 OA
ATOM     30  H   LIG    1       29.817 -31.366  14.792  0.00  0.00    +0.210 HD
ENDBRANCH  28  29
ENDBRANCH  26  28
ENDBRANCH   3  26
BRANCH   8  31
ATOM     31  O   LIG    1       24.461 -32.037  10.174  0.00  0.00    -0.389 OA
ATOM     32  H   LIG    1       23.857 -32.714  10.531  0.00  0.00    +0.210 HD
ENDBRANCH   8  31
TORSDOF 5
ENDMDL
