MODEL 1
REMARK VINA RESULT:      -5.6      0.000      0.000
REMARK  Name = *****
REMARK                            x       y       z     vdW  Elec       q    Type
REMARK                         _______ _______ _______ _____ _____    ______ ____
ROOT
ATOM      1  C   LIG    1       23.749 -20.447   5.159  0.00  0.00    +0.282 A 
ATOM      2  C   LIG    1       25.110 -20.498   5.560  0.00  0.00    +0.081 A 
ATOM      3  C   LIG    1       26.034 -19.695   4.855  0.00  0.00    +0.119 A 
ATOM      4  N   LIG    1       27.348 -19.683   5.173  0.00  0.00    -0.251 NA
ATOM      5  C   LIG    1       27.792 -20.450   6.187  0.00  0.00    +0.111 A 
ATOM      6  C   LIG    1       26.975 -21.261   6.940  0.00  0.00    +0.020 A 
ATOM      7  C   LIG    1       25.553 -18.890   3.805  0.00  0.00    +0.143 A 
ATOM      8  C   LIG    1       24.206 -18.848   3.432  0.00  0.00    +0.054 A 
ATOM      9  C   LIG    1       25.622 -21.283   6.624  0.00  0.00    +0.018 A 
ATOM     10  C   LIG    1       23.291 -19.633   4.116  0.00  0.00    +0.088 A 
ENDROOT
BRANCH   1  12
ATOM     11  O   LIG    1       22.984 -21.569   7.010  0.00  0.00    +0.042 OA
ATOM     12  N   LIG    1       22.750 -21.257   5.835  0.00  0.00    +0.080 N 
ATOM     13  O   LIG    1       21.727 -21.548   5.202  0.00  0.00    -0.576 OA
ENDBRANCH   1  12
BRANCH   7  14
ATOM     14  O   LIG    1       26.446 -18.103   3.112  0.00  0.00    -0.505 OA
ATOM     15  H   LIG    1       26.262 -18.147   2.162  0.00  0.00    +0.292 HD
ENDBRANCH   7  14
TORSDOF 2
ENDMDL
MODEL 2
REMARK VINA RESULT:      -5.0      2.283      2.946
REMARK  Name = *****
REMARK                            x       y       z     vdW  Elec       q    Type
REMARK                         _______ _______ _______ _____ _____    ______ ____
ROOT
ATOM      1  C   LIG    1       23.425 -18.611   4.259  0.00  0.00    +0.282 A 
ATOM      2  C   LIG    1       23.689 -19.618   5.225  0.00  0.00    +0.081 A 
ATOM      3  C   LIG    1       24.998 -20.146   5.284  0.00  0.00    +0.119 A 
ATOM      4  N   LIG    1       25.334 -21.106   6.175  0.00  0.00    -0.251 NA
ATOM      5  C   LIG    1       24.403 -21.572   7.030  0.00  0.00    +0.111 A 
ATOM      6  C   LIG    1       23.104 -21.121   7.059  0.00  0.00    +0.020 A 
ATOM      7  C   LIG    1       25.962 -19.640   4.392  0.00  0.00    +0.143 A 
ATOM      8  C   LIG    1       25.683 -18.642   3.454  0.00  0.00    +0.054 A 
ATOM      9  C   LIG    1       22.745 -20.134   6.149  0.00  0.00    +0.018 A 
ATOM     10  C   LIG    1       24.402 -18.118   3.386  0.00  0.00    +0.088 A 
ENDROOT
BRANCH   1  12
ATOM     11  O   LIG    1       21.944 -16.885   4.569  0.00  0.00    +0.042 OA
ATOM     12  N   LIG    1       22.097 -18.035   4.138  0.00  0.00    +0.080 N 
ATOM     13  O   LIG    1       21.226 -18.719   3.586  0.00  0.00    -0.576 OA
ENDBRANCH   1  12
BRANCH   7  14
ATOM     14  O   LIG    1       27.240 -20.149   4.443  0.00  0.00    -0.505 OA
ATOM     15  H   LIG    1       27.845 -19.584   3.937  0.00  0.00    +0.292 HD
ENDBRANCH   7  14
TORSDOF 2
ENDMDL
MODEL 3
REMARK VINA RESULT:      -4.8      1.362      1.651
REMARK  Name = *****
REMARK                            x       y       z     vdW  Elec       q    Type
REMARK                         _______ _______ _______ _____ _____    ______ ____
ROOT
ATOM      1  C   LIG    1       24.832 -19.832   4.499  0.00  0.00    +0.282 A 
ATOM      2  C   LIG    1       25.913 -20.225   5.331  0.00  0.00    +0.081 A 
ATOM      3  C   LIG    1       27.130 -19.517   5.205  0.00  0.00    +0.119 A 
ATOM      4  N   LIG    1       28.208 -19.826   5.960  0.00  0.00    -0.251 NA
ATOM      5  C   LIG    1       28.125 -20.828   6.857  0.00  0.00    +0.111 A 
ATOM      6  C   LIG    1       26.987 -21.572   7.062  0.00  0.00    +0.020 A 
ATOM      7  C   LIG    1       27.197 -18.466   4.272  0.00  0.00    +0.143 A 
ATOM      8  C   LIG    1       26.116 -18.090   3.468  0.00  0.00    +0.054 A 
ATOM      9  C   LIG    1       25.871 -21.266   6.293  0.00  0.00    +0.018 A 
ATOM     10  C   LIG    1       24.918 -18.777   3.582  0.00  0.00    +0.088 A 
ENDROOT
BRANCH   1  12
ATOM     11  O   LIG    1       23.451 -21.572   3.917  0.00  0.00    +0.042 OA
ATOM     12  N   LIG    1       23.557 -20.525   4.570  0.00  0.00    +0.080 N 
ATOM     13  O   LIG    1       22.684 -20.040   5.301  0.00  0.00    -0.576 OA
ENDBRANCH   1  12
BRANCH   7  14
ATOM     14  O   LIG    1       28.379 -17.771   4.143  0.00  0.00    -0.505 OA
ATOM     15  H   LIG    1       28.256 -16.849   4.414  0.00  0.00    +0.292 HD
ENDBRANCH   7  14
TORSDOF 2
ENDMDL
MODEL 4
REMARK VINA RESULT:      -4.7      1.855      4.688
REMARK  Name = *****
REMARK                            x       y       z     vdW  Elec       q    Type
REMARK                         _______ _______ _______ _____ _____    ______ ____
ROOT
ATOM      1  C   LIG    1       26.808 -20.344   5.951  0.00  0.00    +0.282 A 
ATOM      2  C   LIG    1       25.901 -19.791   5.009  0.00  0.00    +0.081 A 
ATOM      3  C   LIG    1       24.541 -20.160   5.111  0.00  0.00    +0.119 A 
ATOM      4  N   LIG    1       23.611 -19.678   4.256  0.00  0.00    -0.251 NA
ATOM      5  C   LIG    1       23.984 -18.823   3.283  0.00  0.00    +0.111 A 
ATOM      6  C   LIG    1       25.279 -18.396   3.103  0.00  0.00    +0.020 A 
ATOM      7  C   LIG    1       24.165 -21.045   6.139  0.00  0.00    +0.143 A 
ATOM      8  C   LIG    1       25.074 -21.571   7.062  0.00  0.00    +0.054 A 
ATOM      9  C   LIG    1       26.244 -18.883   3.975  0.00  0.00    +0.018 A 
ATOM     10  C   LIG    1       26.411 -21.217   6.971  0.00  0.00    +0.088 A 
ENDROOT
BRANCH   1  12
ATOM     11  O   LIG    1       28.523 -18.921   5.396  0.00  0.00    +0.042 OA
ATOM     12  N   LIG    1       28.222 -20.014   5.894  0.00  0.00    +0.080 N 
ATOM     13  O   LIG    1       29.018 -20.830   6.376  0.00  0.00    -0.576 OA
ENDBRANCH   1  12
BRANCH   7  14
ATOM     14  O   LIG    1       22.842 -21.410   6.246  0.00  0.00    -0.505 OA
ATOM     15  H   LIG    1       22.415 -21.379   5.377  0.00  0.00    +0.292 HD
ENDBRANCH   7  14
TORSDOF 2
ENDMDL
MODEL 5
REMARK VINA RESULT:      -4.4      1.853      3.121
REMARK  Name = *****
REMARK                            x       y       z     vdW  Elec       q    Type
REMARK                         _______ _______ _______ _____ _____    ______ ____
ROOT
ATOM      1  C   LIG    1       23.255 -20.462   5.386  0.00  0.00    +0.282 A 
ATOM      2  C   LIG    1       24.387 -19.836   4.800  0.00  0.00    +0.081 A 
ATOM      3  C   LIG    1       25.651 -20.089   5.377  0.00  0.00    +0.119 A 
ATOM      4  N   LIG    1       26.780 -19.535   4.880  0.00  0.00    -0.251 NA
ATOM      5  C   LIG    1       26.703 -18.724   3.806  0.00  0.00    +0.111 A 
ATOM      6  C   LIG    1       25.525 -18.420   3.167  0.00  0.00    +0.020 A 
ATOM      7  C   LIG    1       25.716 -20.947   6.491  0.00  0.00    +0.143 A 
ATOM      8  C   LIG    1       24.589 -21.560   7.048  0.00  0.00    +0.054 A 
ATOM      9  C   LIG    1       24.357 -18.983   3.667  0.00  0.00    +0.018 A 
ATOM     10  C   LIG    1       23.344 -21.318   6.490  0.00  0.00    +0.088 A 
ENDROOT
BRANCH   1  12
ATOM     11  O   LIG    1       21.180 -21.219   4.760  0.00  0.00    +0.042 OA
ATOM     12  N   LIG    1       21.925 -20.234   4.847  0.00  0.00    +0.080 N 
ATOM     13  O   LIG    1       21.623 -19.072   4.547  0.00  0.00    -0.576 OA
ENDBRANCH   1  12
BRANCH   7  14
ATOM     14  O   LIG    1       26.944 -21.200   7.061  0.00  0.00    -0.505 OA
ATOM     15  H   LIG    1       27.227 -20.442   7.595  0.00  0.00    +0.292 HD
ENDBRANCH   7  14
TORSDOF 2
ENDMDL
MODEL 6
REMARK VINA RESULT:      -3.8      1.730      3.253
REMARK  Name = *****
REMARK                            x       y       z     vdW  Elec       q    Type
REMARK                         _______ _______ _______ _____ _____    ______ ____
ROOT
ATOM      1  C   LIG    1       25.242 -20.753   5.414  0.00  0.00    +0.282 A 
ATOM      2  C   LIG    1       25.864 -19.631   4.804  0.00  0.00    +0.081 A 
ATOM      3  C   LIG    1       27.191 -19.328   5.183  0.00  0.00    +0.119 A 
ATOM      4  N   LIG    1       27.857 -18.279   4.650  0.00  0.00    -0.251 NA
ATOM      5  C   LIG    1       27.247 -17.504   3.732  0.00  0.00    +0.111 A 
ATOM      6  C   LIG    1       25.963 -17.717   3.290  0.00  0.00    +0.020 A 
ATOM      7  C   LIG    1       27.819 -20.155   6.134  0.00  0.00    +0.143 A 
ATOM      8  C   LIG    1       27.190 -21.260   6.717  0.00  0.00    +0.054 A 
ATOM      9  C   LIG    1       25.267 -18.792   3.830  0.00  0.00    +0.018 A 
ATOM     10  C   LIG    1       25.888 -21.566   6.353  0.00  0.00    +0.088 A 
ENDROOT
BRANCH   1  12
ATOM     11  O   LIG    1       23.012 -20.900   5.937  0.00  0.00    +0.042 OA
ATOM     12  N   LIG    1       23.875 -21.112   5.076  0.00  0.00    +0.080 N 
ATOM     13  O   LIG    1       23.669 -21.572   3.946  0.00  0.00    -0.576 OA
ENDBRANCH   1  12
BRANCH   7  14
ATOM     14  O   LIG    1       29.111 -19.867   6.510  0.00  0.00    -0.505 OA
ATOM     15  H   LIG    1       29.677 -20.644   6.385  0.00  0.00    +0.292 HD
ENDBRANCH   7  14
TORSDOF 2
ENDMDL
MODEL 7
REMARK VINA RESULT:      -3.6      3.647      5.981
REMARK  Name = *****
REMARK                            x       y       z     vdW  Elec       q    Type
REMARK                         _______ _______ _______ _____ _____    ______ ____
ROOT
ATOM      1  C   LIG    1       25.588 -15.107   3.555  0.00  0.00    +0.282 A 
ATOM      2  C   LIG    1       25.218 -16.477   3.596  0.00  0.00    +0.081 A 
ATOM      3  C   LIG    1       23.933 -16.796   4.090  0.00  0.00    +0.119 A 
ATOM      4  N   LIG    1       23.501 -18.075   4.161  0.00  0.00    -0.251 NA
ATOM      5  C   LIG    1       24.308 -19.072   3.749  0.00  0.00    +0.111 A 
ATOM      6  C   LIG    1       25.571 -18.868   3.246  0.00  0.00    +0.020 A 
ATOM      7  C   LIG    1       23.097 -15.743   4.506  0.00  0.00    +0.143 A 
ATOM      8  C   LIG    1       23.480 -14.399   4.450  0.00  0.00    +0.054 A 
ATOM      9  C   LIG    1       26.028 -17.559   3.167  0.00  0.00    +0.018 A 
ATOM     10  C   LIG    1       24.738 -14.074   3.967  0.00  0.00    +0.088 A 
ENDROOT
BRANCH   1  12
ATOM     11  O   LIG    1       26.973 -14.353   1.886  0.00  0.00    +0.042 OA
ATOM     12  N   LIG    1       26.899 -14.712   3.068  0.00  0.00    +0.080 N 
ATOM     13  O   LIG    1       27.837 -14.731   3.875  0.00  0.00    -0.576 OA
ENDBRANCH   1  12
BRANCH   7  14
ATOM     14  O   LIG    1       21.844 -16.045   4.989  0.00  0.00    -0.505 OA
ATOM     15  H   LIG    1       21.546 -15.353   5.599  0.00  0.00    +0.292 HD
ENDBRANCH   7  14
TORSDOF 2
ENDMDL
MODEL 8
REMARK VINA RESULT:      -3.5      5.711      7.287
REMARK  Name = *****
REMARK                            x       y       z     vdW  Elec       q    Type
REMARK                         _______ _______ _______ _____ _____    ______ ____
ROOT
ATOM      1  C   LIG    1       24.596 -13.328   4.089  0.00  0.00    +0.282 A 
ATOM      2  C   LIG    1       26.010 -13.391   3.968  0.00  0.00    +0.081 A 
ATOM      3  C   LIG    1       26.592 -14.651   3.704  0.00  0.00    +0.119 A 
ATOM      4  N   LIG    1       27.929 -14.799   3.573  0.00  0.00    -0.251 NA
ATOM      5  C   LIG    1       28.730 -13.722   3.693  0.00  0.00    +0.111 A 
ATOM      6  C   LIG    1       28.264 -12.453   3.942  0.00  0.00    +0.020 A 
ATOM      7  C   LIG    1       25.740 -15.764   3.570  0.00  0.00    +0.143 A 
ATOM      8  C   LIG    1       24.349 -15.678   3.684  0.00  0.00    +0.054 A 
ATOM      9  C   LIG    1       26.892 -12.286   4.079  0.00  0.00    +0.018 A 
ATOM     10  C   LIG    1       23.768 -14.447   3.944  0.00  0.00    +0.088 A 
ENDROOT
BRANCH   1  12
ATOM     11  O   LIG    1       23.472 -11.447   3.404  0.00  0.00    +0.042 OA
ATOM     12  N   LIG    1       23.936 -12.065   4.371  0.00  0.00    +0.080 N 
ATOM     13  O   LIG    1       23.856 -11.715   5.556  0.00  0.00    -0.576 OA
ENDBRANCH   1  12
BRANCH   7  14
ATOM     14  O   LIG    1       26.299 -16.995   3.312  0.00  0.00    -0.505 OA
ATOM     15  H   LIG    1       26.998 -17.187   3.956  0.00  0.00    +0.292 HD
ENDBRANCH   7  14
TORSDOF 2
ENDMDL
MODEL 9
REMARK VINA RESULT:      -3.4      4.702      6.585
REMARK  Name = *****
REMARK                            x       y       z     vdW  Elec       q    Type
REMARK                         _______ _______ _______ _____ _____    ______ ____
ROOT
ATOM      1  C   LIG    1       25.040 -13.678   3.840  0.00  0.00    +0.282 A 
ATOM      2  C   LIG    1       24.440 -14.961   3.943  0.00  0.00    +0.081 A 
ATOM      3  C   LIG    1       25.262 -16.090   3.730  0.00  0.00    +0.119 A 
ATOM      4  N   LIG    1       24.771 -17.347   3.809  0.00  0.00    -0.251 NA
ATOM      5  C   LIG    1       23.469 -17.534   4.103  0.00  0.00    +0.111 A 
ATOM      6  C   LIG    1       22.588 -16.504   4.334  0.00  0.00    +0.020 A 
ATOM      7  C   LIG    1       26.622 -15.880   3.435  0.00  0.00    +0.143 A 
ATOM      8  C   LIG    1       27.195 -14.607   3.348  0.00  0.00    +0.054 A 
ATOM      9  C   LIG    1       23.079 -15.207   4.255  0.00  0.00    +0.018 A 
ATOM     10  C   LIG    1       26.398 -13.492   3.554  0.00  0.00    +0.088 A 
ENDROOT
BRANCH   1  12
ATOM     11  O   LIG    1       24.155 -12.050   5.195  0.00  0.00    +0.042 OA
ATOM     12  N   LIG    1       24.248 -12.476   4.037  0.00  0.00    +0.080 N 
ATOM     13  O   LIG    1       23.754 -11.948   3.033  0.00  0.00    -0.576 OA
ENDBRANCH   1  12
BRANCH   7  14
ATOM     14  O   LIG    1       27.431 -16.974   3.226  0.00  0.00    -0.505 OA
ATOM     15  H   LIG    1       28.360 -16.735   3.363  0.00  0.00    +0.292 HD
ENDBRANCH   7  14
TORSDOF 2
ENDMDL
