MODEL 1
REMARK VINA RESULT:      -6.5      0.000      0.000
REMARK  Name = *****
REMARK                            x       y       z     vdW  Elec       q    Type
REMARK                         _______ _______ _______ _____ _____    ______ ____
ROOT
ATOM      1  C   LIG    1       26.940 -16.782   3.454  0.00  0.00    +0.267 C 
ENDROOT
BRANCH   1   2
ATOM      2  C   LIG    1       27.536 -17.787   4.413  0.00  0.00    -0.007 A 
ATOM      3  C   LIG    1       26.862 -18.966   4.787  0.00  0.00    +0.053 A 
ATOM      4  C   LIG    1       27.493 -19.907   5.613  0.00  0.00    +0.129 A 
ATOM      5  C   LIG    1       28.820 -19.697   6.005  0.00  0.00    +0.046 A 
ATOM      6  C   LIG    1       29.466 -18.504   5.702  0.00  0.00    +0.004 A 
ATOM      7  C   LIG    1       28.829 -17.557   4.910  0.00  0.00    +0.007 A 
BRANCH   4   8
ATOM      8  O   LIG    1       26.772 -21.031   5.978  0.00  0.00    -0.456 OA
BRANCH   8   9
ATOM      9  C   LIG    1       25.392 -21.012   5.861  0.00  0.00    +0.128 A 
ATOM     10  C   LIG    1       24.717 -21.200   4.647  0.00  0.00    +0.046 A 
ATOM     11  C   LIG    1       23.330 -21.091   4.579  0.00  0.00    +0.004 A 
ATOM     12  C   LIG    1       22.594 -20.887   5.741  0.00  0.00    +0.000 A 
ATOM     13  C   LIG    1       23.250 -20.772   6.967  0.00  0.00    +0.004 A 
ATOM     14  C   LIG    1       24.648 -20.822   7.028  0.00  0.00    +0.046 A 
ENDBRANCH   8   9
ENDBRANCH   4   8
ENDBRANCH   1   2
BRANCH   1  15
ATOM     15  O   LIG    1       27.129 -15.441   3.917  0.00  0.00    -0.460 OA
BRANCH  15  16
ATOM     16  C   LIG    1       26.523 -14.481   3.156  0.00  0.00    +0.312 C 
ATOM     17  O   LIG    1       26.678 -14.325   1.963  0.00  0.00    -0.251 OA
BRANCH  16  20
ATOM     18  C   LIG    1       24.177 -11.527   3.790  0.00  0.00    +0.012 C 
ATOM     19  C   LIG    1       24.372 -12.976   3.406  0.00  0.00    -0.014 C 
ATOM     20  C   LIG    1       25.623 -13.632   3.985  0.00  0.00    +0.111 C 
ATOM     21  C   LIG    1       24.254 -14.051   4.483  0.00  0.00    +0.035 C 
ATOM     22  C   LIG    1       23.907 -13.254   1.993  0.00  0.00    +0.012 C 
BRANCH  21  23
ATOM     23  C   LIG    1       23.709 -15.389   4.190  0.00  0.00    +0.010 C 
ATOM     24  C   LIG    1       22.721 -16.038   4.828  0.00  0.00    +0.103 C 
ATOM     25 CL   LIG    1       22.234 -17.612   4.301  0.00  0.00    -0.071 Cl
ATOM     26 CL   LIG    1       21.886 -15.355   6.174  0.00  0.00    -0.071 Cl
ENDBRANCH  21  23
ENDBRANCH  16  20
ENDBRANCH  15  16
ENDBRANCH   1  15
TORSDOF 7
ENDMDL
MODEL 2
REMARK VINA RESULT:      -5.4      2.049      2.682
REMARK  Name = *****
REMARK                            x       y       z     vdW  Elec       q    Type
REMARK                         _______ _______ _______ _____ _____    ______ ____
ROOT
ATOM      1  C   LIG    1       28.370 -17.168   4.420  0.00  0.00    +0.267 C 
ENDROOT
BRANCH   1   2
ATOM      2  C   LIG    1       28.337 -18.373   5.331  0.00  0.00    -0.007 A 
ATOM      3  C   LIG    1       27.308 -19.333   5.277  0.00  0.00    +0.053 A 
ATOM      4  C   LIG    1       27.369 -20.478   6.085  0.00  0.00    +0.129 A 
ATOM      5  C   LIG    1       28.492 -20.690   6.893  0.00  0.00    +0.046 A 
ATOM      6  C   LIG    1       29.475 -19.714   7.008  0.00  0.00    +0.004 A 
ATOM      7  C   LIG    1       29.399 -18.564   6.231  0.00  0.00    +0.007 A 
BRANCH   4   8
ATOM      8  O   LIG    1       26.314 -21.372   6.018  0.00  0.00    -0.456 OA
BRANCH   8   9
ATOM      9  C   LIG    1       25.068 -20.912   5.624  0.00  0.00    +0.128 A 
ATOM     10  C   LIG    1       24.780 -20.479   4.323  0.00  0.00    +0.046 A 
ATOM     11  C   LIG    1       23.530 -19.954   4.007  0.00  0.00    +0.004 A 
ATOM     12  C   LIG    1       22.522 -19.943   4.965  0.00  0.00    +0.000 A 
ATOM     13  C   LIG    1       22.774 -20.440   6.244  0.00  0.00    +0.004 A 
ATOM     14  C   LIG    1       24.048 -20.914   6.579  0.00  0.00    +0.046 A 
ENDBRANCH   8   9
ENDBRANCH   4   8
ENDBRANCH   1   2
BRANCH   1  15
ATOM     15  O   LIG    1       27.066 -16.858   3.915  0.00  0.00    -0.460 OA
BRANCH  15  16
ATOM     16  C   LIG    1       26.898 -15.561   3.518  0.00  0.00    +0.312 C 
ATOM     17  O   LIG    1       26.860 -15.175   2.370  0.00  0.00    -0.251 OA
BRANCH  16  20
ATOM     18  C   LIG    1       28.181 -13.130   6.179  0.00  0.00    +0.012 C 
ATOM     19  C   LIG    1       27.562 -13.366   4.820  0.00  0.00    -0.014 C 
ATOM     20  C   LIG    1       26.758 -14.658   4.694  0.00  0.00    +0.111 C 
ATOM     21  C   LIG    1       26.044 -13.321   4.679  0.00  0.00    +0.035 C 
ATOM     22  C   LIG    1       28.450 -12.866   3.700  0.00  0.00    +0.012 C 
BRANCH  21  23
ATOM     23  C   LIG    1       25.390 -12.816   3.457  0.00  0.00    +0.010 C 
ATOM     24  C   LIG    1       24.308 -12.027   3.364  0.00  0.00    +0.103 C 
ATOM     25 CL   LIG    1       23.714 -11.545   1.812  0.00  0.00    -0.071 Cl
ATOM     26 CL   LIG    1       23.465 -11.447   4.753  0.00  0.00    -0.071 Cl
ENDBRANCH  21  23
ENDBRANCH  16  20
ENDBRANCH  15  16
ENDBRANCH   1  15
TORSDOF 7
ENDMDL
