MODEL 1
REMARK VINA RESULT:      -9.0      0.000      0.000
REMARK  Name = *****
REMARK                            x       y       z     vdW  Elec       q    Type
REMARK                         _______ _______ _______ _____ _____    ______ ____
ROOT
ATOM      1  CA  ALA A  1       27.752 -21.283   7.039  0.00  0.00    +0.138 C 
ATOM      2  CB  ALA A  1       27.588 -20.423   5.765  0.00  0.00    +0.034 C 
ENDROOT
BRANCH   1   3
ATOM      3  C   ALA A  1       27.765 -20.283   8.234  0.00  0.00    +0.233 C 
ATOM      4  N   UNK A  2       28.975 -19.674   8.566  0.00  0.00    -0.282 N 
ATOM      5  C   UNK A  2       30.266 -19.950   7.910  0.00  0.00    +0.189 C 
ATOM      6  C   UNK A  2       30.952 -18.636   7.541  0.00  0.00    +0.069 C 
ATOM      7  C   UNK A  2       31.219 -17.856   8.797  0.00  0.00    -0.040 A 
ATOM      8  C   UNK A  2       30.289 -17.939   9.850  0.00  0.00    -0.027 A 
ATOM      9  C   UNK A  2       30.569 -17.261  11.044  0.00  0.00    +0.005 A 
ATOM     10  C   UNK A  2       31.759 -16.543  11.195  0.00  0.00    +0.000 A 
ATOM     11  C   UNK A  2       32.676 -16.478  10.148  0.00  0.00    +0.000 A 
ATOM     12  C   UNK A  2       32.403 -17.123   8.944  0.00  0.00    +0.004 A 
ATOM     13  C   UNK A  2       29.012 -18.756   9.719  0.00  0.00    +0.144 C 
ATOM     14  O   ALA A  1       26.709 -19.959   8.789  0.00  0.00    -0.274 OA
BRANCH   5  15
ATOM     15  C   UNK A  2       31.186 -20.857   8.731  0.00  0.00    +0.326 C 
ATOM     16  O   UNK A  2       32.260 -20.555   9.246  0.00  0.00    -0.249 OA
BRANCH  15  17
ATOM     17  O   UNK A  2       30.812 -22.147   8.737  0.00  0.00    -0.479 OA
ATOM     18  H   UNK A  2       30.599 -22.320   9.679  0.00  0.00    +0.295 HD
ENDBRANCH  15  17
ENDBRANCH   5  15
ENDBRANCH   1   3
BRANCH   1  19
ATOM     19  N   ALA A  1       26.670 -22.298   7.097  0.00  0.00    -0.294 NA
ATOM     20  H   ALA A  1       27.070 -23.221   6.915  0.00  0.00    +0.123 HD
BRANCH  19  21
ATOM     21  C   UNK A  0       25.481 -22.105   6.211  0.00  0.00    +0.164 C 
BRANCH  21  22
ATOM     22  C   UNK A  0       24.393 -21.243   6.880  0.00  0.00    +0.324 C 
ATOM     23  O   UNK A  0       23.869 -21.475   7.947  0.00  0.00    -0.249 OA
BRANCH  22  24
ATOM     24  O   UNK A  0       24.033 -20.245   6.011  0.00  0.00    -0.464 OA
BRANCH  24  26
ATOM     25  C   UNK A  0       22.398 -19.059   4.721  0.00  0.00    +0.048 C 
ATOM     26  C   UNK A  0       22.691 -20.319   5.521  0.00  0.00    +0.229 C 
ENDBRANCH  24  26
ENDBRANCH  22  24
ENDBRANCH  21  22
BRANCH  21  27
ATOM     27  C   UNK A  0       24.876 -23.375   5.553  0.00  0.00    +0.035 C 
BRANCH  27  28
ATOM     28  C   UNK A  0       24.374 -24.471   6.529  0.00  0.00    +0.037 C 
BRANCH  28  29
ATOM     29  C   UNK A  0       24.823 -25.866   6.116  0.00  0.00    -0.047 A 
ATOM     30  C   UNK A  0       25.927 -26.017   5.263  0.00  0.00    +0.003 A 
ATOM     31  C   UNK A  0       26.329 -27.281   4.820  0.00  0.00    +0.000 A 
ATOM     32  C   UNK A  0       25.627 -28.415   5.222  0.00  0.00    +0.000 A 
ATOM     33  C   UNK A  0       24.543 -28.285   6.087  0.00  0.00    +0.000 A 
ATOM     34  C   UNK A  0       24.146 -27.019   6.540  0.00  0.00    +0.003 A 
ENDBRANCH  28  29
ENDBRANCH  27  28
ENDBRANCH  21  27
ENDBRANCH  19  21
ENDBRANCH   1  19
TORSDOF 11
ENDMDL
MODEL 2
REMARK VINA RESULT:      -8.8      3.080      8.836
REMARK  Name = *****
REMARK                            x       y       z     vdW  Elec       q    Type
REMARK                         _______ _______ _______ _____ _____    ______ ____
ROOT
ATOM      1  CA  ALA A  1       25.017 -23.410   6.729  0.00  0.00    +0.138 C 
ATOM      2  CB  ALA A  1       24.232 -22.455   7.657  0.00  0.00    +0.034 C 
ENDROOT
BRANCH   1   3
ATOM      3  C   ALA A  1       24.069 -24.616   6.451  0.00  0.00    +0.233 C 
ATOM      4  N   UNK A  2       24.615 -25.899   6.479  0.00  0.00    -0.282 N 
ATOM      5  C   UNK A  2       26.042 -26.203   6.691  0.00  0.00    +0.189 C 
ATOM      6  C   UNK A  2       26.188 -27.293   7.751  0.00  0.00    +0.069 C 
ATOM      7  C   UNK A  2       25.507 -28.541   7.264  0.00  0.00    -0.040 A 
ATOM      8  C   UNK A  2       24.340 -28.411   6.488  0.00  0.00    -0.027 A 
ATOM      9  C   UNK A  2       23.739 -29.571   5.982  0.00  0.00    +0.005 A 
ATOM     10  C   UNK A  2       24.305 -30.828   6.220  0.00  0.00    +0.000 A 
ATOM     11  C   UNK A  2       25.466 -30.942   6.982  0.00  0.00    +0.000 A 
ATOM     12  C   UNK A  2       26.062 -29.802   7.515  0.00  0.00    +0.004 A 
ATOM     13  C   UNK A  2       23.740 -27.046   6.180  0.00  0.00    +0.144 C 
ATOM     14  O   ALA A  1       22.852 -24.437   6.328  0.00  0.00    -0.274 OA
BRANCH   5  15
ATOM     15  C   UNK A  2       26.786 -26.564   5.402  0.00  0.00    +0.326 C 
ATOM     16  O   UNK A  2       26.296 -26.759   4.293  0.00  0.00    -0.249 OA
BRANCH  15  17
ATOM     17  O   UNK A  2       28.089 -26.831   5.584  0.00  0.00    -0.479 OA
ATOM     18  H   UNK A  2       28.124 -27.203   6.491  0.00  0.00    +0.295 HD
ENDBRANCH  15  17
ENDBRANCH   5  15
ENDBRANCH   1   3
BRANCH   1  19
ATOM     19  N   ALA A  1       25.452 -22.676   5.513  0.00  0.00    -0.294 NA
ATOM     20  H   ALA A  1       26.427 -22.909   5.315  0.00  0.00    +0.123 HD
BRANCH  19  21
ATOM     21  C   UNK A  0       25.299 -21.189   5.502  0.00  0.00    +0.164 C 
BRANCH  21  22
ATOM     22  C   UNK A  0       24.557 -20.691   4.246  0.00  0.00    +0.324 C 
ATOM     23  O   UNK A  0       25.075 -20.159   3.288  0.00  0.00    -0.249 OA
BRANCH  22  24
ATOM     24  O   UNK A  0       23.209 -20.837   4.450  0.00  0.00    -0.464 OA
BRANCH  24  26
ATOM     25  C   UNK A  0       22.234 -18.651   4.556  0.00  0.00    +0.048 C 
ATOM     26  C   UNK A  0       22.623 -19.890   5.347  0.00  0.00    +0.229 C 
ENDBRANCH  24  26
ENDBRANCH  22  24
ENDBRANCH  21  22
BRANCH  21  27
ATOM     27  C   UNK A  0       26.573 -20.345   5.782  0.00  0.00    +0.035 C 
BRANCH  27  28
ATOM     28  C   UNK A  0       27.101 -20.378   7.239  0.00  0.00    +0.037 C 
BRANCH  28  29
ATOM     29  C   UNK A  0       28.605 -20.155   7.318  0.00  0.00    -0.047 A 
ATOM     30  C   UNK A  0       29.391 -20.994   8.123  0.00  0.00    +0.003 A 
ATOM     31  C   UNK A  0       30.766 -20.780   8.261  0.00  0.00    +0.000 A 
ATOM     32  C   UNK A  0       31.376 -19.718   7.597  0.00  0.00    +0.000 A 
ATOM     33  C   UNK A  0       30.614 -18.890   6.775  0.00  0.00    +0.000 A 
ATOM     34  C   UNK A  0       29.237 -19.111   6.628  0.00  0.00    +0.003 A 
ENDBRANCH  28  29
ENDBRANCH  27  28
ENDBRANCH  21  27
ENDBRANCH  19  21
ENDBRANCH   1  19
TORSDOF 11
ENDMDL
MODEL 3
REMARK VINA RESULT:      -8.6      1.364      4.049
REMARK  Name = *****
REMARK                            x       y       z     vdW  Elec       q    Type
REMARK                         _______ _______ _______ _____ _____    ______ ____
ROOT
ATOM      1  CA  ALA A  1       27.983 -21.277   6.920  0.00  0.00    +0.138 C 
ATOM      2  CB  ALA A  1       28.782 -20.593   5.788  0.00  0.00    +0.034 C 
ENDROOT
BRANCH   1   3
ATOM      3  C   ALA A  1       27.900 -20.236   8.078  0.00  0.00    +0.233 C 
ATOM      4  N   UNK A  2       29.087 -19.655   8.523  0.00  0.00    -0.282 N 
ATOM      5  C   UNK A  2       30.432 -19.995   8.023  0.00  0.00    +0.189 C 
ATOM      6  C   UNK A  2       31.200 -18.717   7.691  0.00  0.00    +0.069 C 
ATOM      7  C   UNK A  2       31.355 -17.902   8.944  0.00  0.00    -0.040 A 
ATOM      8  C   UNK A  2       30.313 -17.918   9.889  0.00  0.00    -0.027 A 
ATOM      9  C   UNK A  2       30.483 -17.208  11.085  0.00  0.00    +0.005 A 
ATOM     10  C   UNK A  2       31.674 -16.524  11.344  0.00  0.00    +0.000 A 
ATOM     11  C   UNK A  2       32.702 -16.524  10.404  0.00  0.00    +0.000 A 
ATOM     12  C   UNK A  2       32.541 -17.202   9.199  0.00  0.00    +0.004 A 
ATOM     13  C   UNK A  2       29.029 -18.698   9.643  0.00  0.00    +0.144 C 
ATOM     14  O   ALA A  1       26.801 -19.860   8.500  0.00  0.00    -0.274 OA
BRANCH   5  15
ATOM     15  C   UNK A  2       31.223 -20.901   8.970  0.00  0.00    +0.326 C 
ATOM     16  O   UNK A  2       32.425 -20.849   9.215  0.00  0.00    -0.249 OA
BRANCH  15  17
ATOM     17  O   UNK A  2       30.515 -21.939   9.445  0.00  0.00    -0.479 OA
ATOM     18  H   UNK A  2       29.766 -22.013   8.816  0.00  0.00    +0.295 HD
ENDBRANCH  15  17
ENDBRANCH   5  15
ENDBRANCH   1   3
BRANCH   1  19
ATOM     19  N   ALA A  1       26.667 -21.726   6.399  0.00  0.00    -0.294 NA
ATOM     20  H   ALA A  1       26.139 -20.909   6.084  0.00  0.00    +0.123 HD
BRANCH  19  21
ATOM     21  C   UNK A  0       25.798 -22.543   7.300  0.00  0.00    +0.164 C 
BRANCH  21  22
ATOM     22  C   UNK A  0       25.731 -24.018   6.859  0.00  0.00    +0.324 C 
ATOM     23  O   UNK A  0       26.045 -24.970   7.539  0.00  0.00    -0.249 OA
BRANCH  22  24
ATOM     24  O   UNK A  0       25.376 -24.062   5.536  0.00  0.00    -0.464 OA
BRANCH  24  26
ATOM     25  C   UNK A  0       24.044 -26.053   5.517  0.00  0.00    +0.048 C 
ATOM     26  C   UNK A  0       25.289 -25.373   4.971  0.00  0.00    +0.229 C 
ENDBRANCH  24  26
ENDBRANCH  22  24
ENDBRANCH  21  22
BRANCH  21  27
ATOM     27  C   UNK A  0       24.388 -21.981   7.624  0.00  0.00    +0.035 C 
BRANCH  27  28
ATOM     28  C   UNK A  0       23.328 -22.121   6.501  0.00  0.00    +0.037 C 
BRANCH  28  29
ATOM     29  C   UNK A  0       23.382 -20.972   5.504  0.00  0.00    -0.047 A 
ATOM     30  C   UNK A  0       22.544 -19.859   5.679  0.00  0.00    +0.003 A 
ATOM     31  C   UNK A  0       22.530 -18.814   4.750  0.00  0.00    +0.000 A 
ATOM     32  C   UNK A  0       23.352 -18.869   3.627  0.00  0.00    +0.000 A 
ATOM     33  C   UNK A  0       24.206 -19.956   3.450  0.00  0.00    +0.000 A 
ATOM     34  C   UNK A  0       24.228 -20.998   4.386  0.00  0.00    +0.003 A 
ENDBRANCH  28  29
ENDBRANCH  27  28
ENDBRANCH  21  27
ENDBRANCH  19  21
ENDBRANCH   1  19
TORSDOF 11
ENDMDL
MODEL 4
REMARK VINA RESULT:      -8.3      3.208      9.899
REMARK  Name = *****
REMARK                            x       y       z     vdW  Elec       q    Type
REMARK                         _______ _______ _______ _____ _____    ______ ____
ROOT
ATOM      1  CA  ALA A  1       25.192 -25.477   6.396  0.00  0.00    +0.138 C 
ATOM      2  CB  ALA A  1       23.671 -25.293   6.185  0.00  0.00    +0.034 C 
ENDROOT
BRANCH   1   3
ATOM      3  C   ALA A  1       25.616 -26.653   5.465  0.00  0.00    +0.233 C 
ATOM      4  N   UNK A  2       25.410 -27.955   5.920  0.00  0.00    -0.282 N 
ATOM      5  C   UNK A  2       24.874 -28.310   7.247  0.00  0.00    +0.189 C 
ATOM      6  C   UNK A  2       23.760 -29.344   7.097  0.00  0.00    +0.069 C 
ATOM      7  C   UNK A  2       24.327 -30.586   6.469  0.00  0.00    -0.040 A 
ATOM      8  C   UNK A  2       25.347 -30.448   5.509  0.00  0.00    -0.027 A 
ATOM      9  C   UNK A  2       25.919 -31.607   4.969  0.00  0.00    +0.005 A 
ATOM     10  C   UNK A  2       25.505 -32.872   5.398  0.00  0.00    +0.000 A 
ATOM     11  C   UNK A  2       24.501 -32.994   6.357  0.00  0.00    +0.000 A 
ATOM     12  C   UNK A  2       23.903 -31.854   6.885  0.00  0.00    +0.004 A 
ATOM     13  C   UNK A  2       25.842 -29.078   5.068  0.00  0.00    +0.144 C 
ATOM     14  O   ALA A  1       26.013 -26.427   4.317  0.00  0.00    -0.274 OA
BRANCH   5  15
ATOM     15  C   UNK A  2       25.949 -28.777   8.232  0.00  0.00    +0.326 C 
ATOM     16  O   UNK A  2       25.885 -29.730   9.004  0.00  0.00    -0.249 OA
BRANCH  15  17
ATOM     17  O   UNK A  2       26.993 -27.938   8.334  0.00  0.00    -0.479 OA
ATOM     18  H   UNK A  2       26.573 -27.052   8.371  0.00  0.00    +0.295 HD
ENDBRANCH  15  17
ENDBRANCH   5  15
ENDBRANCH   1   3
BRANCH   1  19
ATOM     19  N   ALA A  1       25.890 -24.194   6.125  0.00  0.00    -0.294 NA
ATOM     20  H   ALA A  1       26.898 -24.344   6.194  0.00  0.00    +0.123 HD
BRANCH  19  21
ATOM     21  C   UNK A  0       25.521 -23.007   6.956  0.00  0.00    +0.164 C 
BRANCH  21  22
ATOM     22  C   UNK A  0       24.493 -22.101   6.250  0.00  0.00    +0.324 C 
ATOM     23  O   UNK A  0       23.569 -21.534   6.790  0.00  0.00    -0.249 OA
BRANCH  22  24
ATOM     24  O   UNK A  0       24.726 -22.147   4.900  0.00  0.00    -0.464 OA
BRANCH  24  26
ATOM     25  C   UNK A  0       25.058 -20.011   3.868  0.00  0.00    +0.048 C 
ATOM     26  C   UNK A  0       24.069 -21.134   4.133  0.00  0.00    +0.229 C 
ENDBRANCH  24  26
ENDBRANCH  22  24
ENDBRANCH  21  22
BRANCH  21  27
ATOM     27  C   UNK A  0       26.686 -22.179   7.564  0.00  0.00    +0.035 C 
BRANCH  27  28
ATOM     28  C   UNK A  0       26.798 -20.710   7.080  0.00  0.00    +0.037 C 
BRANCH  28  29
ATOM     29  C   UNK A  0       28.242 -20.240   6.980  0.00  0.00    -0.047 A 
ATOM     30  C   UNK A  0       29.199 -20.734   7.882  0.00  0.00    +0.003 A 
ATOM     31  C   UNK A  0       30.521 -20.279   7.851  0.00  0.00    +0.000 A 
ATOM     32  C   UNK A  0       30.906 -19.318   6.919  0.00  0.00    +0.000 A 
ATOM     33  C   UNK A  0       29.975 -18.835   6.002  0.00  0.00    +0.000 A 
ATOM     34  C   UNK A  0       28.652 -19.299   6.025  0.00  0.00    +0.003 A 
ENDBRANCH  28  29
ENDBRANCH  27  28
ENDBRANCH  21  27
ENDBRANCH  19  21
ENDBRANCH   1  19
TORSDOF 11
ENDMDL
MODEL 5
REMARK VINA RESULT:      -8.2      2.149      3.476
REMARK  Name = *****
REMARK                            x       y       z     vdW  Elec       q    Type
REMARK                         _______ _______ _______ _____ _____    ______ ____
ROOT
ATOM      1  CA  ALA A  1       25.462 -20.550   4.641  0.00  0.00    +0.138 C 
ATOM      2  CB  ALA A  1       24.813 -20.095   3.314  0.00  0.00    +0.034 C 
ENDROOT
BRANCH   1   3
ATOM      3  C   ALA A  1       26.712 -19.642   4.842  0.00  0.00    +0.233 C 
ATOM      4  N   UNK A  2       27.550 -19.911   5.925  0.00  0.00    -0.282 N 
ATOM      5  C   UNK A  2       27.311 -20.956   6.937  0.00  0.00    +0.189 C 
ATOM      6  C   UNK A  2       28.581 -21.780   7.142  0.00  0.00    +0.069 C 
ATOM      7  C   UNK A  2       29.672 -20.876   7.645  0.00  0.00    -0.040 A 
ATOM      8  C   UNK A  2       29.714 -19.549   7.179  0.00  0.00    -0.027 A 
ATOM      9  C   UNK A  2       30.693 -18.690   7.695  0.00  0.00    +0.005 A 
ATOM     10  C   UNK A  2       31.588 -19.134   8.672  0.00  0.00    +0.000 A 
ATOM     11  C   UNK A  2       31.529 -20.448   9.132  0.00  0.00    +0.000 A 
ATOM     12  C   UNK A  2       30.580 -21.324   8.612  0.00  0.00    +0.004 A 
ATOM     13  C   UNK A  2       28.715 -19.037   6.151  0.00  0.00    +0.144 C 
ATOM     14  O   ALA A  1       27.006 -18.788   3.998  0.00  0.00    -0.274 OA
BRANCH   5  15
ATOM     15  C   UNK A  2       26.771 -20.410   8.261  0.00  0.00    +0.326 C 
ATOM     16  O   UNK A  2       27.415 -19.885   9.165  0.00  0.00    -0.249 OA
BRANCH  15  17
ATOM     17  O   UNK A  2       25.475 -20.690   8.476  0.00  0.00    -0.479 OA
ATOM     18  H   UNK A  2       25.414 -20.765   9.452  0.00  0.00    +0.295 HD
ENDBRANCH  15  17
ENDBRANCH   5  15
ENDBRANCH   1   3
BRANCH   1  19
ATOM     19  N   ALA A  1       24.461 -20.472   5.736  0.00  0.00    -0.294 NA
ATOM     20  H   ALA A  1       24.932 -20.630   6.629  0.00  0.00    +0.123 HD
BRANCH  19  21
ATOM     21  C   UNK A  0       23.265 -21.367   5.656  0.00  0.00    +0.164 C 
BRANCH  21  22
ATOM     22  C   UNK A  0       22.023 -20.628   5.120  0.00  0.00    +0.324 C 
ATOM     23  O   UNK A  0       21.112 -21.140   4.507  0.00  0.00    -0.249 OA
BRANCH  22  24
ATOM     24  O   UNK A  0       22.184 -19.285   5.343  0.00  0.00    -0.464 OA
BRANCH  24  26
ATOM     25  C   UNK A  0       22.255 -17.015   4.579  0.00  0.00    +0.048 C 
ATOM     26  C   UNK A  0       21.844 -18.439   4.241  0.00  0.00    +0.229 C 
ENDBRANCH  24  26
ENDBRANCH  22  24
ENDBRANCH  21  22
BRANCH  21  27
ATOM     27  C   UNK A  0       22.927 -22.208   6.917  0.00  0.00    +0.035 C 
BRANCH  27  28
ATOM     28  C   UNK A  0       22.653 -23.715   6.672  0.00  0.00    +0.037 C 
BRANCH  28  29
ATOM     29  C   UNK A  0       23.932 -24.510   6.451  0.00  0.00    -0.047 A 
ATOM     30  C   UNK A  0       23.870 -25.768   5.831  0.00  0.00    +0.003 A 
ATOM     31  C   UNK A  0       25.020 -26.547   5.666  0.00  0.00    +0.000 A 
ATOM     32  C   UNK A  0       26.250 -26.081   6.124  0.00  0.00    +0.000 A 
ATOM     33  C   UNK A  0       26.332 -24.825   6.721  0.00  0.00    +0.000 A 
ATOM     34  C   UNK A  0       25.182 -24.038   6.877  0.00  0.00    +0.003 A 
ENDBRANCH  28  29
ENDBRANCH  27  28
ENDBRANCH  21  27
ENDBRANCH  19  21
ENDBRANCH   1  19
TORSDOF 11
ENDMDL
MODEL 6
REMARK VINA RESULT:      -8.2      6.359      9.473
REMARK  Name = *****
REMARK                            x       y       z     vdW  Elec       q    Type
REMARK                         _______ _______ _______ _____ _____    ______ ____
ROOT
ATOM      1  CA  ALA A  1       25.331 -30.756   8.947  0.00  0.00    +0.138 C 
ATOM      2  CB  ALA A  1       26.462 -31.720   9.375  0.00  0.00    +0.034 C 
ENDROOT
BRANCH   1   3
ATOM      3  C   ALA A  1       24.624 -30.311  10.263  0.00  0.00    +0.233 C 
ATOM      4  N   UNK A  2       25.302 -29.429  11.104  0.00  0.00    -0.282 N 
ATOM      5  C   UNK A  2       26.670 -28.927  10.875  0.00  0.00    +0.189 C 
ATOM      6  C   UNK A  2       26.702 -27.410  11.050  0.00  0.00    +0.069 C 
ATOM      7  C   UNK A  2       26.306 -27.073  12.459  0.00  0.00    -0.040 A 
ATOM      8  C   UNK A  2       25.339 -27.873  13.096  0.00  0.00    -0.027 A 
ATOM      9  C   UNK A  2       25.014 -27.597  14.431  0.00  0.00    +0.005 A 
ATOM     10  C   UNK A  2       25.659 -26.567  15.122  0.00  0.00    +0.000 A 
ATOM     11  C   UNK A  2       26.622 -25.788  14.483  0.00  0.00    +0.000 A 
ATOM     12  C   UNK A  2       26.938 -26.031  13.149  0.00  0.00    +0.004 A 
ATOM     13  C   UNK A  2       24.663 -29.029  12.371  0.00  0.00    +0.144 C 
ATOM     14  O   ALA A  1       23.455 -30.644  10.487  0.00  0.00    -0.274 OA
BRANCH   5  15
ATOM     15  C   UNK A  2       27.725 -29.619  11.742  0.00  0.00    +0.326 C 
ATOM     16  O   UNK A  2       27.528 -30.406  12.664  0.00  0.00    -0.249 OA
BRANCH  15  17
ATOM     17  O   UNK A  2       28.974 -29.173  11.535  0.00  0.00    -0.479 OA
ATOM     18  H   UNK A  2       29.136 -28.578  12.298  0.00  0.00    +0.295 HD
ENDBRANCH  15  17
ENDBRANCH   5  15
ENDBRANCH   1   3
BRANCH   1  19
ATOM     19  N   ALA A  1       25.902 -29.643   8.147  0.00  0.00    -0.294 NA
ATOM     20  H   ALA A  1       26.362 -28.983   8.778  0.00  0.00    +0.123 HD
BRANCH  19  21
ATOM     21  C   UNK A  0       24.983 -28.886   7.243  0.00  0.00    +0.164 C 
BRANCH  21  22
ATOM     22  C   UNK A  0       24.470 -29.755   6.078  0.00  0.00    +0.324 C 
ATOM     23  O   UNK A  0       23.316 -30.076   5.896  0.00  0.00    -0.249 OA
BRANCH  22  24
ATOM     24  O   UNK A  0       25.549 -30.202   5.360  0.00  0.00    -0.464 OA
BRANCH  24  26
ATOM     25  C   UNK A  0       26.623 -32.313   5.726  0.00  0.00    +0.048 C 
ATOM     26  C   UNK A  0       25.507 -31.585   4.995  0.00  0.00    +0.229 C 
ENDBRANCH  24  26
ENDBRANCH  22  24
ENDBRANCH  21  22
BRANCH  21  27
ATOM     27  C   UNK A  0       25.465 -27.496   6.747  0.00  0.00    +0.035 C 
BRANCH  27  28
ATOM     28  C   UNK A  0       24.388 -26.606   6.073  0.00  0.00    +0.037 C 
BRANCH  28  29
ATOM     29  C   UNK A  0       24.513 -25.142   6.470  0.00  0.00    -0.047 A 
ATOM     30  C   UNK A  0       25.771 -24.619   6.811  0.00  0.00    +0.003 A 
ATOM     31  C   UNK A  0       25.909 -23.293   7.235  0.00  0.00    +0.000 A 
ATOM     32  C   UNK A  0       24.789 -22.471   7.329  0.00  0.00    +0.000 A 
ATOM     33  C   UNK A  0       23.537 -22.968   6.973  0.00  0.00    +0.000 A 
ATOM     34  C   UNK A  0       23.399 -24.293   6.538  0.00  0.00    +0.003 A 
ENDBRANCH  28  29
ENDBRANCH  27  28
ENDBRANCH  21  27
ENDBRANCH  19  21
ENDBRANCH   1  19
TORSDOF 11
ENDMDL
MODEL 7
REMARK VINA RESULT:      -8.1      3.382      9.864
REMARK  Name = *****
REMARK                            x       y       z     vdW  Elec       q    Type
REMARK                         _______ _______ _______ _____ _____    ______ ____
ROOT
ATOM      1  CA  ALA A  1       24.945 -25.613   6.521  0.00  0.00    +0.138 C 
ATOM      2  CB  ALA A  1       23.893 -24.846   5.688  0.00  0.00    +0.034 C 
ENDROOT
BRANCH   1   3
ATOM      3  C   ALA A  1       25.522 -26.712   5.579  0.00  0.00    +0.233 C 
ATOM      4  N   UNK A  2       25.365 -28.046   5.956  0.00  0.00    -0.282 N 
ATOM      5  C   UNK A  2       24.745 -28.500   7.215  0.00  0.00    +0.189 C 
ATOM      6  C   UNK A  2       23.717 -29.591   6.923  0.00  0.00    +0.069 C 
ATOM      7  C   UNK A  2       24.416 -30.763   6.292  0.00  0.00    -0.040 A 
ATOM      8  C   UNK A  2       25.500 -30.514   5.431  0.00  0.00    -0.027 A 
ATOM      9  C   UNK A  2       26.191 -31.608   4.891  0.00  0.00    +0.005 A 
ATOM     10  C   UNK A  2       25.826 -32.916   5.226  0.00  0.00    +0.000 A 
ATOM     11  C   UNK A  2       24.757 -33.147   6.088  0.00  0.00    +0.000 A 
ATOM     12  C   UNK A  2       24.042 -32.074   6.613  0.00  0.00    +0.004 A 
ATOM     13  C   UNK A  2       25.939 -29.096   5.095  0.00  0.00    +0.144 C 
ATOM     14  O   ALA A  1       25.998 -26.406   4.481  0.00  0.00    -0.274 OA
BRANCH   5  15
ATOM     15  C   UNK A  2       25.762 -28.947   8.268  0.00  0.00    +0.326 C 
ATOM     16  O   UNK A  2       25.627 -29.842   9.097  0.00  0.00    -0.249 OA
BRANCH  15  17
ATOM     17  O   UNK A  2       26.841 -28.151   8.353  0.00  0.00    -0.479 OA
ATOM     18  H   UNK A  2       26.549 -27.432   8.954  0.00  0.00    +0.295 HD
ENDBRANCH  15  17
ENDBRANCH   5  15
ENDBRANCH   1   3
BRANCH   1  19
ATOM     19  N   ALA A  1       25.955 -24.658   7.045  0.00  0.00    -0.294 NA
ATOM     20  H   ALA A  1       26.168 -24.900   8.015  0.00  0.00    +0.123 HD
BRANCH  19  21
ATOM     21  C   UNK A  0       25.645 -23.198   6.968  0.00  0.00    +0.164 C 
BRANCH  21  22
ATOM     22  C   UNK A  0       26.591 -22.356   7.847  0.00  0.00    +0.324 C 
ATOM     23  O   UNK A  0       26.438 -22.128   9.026  0.00  0.00    -0.249 OA
BRANCH  22  24
ATOM     24  O   UNK A  0       27.560 -21.811   7.044  0.00  0.00    -0.464 OA
BRANCH  24  26
ATOM     25  C   UNK A  0       28.462 -19.857   5.991  0.00  0.00    +0.048 C 
ATOM     26  C   UNK A  0       27.800 -20.415   7.241  0.00  0.00    +0.229 C 
ENDBRANCH  24  26
ENDBRANCH  22  24
ENDBRANCH  21  22
BRANCH  21  27
ATOM     27  C   UNK A  0       24.162 -22.779   7.166  0.00  0.00    +0.035 C 
BRANCH  27  28
ATOM     28  C   UNK A  0       23.905 -21.260   7.346  0.00  0.00    +0.037 C 
BRANCH  28  29
ATOM     29  C   UNK A  0       23.785 -20.530   6.016  0.00  0.00    -0.047 A 
ATOM     30  C   UNK A  0       24.863 -20.540   5.117  0.00  0.00    +0.003 A 
ATOM     31  C   UNK A  0       24.805 -19.832   3.912  0.00  0.00    +0.000 A 
ATOM     32  C   UNK A  0       23.666 -19.097   3.591  0.00  0.00    +0.000 A 
ATOM     33  C   UNK A  0       22.578 -19.095   4.461  0.00  0.00    +0.000 A 
ATOM     34  C   UNK A  0       22.632 -19.814   5.664  0.00  0.00    +0.003 A 
ENDBRANCH  28  29
ENDBRANCH  27  28
ENDBRANCH  21  27
ENDBRANCH  19  21
ENDBRANCH   1  19
TORSDOF 11
ENDMDL
MODEL 8
REMARK VINA RESULT:      -7.6      4.604      7.766
REMARK  Name = *****
REMARK                            x       y       z     vdW  Elec       q    Type
REMARK                         _______ _______ _______ _____ _____    ______ ____
ROOT
ATOM      1  CA  ALA A  1       24.723 -25.083   6.320  0.00  0.00    +0.138 C 
ATOM      2  CB  ALA A  1       25.113 -25.177   4.827  0.00  0.00    +0.034 C 
ENDROOT
BRANCH   1   3
ATOM      3  C   ALA A  1       23.571 -24.037   6.399  0.00  0.00    +0.233 C 
ATOM      4  N   UNK A  2       23.809 -22.760   5.891  0.00  0.00    -0.282 N 
ATOM      5  C   UNK A  2       25.095 -22.299   5.336  0.00  0.00    +0.189 C 
ATOM      6  C   UNK A  2       24.864 -21.610   3.993  0.00  0.00    +0.069 C 
ATOM      7  C   UNK A  2       23.985 -20.409   4.205  0.00  0.00    -0.040 A 
ATOM      8  C   UNK A  2       22.980 -20.478   5.188  0.00  0.00    -0.027 A 
ATOM      9  C   UNK A  2       22.201 -19.339   5.429  0.00  0.00    +0.005 A 
ATOM     10  C   UNK A  2       22.438 -18.152   4.729  0.00  0.00    +0.000 A 
ATOM     11  C   UNK A  2       23.443 -18.095   3.765  0.00  0.00    +0.000 A 
ATOM     12  C   UNK A  2       24.210 -19.225   3.493  0.00  0.00    +0.004 A 
ATOM     13  C   UNK A  2       22.742 -21.748   5.993  0.00  0.00    +0.144 C 
ATOM     14  O   ALA A  1       22.449 -24.372   6.794  0.00  0.00    -0.274 OA
BRANCH   5  15
ATOM     15  C   UNK A  2       25.890 -21.412   6.298  0.00  0.00    +0.326 C 
ATOM     16  O   UNK A  2       25.657 -21.212   7.487  0.00  0.00    -0.249 OA
BRANCH  15  17
ATOM     17  O   UNK A  2       26.843 -20.680   5.698  0.00  0.00    -0.479 OA
ATOM     18  H   UNK A  2       26.428 -19.796   5.601  0.00  0.00    +0.295 HD
ENDBRANCH  15  17
ENDBRANCH   5  15
ENDBRANCH   1   3
BRANCH   1  19
ATOM     19  N   ALA A  1       24.366 -26.433   6.827  0.00  0.00    -0.294 NA
ATOM     20  H   ALA A  1       24.128 -26.362   7.819  0.00  0.00    +0.123 HD
BRANCH  19  21
ATOM     21  C   UNK A  0       25.361 -27.534   6.646  0.00  0.00    +0.164 C 
BRANCH  21  22
ATOM     22  C   UNK A  0       24.733 -28.780   5.990  0.00  0.00    +0.324 C 
ATOM     23  O   UNK A  0       23.573 -29.116   6.086  0.00  0.00    -0.249 OA
BRANCH  22  24
ATOM     24  O   UNK A  0       25.730 -29.504   5.389  0.00  0.00    -0.464 OA
BRANCH  24  26
ATOM     25  C   UNK A  0       26.336 -31.746   5.978  0.00  0.00    +0.048 C 
ATOM     26  C   UNK A  0       25.417 -30.877   5.135  0.00  0.00    +0.229 C 
ENDBRANCH  24  26
ENDBRANCH  22  24
ENDBRANCH  21  22
BRANCH  21  27
ATOM     27  C   UNK A  0       26.227 -27.914   7.877  0.00  0.00    +0.035 C 
BRANCH  27  28
ATOM     28  C   UNK A  0       25.765 -29.163   8.672  0.00  0.00    +0.037 C 
BRANCH  28  29
ATOM     29  C   UNK A  0       25.803 -28.941  10.177  0.00  0.00    -0.047 A 
ATOM     30  C   UNK A  0       26.802 -28.126  10.735  0.00  0.00    +0.003 A 
ATOM     31  C   UNK A  0       26.898 -27.949  12.118  0.00  0.00    +0.000 A 
ATOM     32  C   UNK A  0       25.999 -28.589  12.967  0.00  0.00    +0.000 A 
ATOM     33  C   UNK A  0       24.988 -29.383  12.429  0.00  0.00    +0.000 A 
ATOM     34  C   UNK A  0       24.884 -29.553  11.042  0.00  0.00    +0.003 A 
ENDBRANCH  28  29
ENDBRANCH  27  28
ENDBRANCH  21  27
ENDBRANCH  19  21
ENDBRANCH   1  19
TORSDOF 11
ENDMDL
MODEL 9
REMARK VINA RESULT:      -7.4      2.316      8.028
REMARK  Name = *****
REMARK                            x       y       z     vdW  Elec       q    Type
REMARK                         _______ _______ _______ _____ _____    ______ ____
ROOT
ATOM      1  CA  ALA A  1       25.382 -20.670   7.299  0.00  0.00    +0.138 C 
ATOM      2  CB  ALA A  1       23.956 -20.514   7.875  0.00  0.00    +0.034 C 
ENDROOT
BRANCH   1   3
ATOM      3  C   ALA A  1       25.906 -22.044   7.815  0.00  0.00    +0.233 C 
ATOM      4  N   UNK A  2       25.504 -23.195   7.137  0.00  0.00    -0.282 N 
ATOM      5  C   UNK A  2       24.565 -23.220   6.001  0.00  0.00    +0.189 C 
ATOM      6  C   UNK A  2       25.144 -24.065   4.868  0.00  0.00    +0.069 C 
ATOM      7  C   UNK A  2       25.330 -25.474   5.357  0.00  0.00    -0.040 A 
ATOM      8  C   UNK A  2       25.701 -25.676   6.700  0.00  0.00    -0.027 A 
ATOM      9  C   UNK A  2       25.813 -26.990   7.172  0.00  0.00    +0.005 A 
ATOM     10  C   UNK A  2       25.535 -28.075   6.335  0.00  0.00    +0.000 A 
ATOM     11  C   UNK A  2       25.159 -27.861   5.011  0.00  0.00    +0.000 A 
ATOM     12  C   UNK A  2       25.067 -26.562   4.516  0.00  0.00    +0.004 A 
ATOM     13  C   UNK A  2       25.960 -24.505   7.636  0.00  0.00    +0.144 C 
ATOM     14  O   ALA A  1       26.744 -22.092   8.722  0.00  0.00    -0.274 OA
BRANCH   5  15
ATOM     15  C   UNK A  2       23.155 -23.677   6.385  0.00  0.00    +0.326 C 
ATOM     16  O   UNK A  2       22.831 -24.763   6.857  0.00  0.00    -0.249 OA
BRANCH  15  17
ATOM     17  O   UNK A  2       22.187 -22.826   6.009  0.00  0.00    -0.479 OA
ATOM     18  H   UNK A  2       22.660 -22.173   5.450  0.00  0.00    +0.295 HD
ENDBRANCH  15  17
ENDBRANCH   5  15
ENDBRANCH   1   3
BRANCH   1  19
ATOM     19  N   ALA A  1       25.337 -20.543   5.820  0.00  0.00    -0.294 NA
ATOM     20  H   ALA A  1       25.547 -21.452   5.402  0.00  0.00    +0.123 HD
BRANCH  19  21
ATOM     21  C   UNK A  0       26.202 -19.506   5.180  0.00  0.00    +0.164 C 
BRANCH  21  22
ATOM     22  C   UNK A  0       25.592 -18.969   3.870  0.00  0.00    +0.324 C 
ATOM     23  O   UNK A  0       26.049 -18.071   3.198  0.00  0.00    -0.249 OA
BRANCH  22  24
ATOM     24  O   UNK A  0       24.388 -19.592   3.663  0.00  0.00    -0.464 OA
BRANCH  24  26
ATOM     25  C   UNK A  0       22.264 -19.348   4.744  0.00  0.00    +0.048 C 
ATOM     26  C   UNK A  0       23.240 -18.743   3.748  0.00  0.00    +0.229 C 
ENDBRANCH  24  26
ENDBRANCH  22  24
ENDBRANCH  21  22
BRANCH  21  27
ATOM     27  C   UNK A  0       27.707 -19.847   5.008  0.00  0.00    +0.035 C 
BRANCH  27  28
ATOM     28  C   UNK A  0       28.707 -18.812   5.584  0.00  0.00    +0.037 C 
BRANCH  28  29
ATOM     29  C   UNK A  0       29.508 -19.366   6.754  0.00  0.00    -0.047 A 
ATOM     30  C   UNK A  0       30.446 -18.548   7.404  0.00  0.00    +0.003 A 
ATOM     31  C   UNK A  0       31.238 -19.045   8.444  0.00  0.00    +0.000 A 
ATOM     32  C   UNK A  0       31.106 -20.372   8.847  0.00  0.00    +0.000 A 
ATOM     33  C   UNK A  0       30.165 -21.191   8.228  0.00  0.00    +0.000 A 
ATOM     34  C   UNK A  0       29.363 -20.690   7.192  0.00  0.00    +0.003 A 
ENDBRANCH  28  29
ENDBRANCH  27  28
ENDBRANCH  21  27
ENDBRANCH  19  21
ENDBRANCH   1  19
TORSDOF 11
ENDMDL
