MODEL 1
REMARK VINA RESULT:      -8.4      0.000      0.000
REMARK  Name = *****
REMARK                            x       y       z     vdW  Elec       q    Type
REMARK                         _______ _______ _______ _____ _____    ______ ____
ROOT
ATOM      1  N   LIG    1       25.290 -23.527   7.072  0.00  0.00    -0.272 N 
ATOM      2  C   LIG    1       25.889 -24.666   6.503  0.00  0.00    +0.230 C 
ATOM      3  O   LIG    1       27.138 -24.713   6.354  0.00  0.00    -0.274 OA
ATOM      4  C   LIG    1       23.833 -23.252   7.124  0.00  0.00    +0.138 C 
ENDROOT
BRANCH   1   6
ATOM      5  C   LIG    1       26.086 -21.112   6.764  0.00  0.00    +0.009 A 
ATOM      6  C   LIG    1       26.070 -22.351   7.440  0.00  0.00    +0.062 A 
ATOM      7  C   LIG    1       27.105 -22.566   8.403  0.00  0.00    +0.137 A 
ATOM      8  N   LIG    1       28.191 -21.760   8.608  0.00  0.00    -0.238 NA
ATOM      9  C   LIG    1       28.261 -20.631   7.897  0.00  0.00    +0.122 A 
ATOM     10  C   LIG    1       27.188 -20.254   7.074  0.00  0.00    +0.054 A 
BRANCH   5  13
ATOM     11  C   LIG    1       23.002 -20.225   7.094  0.00  0.00    +0.044 C 
ATOM     12  C   LIG    1       23.753 -20.310   5.792  0.00  0.00    -0.043 A 
ATOM     13  C   LIG    1       25.129 -20.639   5.664  0.00  0.00    -0.013 A 
ATOM     14  C   LIG    1       25.655 -20.479   4.346  0.00  0.00    +0.009 A 
ATOM     15  C   LIG    1       24.891 -20.118   3.226  0.00  0.00    +0.001 A 
ATOM     16  C   LIG    1       23.535 -19.914   3.364  0.00  0.00    +0.000 A 
ATOM     17  C   LIG    1       22.978 -19.996   4.635  0.00  0.00    +0.004 A 
ENDBRANCH   5  13
BRANCH   9  18
ATOM     18  N   LIG    1       29.454 -19.856   7.827  0.00  0.00    -0.313 N 
ATOM     19  C   LIG    1       30.501 -20.488   8.676  0.00  0.00    +0.122 C 
ATOM     20  C   LIG    1       31.831 -19.691   8.627  0.00  0.00    +0.103 C 
ATOM     21  N   LIG    1       31.724 -18.252   8.946  0.00  0.00    -0.302 NA
ATOM     22  C   LIG    1       31.528 -18.019  10.375  0.00  0.00    +0.105 C 
ATOM     23  C   LIG    1       30.628 -17.670   8.137  0.00  0.00    +0.103 C 
ATOM     24  C   LIG    1       29.267 -18.430   8.180  0.00  0.00    +0.122 C 
ENDBRANCH   9  18
ENDBRANCH   1   6
BRANCH   2  25
ATOM     25  C   LIG    1       25.001 -25.850   5.864  0.00  0.00    +0.067 C 
ATOM     26  C   LIG    1       25.373 -25.927   4.363  0.00  0.00    +0.025 C 
ATOM     27  C   LIG    1       23.466 -25.732   5.961  0.00  0.00    +0.025 C 
BRANCH  25  28
ATOM     28  C   LIG    1       25.305 -27.232   6.590  0.00  0.00    -0.032 A 
ATOM     29  C   LIG    1       25.790 -27.290   7.919  0.00  0.00    +0.017 A 
ATOM     30  C   LIG    1       25.988 -28.528   8.585  0.00  0.00    +0.056 A 
ATOM     31  C   LIG    1       25.673 -29.723   7.919  0.00  0.00    +0.024 A 
ATOM     32  C   LIG    1       25.158 -29.701   6.621  0.00  0.00    +0.056 A 
ATOM     33  C   LIG    1       25.001 -28.461   5.976  0.00  0.00    +0.017 A 
BRANCH  30  34
ATOM     34  C   LIG    1       26.516 -28.584  10.005  0.00  0.00    +0.417 C 
ATOM     35  F   LIG    1       25.641 -29.175  10.866  0.00  0.00    -0.166 F 
ATOM     36  F   LIG    1       26.783 -27.355  10.523  0.00  0.00    -0.166 F 
ATOM     37  F   LIG    1       27.677 -29.294  10.122  0.00  0.00    -0.166 F 
ENDBRANCH  30  34
BRANCH  32  38
ATOM     38  C   LIG    1       24.781 -30.978   5.907  0.00  0.00    +0.417 C 
ATOM     39  F   LIG    1       25.249 -32.094   6.530  0.00  0.00    -0.166 F 
ATOM     40  F   LIG    1       25.263 -31.025   4.636  0.00  0.00    -0.166 F 
ATOM     41  F   LIG    1       23.433 -31.153   5.805  0.00  0.00    -0.166 F 
ENDBRANCH  32  38
ENDBRANCH  25  28
ENDBRANCH   2  25
TORSDOF 7
ENDMDL
MODEL 2
REMARK VINA RESULT:      -8.2      6.538     10.664
REMARK  Name = *****
REMARK                            x       y       z     vdW  Elec       q    Type
REMARK                         _______ _______ _______ _____ _____    ______ ____
ROOT
ATOM      1  N   LIG    1       23.832 -30.865  12.279  0.00  0.00    -0.272 N 
ATOM      2  C   LIG    1       22.613 -30.228  12.579  0.00  0.00    +0.230 C 
ATOM      3  O   LIG    1       22.155 -29.348  11.806  0.00  0.00    -0.274 OA
ATOM      4  C   LIG    1       24.583 -31.765  13.189  0.00  0.00    +0.138 C 
ENDROOT
BRANCH   1   6
ATOM      5  C   LIG    1       25.526 -29.401  11.036  0.00  0.00    +0.009 A 
ATOM      6  C   LIG    1       24.630 -30.489  11.118  0.00  0.00    +0.062 A 
ATOM      7  C   LIG    1       24.267 -31.111   9.883  0.00  0.00    +0.137 A 
ATOM      8  N   LIG    1       24.573 -30.652   8.632  0.00  0.00    -0.238 NA
ATOM      9  C   LIG    1       25.342 -29.563   8.548  0.00  0.00    +0.122 A 
ATOM     10  C   LIG    1       25.899 -29.008   9.712  0.00  0.00    +0.054 A 
BRANCH   5  13
ATOM     11  C   LIG    1       28.482 -29.423  12.328  0.00  0.00    +0.044 C 
ATOM     12  C   LIG    1       27.326 -28.584  12.805  0.00  0.00    -0.043 A 
ATOM     13  C   LIG    1       26.047 -28.534  12.188  0.00  0.00    -0.013 A 
ATOM     14  C   LIG    1       25.175 -27.532  12.714  0.00  0.00    +0.009 A 
ATOM     15  C   LIG    1       25.485 -26.708  13.808  0.00  0.00    +0.001 A 
ATOM     16  C   LIG    1       26.692 -26.860  14.454  0.00  0.00    +0.000 A 
ATOM     17  C   LIG    1       27.605 -27.777  13.948  0.00  0.00    +0.004 A 
ENDBRANCH   5  13
BRANCH   9  18
ATOM     18  N   LIG    1       25.505 -28.846   7.329  0.00  0.00    -0.313 N 
ATOM     19  C   LIG    1       26.063 -27.497   7.623  0.00  0.00    +0.122 C 
ATOM     20  C   LIG    1       26.275 -26.675   6.325  0.00  0.00    +0.103 C 
ATOM     21  N   LIG    1       25.094 -26.551   5.446  0.00  0.00    -0.302 NA
ATOM     22  C   LIG    1       24.103 -25.623   5.986  0.00  0.00    +0.105 C 
ATOM     23  C   LIG    1       24.523 -27.902   5.232  0.00  0.00    +0.103 C 
ATOM     24  C   LIG    1       24.272 -28.751   6.516  0.00  0.00    +0.122 C 
ENDBRANCH   9  18
ENDBRANCH   1   6
BRANCH   2  25
ATOM     25  C   LIG    1       21.868 -30.464  13.990  0.00  0.00    +0.067 C 
ATOM     26  C   LIG    1       22.676 -29.683  15.056  0.00  0.00    +0.025 C 
ATOM     27  C   LIG    1       21.714 -31.915  14.490  0.00  0.00    +0.025 C 
BRANCH  25  28
ATOM     28  C   LIG    1       20.368 -29.940  13.926  0.00  0.00    -0.032 A 
ATOM     29  C   LIG    1       19.281 -30.812  13.672  0.00  0.00    +0.017 A 
ATOM     30  C   LIG    1       17.939 -30.351  13.690  0.00  0.00    +0.056 A 
ATOM     31  C   LIG    1       17.680 -29.003  13.990  0.00  0.00    +0.024 A 
ATOM     32  C   LIG    1       18.726 -28.126  14.281  0.00  0.00    +0.056 A 
ATOM     33  C   LIG    1       20.047 -28.605  14.226  0.00  0.00    +0.017 A 
BRANCH  30  34
ATOM     34  C   LIG    1       16.779 -31.286  13.408  0.00  0.00    +0.417 C 
ATOM     35  F   LIG    1       17.151 -32.377  12.684  0.00  0.00    -0.166 F 
ATOM     36  F   LIG    1       15.775 -30.692  12.707  0.00  0.00    -0.166 F 
ATOM     37  F   LIG    1       16.197 -31.781  14.539  0.00  0.00    -0.166 F 
ENDBRANCH  30  34
BRANCH  32  38
ATOM     38  C   LIG    1       18.459 -26.683  14.641  0.00  0.00    +0.417 C 
ATOM     39  F   LIG    1       19.487 -26.104  15.320  0.00  0.00    -0.166 F 
ATOM     40  F   LIG    1       17.358 -26.538  15.427  0.00  0.00    -0.166 F 
ATOM     41  F   LIG    1       18.249 -25.892  13.551  0.00  0.00    -0.166 F 
ENDBRANCH  32  38
ENDBRANCH  25  28
ENDBRANCH   2  25
TORSDOF 7
ENDMDL
MODEL 3
REMARK VINA RESULT:      -8.2      6.502     10.361
REMARK  Name = *****
REMARK                            x       y       z     vdW  Elec       q    Type
REMARK                         _______ _______ _______ _____ _____    ______ ____
ROOT
ATOM      1  N   LIG    1       23.934 -30.885  12.312  0.00  0.00    -0.272 N 
ATOM      2  C   LIG    1       22.725 -30.254  12.660  0.00  0.00    +0.230 C 
ATOM      3  O   LIG    1       22.249 -29.353  11.922  0.00  0.00    -0.274 OA
ATOM      4  C   LIG    1       24.706 -31.810  13.179  0.00  0.00    +0.138 C 
ENDROOT
BRANCH   1   6
ATOM      5  C   LIG    1       25.574 -29.372  11.056  0.00  0.00    +0.009 A 
ATOM      6  C   LIG    1       24.703 -30.480  11.142  0.00  0.00    +0.062 A 
ATOM      7  C   LIG    1       24.332 -31.097   9.907  0.00  0.00    +0.137 A 
ATOM      8  N   LIG    1       24.606 -30.618   8.655  0.00  0.00    -0.238 NA
ATOM      9  C   LIG    1       25.349 -29.511   8.570  0.00  0.00    +0.122 A 
ATOM     10  C   LIG    1       25.915 -28.956   9.730  0.00  0.00    +0.054 A 
BRANCH   5  13
ATOM     11  C   LIG    1       28.541 -29.373  12.324  0.00  0.00    +0.044 C 
ATOM     12  C   LIG    1       27.380 -28.547  12.813  0.00  0.00    -0.043 A 
ATOM     13  C   LIG    1       26.096 -28.505  12.208  0.00  0.00    -0.013 A 
ATOM     14  C   LIG    1       25.220 -27.514  12.746  0.00  0.00    +0.009 A 
ATOM     15  C   LIG    1       25.530 -26.693  13.841  0.00  0.00    +0.001 A 
ATOM     16  C   LIG    1       26.744 -26.836  14.476  0.00  0.00    +0.000 A 
ATOM     17  C   LIG    1       27.661 -27.743  13.959  0.00  0.00    +0.004 A 
ENDBRANCH   5  13
BRANCH   9  18
ATOM     18  N   LIG    1       25.476 -28.778   7.355  0.00  0.00    -0.313 N 
ATOM     19  C   LIG    1       26.065 -27.443   7.647  0.00  0.00    +0.122 C 
ATOM     20  C   LIG    1       26.239 -26.604   6.354  0.00  0.00    +0.103 C 
ATOM     21  N   LIG    1       25.026 -26.450   5.525  0.00  0.00    -0.302 NA
ATOM     22  C   LIG    1       24.071 -25.514   6.116  0.00  0.00    +0.105 C 
ATOM     23  C   LIG    1       24.426 -27.788   5.313  0.00  0.00    +0.103 C 
ATOM     24  C   LIG    1       24.213 -28.652   6.593  0.00  0.00    +0.122 C 
ENDBRANCH   9  18
ENDBRANCH   1   6
BRANCH   2  25
ATOM     25  C   LIG    1       22.016 -30.526  14.082  0.00  0.00    +0.067 C 
ATOM     26  C   LIG    1       22.890 -29.832  15.156  0.00  0.00    +0.025 C 
ATOM     27  C   LIG    1       21.814 -31.992  14.519  0.00  0.00    +0.025 C 
BRANCH  25  28
ATOM     28  C   LIG    1       20.538 -29.938  14.094  0.00  0.00    -0.032 A 
ATOM     29  C   LIG    1       20.281 -28.562  14.311  0.00  0.00    +0.017 A 
ATOM     30  C   LIG    1       18.966 -28.033  14.247  0.00  0.00    +0.056 A 
ATOM     31  C   LIG    1       17.896 -28.888  13.935  0.00  0.00    +0.024 A 
ATOM     32  C   LIG    1       18.120 -30.243  13.679  0.00  0.00    +0.056 A 
ATOM     33  C   LIG    1       19.429 -30.744  13.780  0.00  0.00    +0.017 A 
BRANCH  30  34
ATOM     34  C   LIG    1       18.695 -26.561  14.490  0.00  0.00    +0.417 C 
ATOM     35  F   LIG    1       18.611 -25.846  13.334  0.00  0.00    -0.166 F 
ATOM     36  F   LIG    1       19.660 -25.959  15.237  0.00  0.00    -0.166 F 
ATOM     37  F   LIG    1       17.521 -26.329  15.148  0.00  0.00    -0.166 F 
ENDBRANCH  30  34
BRANCH  32  38
ATOM     38  C   LIG    1       16.983 -31.165  13.307  0.00  0.00    +0.417 C 
ATOM     39  F   LIG    1       16.392 -30.834  12.126  0.00  0.00    -0.166 F 
ATOM     40  F   LIG    1       15.989 -31.169  14.237  0.00  0.00    -0.166 F 
ATOM     41  F   LIG    1       17.373 -32.464  13.171  0.00  0.00    -0.166 F 
ENDBRANCH  32  38
ENDBRANCH  25  28
ENDBRANCH   2  25
TORSDOF 7
ENDMDL
MODEL 4
REMARK VINA RESULT:      -8.0      0.131      2.752
REMARK  Name = *****
REMARK                            x       y       z     vdW  Elec       q    Type
REMARK                         _______ _______ _______ _____ _____    ______ ____
ROOT
ATOM      1  N   LIG    1       25.271 -23.590   7.012  0.00  0.00    -0.272 N 
ATOM      2  C   LIG    1       25.865 -24.734   6.448  0.00  0.00    +0.230 C 
ATOM      3  O   LIG    1       27.116 -24.802   6.331  0.00  0.00    -0.274 OA
ATOM      4  C   LIG    1       23.818 -23.290   7.027  0.00  0.00    +0.138 C 
ENDROOT
BRANCH   1   6
ATOM      5  C   LIG    1       26.077 -21.170   6.781  0.00  0.00    +0.009 A 
ATOM      6  C   LIG    1       26.061 -22.432   7.414  0.00  0.00    +0.062 A 
ATOM      7  C   LIG    1       27.104 -22.686   8.358  0.00  0.00    +0.137 A 
ATOM      8  N   LIG    1       28.197 -21.894   8.580  0.00  0.00    -0.238 NA
ATOM      9  C   LIG    1       28.266 -20.740   7.909  0.00  0.00    +0.122 A 
ATOM     10  C   LIG    1       27.186 -20.329   7.110  0.00  0.00    +0.054 A 
BRANCH   5  13
ATOM     11  C   LIG    1       23.000 -20.282   7.174  0.00  0.00    +0.044 C 
ATOM     12  C   LIG    1       23.738 -20.323   5.862  0.00  0.00    -0.043 A 
ATOM     13  C   LIG    1       25.111 -20.653   5.709  0.00  0.00    -0.013 A 
ATOM     14  C   LIG    1       25.626 -20.448   4.392  0.00  0.00    +0.009 A 
ATOM     15  C   LIG    1       24.852 -20.044   3.294  0.00  0.00    +0.001 A 
ATOM     16  C   LIG    1       23.499 -19.839   3.453  0.00  0.00    +0.000 A 
ATOM     17  C   LIG    1       22.954 -19.964   4.725  0.00  0.00    +0.004 A 
ENDBRANCH   5  13
BRANCH   9  18
ATOM     18  N   LIG    1       29.462 -19.969   7.854  0.00  0.00    -0.313 N 
ATOM     19  C   LIG    1       30.481 -20.581   8.750  0.00  0.00    +0.122 C 
ATOM     20  C   LIG    1       31.814 -19.787   8.720  0.00  0.00    +0.103 C 
ATOM     21  N   LIG    1       31.702 -18.340   8.997  0.00  0.00    -0.302 NA
ATOM     22  C   LIG    1       31.462 -18.068  10.413  0.00  0.00    +0.105 C 
ATOM     23  C   LIG    1       30.632 -17.778   8.140  0.00  0.00    +0.103 C 
ATOM     24  C   LIG    1       29.268 -18.534   8.163  0.00  0.00    +0.122 C 
ENDBRANCH   9  18
ENDBRANCH   1   6
BRANCH   2  25
ATOM     25  C   LIG    1       24.975 -25.896   5.772  0.00  0.00    +0.067 C 
ATOM     26  C   LIG    1       25.459 -26.035   4.308  0.00  0.00    +0.025 C 
ATOM     27  C   LIG    1       23.444 -25.705   5.743  0.00  0.00    +0.025 C 
BRANCH  25  28
ATOM     28  C   LIG    1       25.154 -27.267   6.557  0.00  0.00    -0.032 A 
ATOM     29  C   LIG    1       24.899 -28.519   5.945  0.00  0.00    +0.017 A 
ATOM     30  C   LIG    1       25.132 -29.741   6.629  0.00  0.00    +0.056 A 
ATOM     31  C   LIG    1       25.651 -29.710   7.933  0.00  0.00    +0.024 A 
ATOM     32  C   LIG    1       25.948 -28.494   8.552  0.00  0.00    +0.056 A 
ATOM     33  C   LIG    1       25.679 -27.299   7.861  0.00  0.00    +0.017 A 
BRANCH  30  34
ATOM     34  C   LIG    1       24.848 -31.078   5.973  0.00  0.00    +0.417 C 
ATOM     35  F   LIG    1       25.391 -32.123   6.658  0.00  0.00    -0.166 F 
ATOM     36  F   LIG    1       25.336 -31.163   4.706  0.00  0.00    -0.166 F 
ATOM     37  F   LIG    1       23.516 -31.361   5.875  0.00  0.00    -0.166 F 
ENDBRANCH  30  34
BRANCH  32  38
ATOM     38  C   LIG    1       26.541 -28.448   9.941  0.00  0.00    +0.417 C 
ATOM     39  F   LIG    1       25.752 -29.044  10.877  0.00  0.00    -0.166 F 
ATOM     40  F   LIG    1       26.747 -27.175  10.377  0.00  0.00    -0.166 F 
ATOM     41  F   LIG    1       27.748 -29.074  10.026  0.00  0.00    -0.166 F 
ENDBRANCH  32  38
ENDBRANCH  25  28
ENDBRANCH   2  25
TORSDOF 7
ENDMDL
MODEL 5
REMARK VINA RESULT:      -7.9      5.960     10.000
REMARK  Name = *****
REMARK                            x       y       z     vdW  Elec       q    Type
REMARK                         _______ _______ _______ _____ _____    ______ ____
ROOT
ATOM      1  N   LIG    1       23.557 -31.598  10.745  0.00  0.00    -0.272 N 
ATOM      2  C   LIG    1       22.233 -31.194  11.002  0.00  0.00    +0.230 C 
ATOM      3  O   LIG    1       21.733 -30.232  10.364  0.00  0.00    -0.274 OA
ATOM      4  C   LIG    1       24.335 -32.571  11.551  0.00  0.00    +0.138 C 
ENDROOT
BRANCH   1   6
ATOM      5  C   LIG    1       25.195 -29.749  10.068  0.00  0.00    +0.009 A 
ATOM      6  C   LIG    1       24.406 -30.888   9.796  0.00  0.00    +0.062 A 
ATOM      7  C   LIG    1       24.207 -31.212   8.417  0.00  0.00    +0.137 A 
ATOM      8  N   LIG    1       24.567 -30.437   7.350  0.00  0.00    -0.238 NA
ATOM      9  C   LIG    1       25.230 -29.305   7.608  0.00  0.00    +0.122 A 
ATOM     10  C   LIG    1       25.634 -29.014   8.921  0.00  0.00    +0.054 A 
BRANCH   5  13
ATOM     11  C   LIG    1       28.112 -29.455  11.414  0.00  0.00    +0.044 C 
ATOM     12  C   LIG    1       26.806 -29.083  12.066  0.00  0.00    -0.043 A 
ATOM     13  C   LIG    1       25.533 -29.156  11.440  0.00  0.00    -0.013 A 
ATOM     14  C   LIG    1       24.468 -28.582  12.199  0.00  0.00    +0.009 A 
ATOM     15  C   LIG    1       24.609 -28.061  13.494  0.00  0.00    +0.001 A 
ATOM     16  C   LIG    1       25.837 -28.107  14.116  0.00  0.00    +0.000 A 
ATOM     17  C   LIG    1       26.923 -28.600  13.404  0.00  0.00    +0.004 A 
ENDBRANCH   5  13
BRANCH   9  18
ATOM     18  N   LIG    1       25.421 -28.300   6.618  0.00  0.00    -0.313 N 
ATOM     19  C   LIG    1       26.080 -27.118   7.239  0.00  0.00    +0.122 C 
ATOM     20  C   LIG    1       26.326 -25.993   6.200  0.00  0.00    +0.103 C 
ATOM     21  N   LIG    1       25.139 -25.563   5.431  0.00  0.00    -0.302 NA
ATOM     22  C   LIG    1       24.229 -24.751   6.236  0.00  0.00    +0.105 C 
ATOM     23  C   LIG    1       24.469 -26.767   4.887  0.00  0.00    +0.103 C 
ATOM     24  C   LIG    1       24.182 -27.911   5.907  0.00  0.00    +0.122 C 
ENDBRANCH   9  18
ENDBRANCH   1   6
BRANCH   2  25
ATOM     25  C   LIG    1       21.391 -31.814  12.229  0.00  0.00    +0.067 C 
ATOM     26  C   LIG    1       22.417 -32.440  13.204  0.00  0.00    +0.025 C 
ATOM     27  C   LIG    1       20.334 -32.891  11.906  0.00  0.00    +0.025 C 
BRANCH  25  28
ATOM     28  C   LIG    1       20.543 -30.681  12.956  0.00  0.00    -0.032 A 
ATOM     29  C   LIG    1       21.122 -29.450  13.350  0.00  0.00    +0.017 A 
ATOM     30  C   LIG    1       20.343 -28.416  13.932  0.00  0.00    +0.056 A 
ATOM     31  C   LIG    1       18.962 -28.607  14.098  0.00  0.00    +0.024 A 
ATOM     32  C   LIG    1       18.353 -29.795  13.686  0.00  0.00    +0.056 A 
ATOM     33  C   LIG    1       19.156 -30.813  13.141  0.00  0.00    +0.017 A 
BRANCH  30  34
ATOM     34  C   LIG    1       20.969 -27.103  14.361  0.00  0.00    +0.417 C 
ATOM     35  F   LIG    1       20.065 -26.250  14.918  0.00  0.00    -0.166 F 
ATOM     36  F   LIG    1       21.543 -26.425  13.331  0.00  0.00    -0.166 F 
ATOM     37  F   LIG    1       21.952 -27.253  15.297  0.00  0.00    -0.166 F 
ENDBRANCH  30  34
BRANCH  32  38
ATOM     38  C   LIG    1       16.863 -29.999  13.826  0.00  0.00    +0.417 C 
ATOM     39  F   LIG    1       16.538 -30.918  14.777  0.00  0.00    -0.166 F 
ATOM     40  F   LIG    1       16.286 -30.431  12.672  0.00  0.00    -0.166 F 
ATOM     41  F   LIG    1       16.200 -28.861  14.175  0.00  0.00    -0.166 F 
ENDBRANCH  32  38
ENDBRANCH  25  28
ENDBRANCH   2  25
TORSDOF 7
ENDMDL
MODEL 6
REMARK VINA RESULT:      -7.9      5.242      9.234
REMARK  Name = *****
REMARK                            x       y       z     vdW  Elec       q    Type
REMARK                         _______ _______ _______ _____ _____    ______ ____
ROOT
ATOM      1  N   LIG    1       24.593 -31.566   9.400  0.00  0.00    -0.272 N 
ATOM      2  C   LIG    1       23.259 -31.445   9.833  0.00  0.00    +0.230 C 
ATOM      3  O   LIG    1       22.582 -30.435   9.510  0.00  0.00    -0.274 OA
ATOM      4  C   LIG    1       25.562 -32.589   9.865  0.00  0.00    +0.138 C 
ENDROOT
BRANCH   1   6
ATOM      5  C   LIG    1       26.000 -29.439   9.159  0.00  0.00    +0.009 A 
ATOM      6  C   LIG    1       25.251 -30.514   8.634  0.00  0.00    +0.062 A 
ATOM      7  C   LIG    1       24.875 -30.417   7.258  0.00  0.00    +0.137 A 
ATOM      8  N   LIG    1       25.029 -29.318   6.458  0.00  0.00    -0.238 NA
ATOM      9  C   LIG    1       25.651 -28.259   6.983  0.00  0.00    +0.122 A 
ATOM     10  C   LIG    1       26.222 -28.345   8.264  0.00  0.00    +0.054 A 
BRANCH   5  13
ATOM     11  C   LIG    1       24.233 -28.772  11.775  0.00  0.00    +0.044 C 
ATOM     12  C   LIG    1       25.733 -28.907  11.744  0.00  0.00    -0.043 A 
ATOM     13  C   LIG    1       26.495 -29.264  10.600  0.00  0.00    -0.013 A 
ATOM     14  C   LIG    1       27.879 -29.502  10.861  0.00  0.00    +0.009 A 
ATOM     15  C   LIG    1       28.491 -29.320  12.111  0.00  0.00    +0.001 A 
ATOM     16  C   LIG    1       27.744 -28.865  13.175  0.00  0.00    +0.000 A 
ATOM     17  C   LIG    1       26.380 -28.674  12.994  0.00  0.00    +0.004 A 
ENDBRANCH   5  13
BRANCH   9  18
ATOM     18  N   LIG    1       25.634 -26.983   6.350  0.00  0.00    -0.313 N 
ATOM     19  C   LIG    1       25.878 -25.926   7.369  0.00  0.00    +0.122 C 
ATOM     20  C   LIG    1       25.885 -24.512   6.731  0.00  0.00    +0.103 C 
ATOM     21  N   LIG    1       24.695 -24.170   5.924  0.00  0.00    -0.302 NA
ATOM     22  C   LIG    1       23.527 -23.892   6.758  0.00  0.00    +0.105 C 
ATOM     23  C   LIG    1       24.440 -25.274   4.970  0.00  0.00    +0.103 C 
ATOM     24  C   LIG    1       24.401 -26.710   5.578  0.00  0.00    +0.122 C 
ENDBRANCH   9  18
ENDBRANCH   1   6
BRANCH   2  25
ATOM     25  C   LIG    1       22.623 -32.482  10.890  0.00  0.00    +0.067 C 
ATOM     26  C   LIG    1       23.738 -32.821  11.909  0.00  0.00    +0.025 C 
ATOM     27  C   LIG    1       22.065 -33.814  10.346  0.00  0.00    +0.025 C 
BRANCH  25  28
ATOM     28  C   LIG    1       21.369 -31.836  11.623  0.00  0.00    -0.032 A 
ATOM     29  C   LIG    1       21.513 -30.998  12.756  0.00  0.00    +0.017 A 
ATOM     30  C   LIG    1       20.395 -30.366  13.360  0.00  0.00    +0.056 A 
ATOM     31  C   LIG    1       19.117 -30.557  12.808  0.00  0.00    +0.024 A 
ATOM     32  C   LIG    1       18.945 -31.348  11.670  0.00  0.00    +0.056 A 
ATOM     33  C   LIG    1       20.067 -31.985  11.111  0.00  0.00    +0.017 A 
BRANCH  30  34
ATOM     34  C   LIG    1       20.553 -29.477  14.577  0.00  0.00    +0.417 C 
ATOM     35  F   LIG    1       21.643 -29.803  15.326  0.00  0.00    -0.166 F 
ATOM     36  F   LIG    1       19.486 -29.534  15.420  0.00  0.00    -0.166 F 
ATOM     37  F   LIG    1       20.707 -28.156  14.267  0.00  0.00    -0.166 F 
ENDBRANCH  30  34
BRANCH  32  38
ATOM     38  C   LIG    1       17.582 -31.531  11.045  0.00  0.00    +0.417 C 
ATOM     39  F   LIG    1       16.579 -30.981  11.784  0.00  0.00    -0.166 F 
ATOM     40  F   LIG    1       17.255 -32.842  10.883  0.00  0.00    -0.166 F 
ATOM     41  F   LIG    1       17.481 -30.964   9.810  0.00  0.00    -0.166 F 
ENDBRANCH  32  38
ENDBRANCH  25  28
ENDBRANCH   2  25
TORSDOF 7
ENDMDL
MODEL 7
REMARK VINA RESULT:      -7.8      6.876     11.932
REMARK  Name = *****
REMARK                            x       y       z     vdW  Elec       q    Type
REMARK                         _______ _______ _______ _____ _____    ______ ____
ROOT
ATOM      1  N   LIG    1       23.344 -30.879  11.237  0.00  0.00    -0.272 N 
ATOM      2  C   LIG    1       23.740 -30.483   9.946  0.00  0.00    +0.230 C 
ATOM      3  O   LIG    1       22.873 -30.274   9.058  0.00  0.00    -0.274 OA
ATOM      4  C   LIG    1       24.253 -31.350  12.313  0.00  0.00    +0.138 C 
ENDROOT
BRANCH   1   6
ATOM      5  C   LIG    1       21.185 -30.435  12.541  0.00  0.00    +0.009 A 
ATOM      6  C   LIG    1       21.947 -31.124  11.572  0.00  0.00    +0.062 A 
ATOM      7  C   LIG    1       21.388 -32.340  11.068  0.00  0.00    +0.137 A 
ATOM      8  N   LIG    1       20.278 -32.975  11.551  0.00  0.00    -0.238 NA
ATOM      9  C   LIG    1       19.607 -32.374  12.538  0.00  0.00    +0.122 A 
ATOM     10  C   LIG    1       19.980 -31.086  12.955  0.00  0.00    +0.054 A 
BRANCH   5  13
ATOM     11  C   LIG    1       22.901 -30.143  15.257  0.00  0.00    +0.044 C 
ATOM     12  C   LIG    1       22.257 -29.009  14.503  0.00  0.00    -0.043 A 
ATOM     13  C   LIG    1       21.559 -29.141  13.273  0.00  0.00    -0.013 A 
ATOM     14  C   LIG    1       21.195 -27.902  12.663  0.00  0.00    +0.009 A 
ATOM     15  C   LIG    1       21.410 -26.642  13.242  0.00  0.00    +0.001 A 
ATOM     16  C   LIG    1       21.990 -26.555  14.488  0.00  0.00    +0.000 A 
ATOM     17  C   LIG    1       22.420 -27.724  15.102  0.00  0.00    +0.004 A 
ENDBRANCH   5  13
BRANCH   9  18
ATOM     18  N   LIG    1       18.607 -33.051  13.293  0.00  0.00    -0.313 N 
ATOM     19  C   LIG    1       17.262 -32.651  12.797  0.00  0.00    +0.122 C 
ATOM     20  C   LIG    1       16.131 -33.371  13.577  0.00  0.00    +0.103 C 
ATOM     21  N   LIG    1       16.186 -33.240  15.048  0.00  0.00    -0.302 NA
ATOM     22  C   LIG    1       15.777 -31.910  15.496  0.00  0.00    +0.105 C 
ATOM     23  C   LIG    1       17.555 -33.577  15.500  0.00  0.00    +0.103 C 
ATOM     24  C   LIG    1       18.720 -32.854  14.756  0.00  0.00    +0.122 C 
ENDBRANCH   9  18
ENDBRANCH   1   6
BRANCH   2  25
ATOM     25  C   LIG    1       25.293 -30.465   9.513  0.00  0.00    +0.067 C 
ATOM     26  C   LIG    1       25.871 -31.856   9.869  0.00  0.00    +0.025 C 
ATOM     27  C   LIG    1       26.207 -29.399  10.153  0.00  0.00    +0.025 C 
BRANCH  25  28
ATOM     28  C   LIG    1       25.437 -30.178   7.956  0.00  0.00    -0.032 A 
ATOM     29  C   LIG    1       25.529 -31.225   7.006  0.00  0.00    +0.017 A 
ATOM     30  C   LIG    1       25.583 -30.962   5.613  0.00  0.00    +0.056 A 
ATOM     31  C   LIG    1       25.520 -29.633   5.162  0.00  0.00    +0.024 A 
ATOM     32  C   LIG    1       25.391 -28.579   6.069  0.00  0.00    +0.056 A 
ATOM     33  C   LIG    1       25.370 -28.869   7.445  0.00  0.00    +0.017 A 
BRANCH  30  34
ATOM     34  C   LIG    1       25.692 -32.086   4.601  0.00  0.00    +0.417 C 
ATOM     35  F   LIG    1       26.926 -32.662   4.589  0.00  0.00    -0.166 F 
ATOM     36  F   LIG    1       25.453 -31.678   3.325  0.00  0.00    -0.166 F 
ATOM     37  F   LIG    1       24.816 -33.107   4.831  0.00  0.00    -0.166 F 
ENDBRANCH  30  34
BRANCH  32  38
ATOM     38  C   LIG    1       25.285 -27.149   5.596  0.00  0.00    +0.417 C 
ATOM     39  F   LIG    1       24.004 -26.687   5.579  0.00  0.00    -0.166 F 
ATOM     40  F   LIG    1       25.763 -26.981   4.333  0.00  0.00    -0.166 F 
ATOM     41  F   LIG    1       25.979 -26.276   6.379  0.00  0.00    -0.166 F 
ENDBRANCH  32  38
ENDBRANCH  25  28
ENDBRANCH   2  25
TORSDOF 7
ENDMDL
MODEL 8
REMARK VINA RESULT:      -7.7      5.947     10.173
REMARK  Name = *****
REMARK                            x       y       z     vdW  Elec       q    Type
REMARK                         _______ _______ _______ _____ _____    ______ ____
ROOT
ATOM      1  N   LIG    1       23.764 -31.409  10.791  0.00  0.00    -0.272 N 
ATOM      2  C   LIG    1       22.448 -31.023  11.108  0.00  0.00    +0.230 C 
ATOM      3  O   LIG    1       21.878 -30.122  10.440  0.00  0.00    -0.274 OA
ATOM      4  C   LIG    1       24.622 -32.303  11.608  0.00  0.00    +0.138 C 
ENDROOT
BRANCH   1   6
ATOM      5  C   LIG    1       25.529 -29.768   9.925  0.00  0.00    +0.009 A 
ATOM      6  C   LIG    1       24.528 -30.746   9.741  0.00  0.00    +0.062 A 
ATOM      7  C   LIG    1       24.028 -30.906   8.411  0.00  0.00    +0.137 A 
ATOM      8  N   LIG    1       24.307 -30.095   7.345  0.00  0.00    -0.238 NA
ATOM      9  C   LIG    1       25.181 -29.103   7.540  0.00  0.00    +0.122 A 
ATOM     10  C   LIG    1       25.863 -29.001   8.764  0.00  0.00    +0.054 A 
BRANCH   5  13
ATOM     11  C   LIG    1       24.171 -28.318  12.467  0.00  0.00    +0.044 C 
ATOM     12  C   LIG    1       25.630 -28.667  12.335  0.00  0.00    -0.043 A 
ATOM     13  C   LIG    1       26.206 -29.363  11.239  0.00  0.00    -0.013 A 
ATOM     14  C   LIG    1       27.573 -29.732  11.426  0.00  0.00    +0.009 A 
ATOM     15  C   LIG    1       28.344 -29.377  12.543  0.00  0.00    +0.001 A 
ATOM     16  C   LIG    1       27.785 -28.605  13.538  0.00  0.00    +0.000 A 
ATOM     17  C   LIG    1       26.441 -28.267  13.439  0.00  0.00    +0.004 A 
ENDBRANCH   5  13
BRANCH   9  18
ATOM     18  N   LIG    1       25.348 -28.048   6.598  0.00  0.00    -0.313 N 
ATOM     19  C   LIG    1       26.092 -26.930   7.241  0.00  0.00    +0.122 C 
ATOM     20  C   LIG    1       26.315 -25.755   6.253  0.00  0.00    +0.103 C 
ATOM     21  N   LIG    1       25.099 -25.237   5.591  0.00  0.00    -0.302 NA
ATOM     22  C   LIG    1       24.276 -24.443   6.500  0.00  0.00    +0.105 C 
ATOM     23  C   LIG    1       24.348 -26.382   5.025  0.00  0.00    +0.103 C 
ATOM     24  C   LIG    1       24.082 -27.573   5.995  0.00  0.00    +0.122 C 
ENDBRANCH   9  18
ENDBRANCH   1   6
BRANCH   2  25
ATOM     25  C   LIG    1       21.706 -31.576  12.428  0.00  0.00    +0.067 C 
ATOM     26  C   LIG    1       22.803 -31.793  13.499  0.00  0.00    +0.025 C 
ATOM     27  C   LIG    1       20.905 -32.890  12.307  0.00  0.00    +0.025 C 
BRANCH  25  28
ATOM     28  C   LIG    1       20.619 -30.534  12.938  0.00  0.00    -0.032 A 
ATOM     29  C   LIG    1       19.245 -30.867  13.025  0.00  0.00    +0.017 A 
ATOM     30  C   LIG    1       18.292 -29.956  13.551  0.00  0.00    +0.056 A 
ATOM     31  C   LIG    1       18.725 -28.704  14.020  0.00  0.00    +0.024 A 
ATOM     32  C   LIG    1       20.077 -28.359  13.983  0.00  0.00    +0.056 A 
ATOM     33  C   LIG    1       20.994 -29.270  13.429  0.00  0.00    +0.017 A 
BRANCH  30  34
ATOM     34  C   LIG    1       16.821 -30.313  13.633  0.00  0.00    +0.417 C 
ATOM     35  F   LIG    1       16.344 -30.838  12.470  0.00  0.00    -0.166 F 
ATOM     36  F   LIG    1       16.029 -29.243  13.917  0.00  0.00    -0.166 F 
ATOM     37  F   LIG    1       16.543 -31.243  14.593  0.00  0.00    -0.166 F 
ENDBRANCH  30  34
BRANCH  32  38
ATOM     38  C   LIG    1       20.560 -27.031  14.517  0.00  0.00    +0.417 C 
ATOM     39  F   LIG    1       19.561 -26.281  15.061  0.00  0.00    -0.166 F 
ATOM     40  F   LIG    1       21.130 -26.258  13.553  0.00  0.00    -0.166 F 
ATOM     41  F   LIG    1       21.497 -27.160  15.498  0.00  0.00    -0.166 F 
ENDBRANCH  32  38
ENDBRANCH  25  28
ENDBRANCH   2  25
TORSDOF 7
ENDMDL
MODEL 9
REMARK VINA RESULT:      -7.7      5.177      9.489
REMARK  Name = *****
REMARK                            x       y       z     vdW  Elec       q    Type
REMARK                         _______ _______ _______ _____ _____    ______ ____
ROOT
ATOM      1  N   LIG    1       24.617 -31.490   9.056  0.00  0.00    -0.272 N 
ATOM      2  C   LIG    1       23.301 -31.364   9.540  0.00  0.00    +0.230 C 
ATOM      3  O   LIG    1       22.650 -30.309   9.327  0.00  0.00    -0.274 OA
ATOM      4  C   LIG    1       25.563 -32.580   9.400  0.00  0.00    +0.138 C 
ENDROOT
BRANCH   1   6
ATOM      5  C   LIG    1       26.013 -29.345   8.960  0.00  0.00    +0.009 A 
ATOM      6  C   LIG    1       25.287 -30.398   8.361  0.00  0.00    +0.062 A 
ATOM      7  C   LIG    1       24.950 -30.235   6.981  0.00  0.00    +0.137 A 
ATOM      8  N   LIG    1       25.117 -29.098   6.241  0.00  0.00    -0.238 NA
ATOM      9  C   LIG    1       25.716 -28.061   6.835  0.00  0.00    +0.122 A 
ATOM     10  C   LIG    1       26.252 -28.207   8.125  0.00  0.00    +0.054 A 
BRANCH   5  13
ATOM     11  C   LIG    1       24.160 -28.895  11.562  0.00  0.00    +0.044 C 
ATOM     12  C   LIG    1       25.664 -28.975  11.563  0.00  0.00    -0.043 A 
ATOM     13  C   LIG    1       26.466 -29.238  10.420  0.00  0.00    -0.013 A 
ATOM     14  C   LIG    1       27.851 -29.443  10.704  0.00  0.00    +0.009 A 
ATOM     15  C   LIG    1       28.426 -29.314  11.978  0.00  0.00    +0.001 A 
ATOM     16  C   LIG    1       27.637 -28.948  13.046  0.00  0.00    +0.000 A 
ATOM     17  C   LIG    1       26.271 -28.795  12.841  0.00  0.00    +0.004 A 
ENDBRANCH   5  13
BRANCH   9  18
ATOM     18  N   LIG    1       25.708 -26.756   6.265  0.00  0.00    -0.313 N 
ATOM     19  C   LIG    1       25.878 -25.747   7.346  0.00  0.00    +0.122 C 
ATOM     20  C   LIG    1       25.890 -24.303   6.779  0.00  0.00    +0.103 C 
ATOM     21  N   LIG    1       24.737 -23.942   5.928  0.00  0.00    -0.302 NA
ATOM     22  C   LIG    1       23.523 -23.725   6.712  0.00  0.00    +0.105 C 
ATOM     23  C   LIG    1       24.553 -25.001   4.909  0.00  0.00    +0.103 C 
ATOM     24  C   LIG    1       24.511 -26.465   5.443  0.00  0.00    +0.122 C 
ENDBRANCH   9  18
ENDBRANCH   1   6
BRANCH   2  25
ATOM     25  C   LIG    1       22.661 -32.468  10.525  0.00  0.00    +0.067 C 
ATOM     26  C   LIG    1       23.767 -32.861  11.534  0.00  0.00    +0.025 C 
ATOM     27  C   LIG    1       22.118 -33.768   9.895  0.00  0.00    +0.025 C 
BRANCH  25  28
ATOM     28  C   LIG    1       21.394 -31.876  11.282  0.00  0.00    -0.032 A 
ATOM     29  C   LIG    1       20.087 -31.972  10.744  0.00  0.00    +0.017 A 
ATOM     30  C   LIG    1       18.953 -31.507  11.459  0.00  0.00    +0.056 A 
ATOM     31  C   LIG    1       19.126 -30.960  12.742  0.00  0.00    +0.024 A 
ATOM     32  C   LIG    1       20.397 -30.884  13.317  0.00  0.00    +0.056 A 
ATOM     33  C   LIG    1       21.505 -31.326  12.572  0.00  0.00    +0.017 A 
BRANCH  30  34
ATOM     34  C   LIG    1       17.557 -31.603  10.875  0.00  0.00    +0.417 C 
ATOM     35  F   LIG    1       16.594 -31.204  11.751  0.00  0.00    -0.166 F 
ATOM     36  F   LIG    1       17.224 -32.868  10.499  0.00  0.00    -0.166 F 
ATOM     37  F   LIG    1       17.382 -30.830   9.764  0.00  0.00    -0.166 F 
ENDBRANCH  30  34
BRANCH  32  38
ATOM     38  C   LIG    1       20.592 -30.332  14.709  0.00  0.00    +0.417 C 
ATOM     39  F   LIG    1       19.422 -30.159  15.383  0.00  0.00    -0.166 F 
ATOM     40  F   LIG    1       21.210 -29.120  14.707  0.00  0.00    -0.166 F 
ATOM     41  F   LIG    1       21.354 -31.140  15.500  0.00  0.00    -0.166 F 
ENDBRANCH  32  38
ENDBRANCH  25  28
ENDBRANCH   2  25
TORSDOF 7
ENDMDL
