MODEL 1
REMARK VINA RESULT:      -7.2      0.000      0.000
REMARK  Name = *****
REMARK                            x       y       z     vdW  Elec       q    Type
REMARK                         _______ _______ _______ _____ _____    ______ ____
ROOT
ATOM      1  C   LIG    1       31.005 -18.853   7.398  0.00  0.00    +0.006 C 
ATOM      2  C   LIG    1       30.388 -18.431   6.081  0.00  0.00    +0.107 C 
ATOM      3  S   LIG    1       28.692 -19.011   5.852  0.00  0.00    -0.131 S 
ATOM      4  C   LIG    1       29.132 -20.714   6.262  0.00  0.00    +0.169 C 
ATOM      5  N   LIG    1       29.598 -20.734   7.637  0.00  0.00    -0.249 N 
ATOM      6  C   LIG    1       28.779 -21.702   8.076  0.00  0.00    +0.244 C 
ATOM      7  O   LIG    1       28.744 -22.275   9.120  0.00  0.00    -0.273 OA
ATOM      8  CA  LIG    1       27.985 -21.661   6.731  0.00  0.00    +0.191 C 
ATOM      9  CA  LIG    1       30.581 -19.926   8.132  0.00  0.00    +0.125 C 
ENDROOT
BRANCH   8  10
ATOM     10  N   LIG    1       26.606 -21.109   6.814  0.00  0.00    -0.300 N 
ATOM     11  H   LIG    1       26.439 -20.114   6.705  0.00  0.00    +0.150 HD
ATOM     12  C   LIG    1       25.525 -21.973   6.707  0.00  0.00    +0.235 C 
ATOM     13  O   LIG    1       25.723 -23.174   6.536  0.00  0.00    -0.274 OA
BRANCH  12  14
ATOM     14  CA  LIG    1       24.136 -21.284   6.877  0.00  0.00    +0.168 C 
BRANCH  14  15
ATOM     15  C   LIG    1       23.718 -20.361   5.739  0.00  0.00    -0.022 A 
ATOM     16  C   LIG    1       22.522 -19.625   5.776  0.00  0.00    +0.006 A 
ATOM     17  C   LIG    1       22.144 -18.793   4.722  0.00  0.00    +0.000 A 
ATOM     18  C   LIG    1       22.976 -18.647   3.618  0.00  0.00    +0.000 A 
ATOM     19  C   LIG    1       24.187 -19.334   3.573  0.00  0.00    +0.000 A 
ATOM     20  C   LIG    1       24.559 -20.182   4.625  0.00  0.00    +0.006 A 
ENDBRANCH  14  15
BRANCH  14  21
ATOM     21  N   LIG    1       23.113 -22.335   7.081  0.00  0.00    -0.316 NA
ATOM     22  H1  LIG    1       23.264 -23.098   6.425  0.00  0.00    +0.119 HD
ATOM     23  H2  LIG    1       22.207 -21.937   6.831  0.00  0.00    +0.119 HD
ENDBRANCH  14  21
ENDBRANCH  12  14
ENDBRANCH   8  10
BRANCH   9  24
ATOM     24  C   LIG    1       31.142 -20.158   9.519  0.00  0.00    +0.351 C 
ATOM     25  O   LIG    1       31.927 -21.055   9.788  0.00  0.00    -0.244 OA
BRANCH  24  26
ATOM     26  OXT LIG    1       30.676 -19.339  10.481  0.00  0.00    -0.476 OA
ATOM     27  HXT LIG    1       29.701 -19.288  10.575  0.00  0.00    +0.295 HD
ENDBRANCH  24  26
ENDBRANCH   9  24
BRANCH   1  28
ATOM     28  C   LIG    1       32.137 -17.940   7.833  0.00  0.00    +0.266 C 
BRANCH  28  29
ATOM     29  O   LIG    1       31.722 -16.910   8.748  0.00  0.00    -0.460 OA
BRANCH  29  31
ATOM     30  C   LIG    1       33.024 -15.324   9.854  0.00  0.00    +0.136 C 
ATOM     31  C   LIG    1       32.517 -16.732   9.836  0.00  0.00    +0.304 C 
ATOM     32  O   LIG    1       32.722 -17.562  10.709  0.00  0.00    -0.251 OA
ENDBRANCH  29  31
ENDBRANCH  28  29
ENDBRANCH   1  28
TORSDOF 9
ENDMDL
MODEL 2
REMARK VINA RESULT:      -6.8      7.303     10.670
REMARK  Name = *****
REMARK                            x       y       z     vdW  Elec       q    Type
REMARK                         _______ _______ _______ _____ _____    ______ ____
ROOT
ATOM      1  C   LIG    1       25.811 -31.007   9.061  0.00  0.00    +0.006 C 
ATOM      2  C   LIG    1       26.808 -29.912   9.379  0.00  0.00    +0.107 C 
ATOM      3  S   LIG    1       26.340 -28.290   8.737  0.00  0.00    -0.131 S 
ATOM      4  C   LIG    1       26.049 -28.939   7.077  0.00  0.00    +0.169 C 
ATOM      5  N   LIG    1       24.959 -29.896   7.159  0.00  0.00    -0.249 N 
ATOM      6  C   LIG    1       24.193 -29.357   6.198  0.00  0.00    +0.244 C 
ATOM      7  O   LIG    1       23.189 -29.753   5.692  0.00  0.00    -0.273 OA
ATOM      8  CA  LIG    1       25.130 -28.109   6.130  0.00  0.00    +0.191 C 
ATOM      9  CA  LIG    1       24.919 -30.951   8.026  0.00  0.00    +0.125 C 
ENDROOT
BRANCH   8  10
ATOM     10  N   LIG    1       24.551 -26.839   6.646  0.00  0.00    -0.300 N 
ATOM     11  H   LIG    1       23.928 -26.842   7.446  0.00  0.00    +0.150 HD
ATOM     12  C   LIG    1       25.112 -25.632   6.253  0.00  0.00    +0.235 C 
ATOM     13  O   LIG    1       26.081 -25.631   5.497  0.00  0.00    -0.274 OA
BRANCH  12  14
ATOM     14  CA  LIG    1       24.375 -24.374   6.806  0.00  0.00    +0.168 C 
BRANCH  14  15
ATOM     15  C   LIG    1       25.067 -23.041   6.546  0.00  0.00    -0.022 A 
ATOM     16  C   LIG    1       24.613 -22.143   5.566  0.00  0.00    +0.006 A 
ATOM     17  C   LIG    1       25.263 -20.932   5.329  0.00  0.00    +0.000 A 
ATOM     18  C   LIG    1       26.363 -20.570   6.097  0.00  0.00    +0.000 A 
ATOM     19  C   LIG    1       26.810 -21.423   7.104  0.00  0.00    +0.000 A 
ATOM     20  C   LIG    1       26.167 -22.648   7.331  0.00  0.00    +0.006 A 
ENDBRANCH  14  15
BRANCH  14  21
ATOM     21  N   LIG    1       23.003 -24.351   6.249  0.00  0.00    -0.316 NA
ATOM     22  H1  LIG    1       22.369 -24.849   6.867  0.00  0.00    +0.119 HD
ATOM     23  H2  LIG    1       23.014 -24.889   5.380  0.00  0.00    +0.119 HD
ENDBRANCH  14  21
ENDBRANCH  12  14
ENDBRANCH   8  10
BRANCH   9  24
ATOM     24  C   LIG    1       23.845 -32.009   7.899  0.00  0.00    +0.351 C 
ATOM     25  O   LIG    1       23.910 -32.947   7.118  0.00  0.00    -0.244 OA
BRANCH  24  26
ATOM     26  OXT LIG    1       22.756 -31.831   8.672  0.00  0.00    -0.476 OA
ATOM     27  HXT LIG    1       21.887 -31.959   8.236  0.00  0.00    +0.295 HD
ENDBRANCH  24  26
ENDBRANCH   9  24
BRANCH   1  28
ATOM     28  C   LIG    1       25.889 -32.170  10.032  0.00  0.00    +0.266 C 
BRANCH  28  29
ATOM     29  O   LIG    1       25.753 -31.776  11.409  0.00  0.00    -0.460 OA
BRANCH  29  31
ATOM     30  C   LIG    1       24.557 -30.087  12.482  0.00  0.00    +0.136 C 
ATOM     31  C   LIG    1       24.502 -31.418  11.799  0.00  0.00    +0.304 C 
ATOM     32  O   LIG    1       23.478 -32.040  11.560  0.00  0.00    -0.251 OA
ENDBRANCH  29  31
ENDBRANCH  28  29
ENDBRANCH   1  28
TORSDOF 9
ENDMDL
MODEL 3
REMARK VINA RESULT:      -6.7      7.813     10.304
REMARK  Name = *****
REMARK                            x       y       z     vdW  Elec       q    Type
REMARK                         _______ _______ _______ _____ _____    ______ ____
ROOT
ATOM      1  C   LIG    1       25.078 -28.939  12.203  0.00  0.00    +0.006 C 
ATOM      2  C   LIG    1       26.515 -28.540  11.935  0.00  0.00    +0.107 C 
ATOM      3  S   LIG    1       26.871 -28.222  10.193  0.00  0.00    -0.131 S 
ATOM      4  C   LIG    1       26.145 -29.792   9.673  0.00  0.00    +0.169 C 
ATOM      5  N   LIG    1       24.734 -29.766  10.018  0.00  0.00    -0.249 N 
ATOM      6  C   LIG    1       24.260 -30.079   8.803  0.00  0.00    +0.244 C 
ATOM      7  O   LIG    1       23.153 -30.333   8.443  0.00  0.00    -0.273 OA
ATOM      8  CA  LIG    1       25.688 -29.918   8.188  0.00  0.00    +0.191 C 
ATOM      9  CA  LIG    1       24.247 -29.480  11.262  0.00  0.00    +0.125 C 
ENDROOT
BRANCH   8  10
ATOM     10  N   LIG    1       25.874 -28.744   7.293  0.00  0.00    -0.300 N 
ATOM     11  H   LIG    1       26.384 -27.926   7.610  0.00  0.00    +0.150 HD
ATOM     12  C   LIG    1       25.646 -28.890   5.931  0.00  0.00    +0.235 C 
ATOM     13  O   LIG    1       25.305 -29.984   5.487  0.00  0.00    -0.274 OA
BRANCH  12  14
ATOM     14  CA  LIG    1       25.809 -27.574   5.110  0.00  0.00    +0.168 C 
BRANCH  14  15
ATOM     15  C   LIG    1       25.337 -26.303   5.808  0.00  0.00    -0.022 A 
ATOM     16  C   LIG    1       26.234 -25.410   6.418  0.00  0.00    +0.006 A 
ATOM     17  C   LIG    1       25.789 -24.257   7.064  0.00  0.00    +0.000 A 
ATOM     18  C   LIG    1       24.435 -23.948   7.082  0.00  0.00    +0.000 A 
ATOM     19  C   LIG    1       23.526 -24.795   6.450  0.00  0.00    +0.000 A 
ATOM     20  C   LIG    1       23.972 -25.962   5.814  0.00  0.00    +0.006 A 
ENDBRANCH  14  15
BRANCH  14  21
ATOM     21  N   LIG    1       27.229 -27.440   4.717  0.00  0.00    -0.316 NA
ATOM     22  H1  LIG    1       27.830 -27.784   5.461  0.00  0.00    +0.119 HD
ATOM     23  H2  LIG    1       27.436 -26.442   4.640  0.00  0.00    +0.119 HD
ENDBRANCH  14  21
ENDBRANCH  12  14
ENDBRANCH   8  10
BRANCH   9  24
ATOM     24  C   LIG    1       22.780 -29.677  11.577  0.00  0.00    +0.351 C 
ATOM     25  O   LIG    1       22.059 -28.794  12.015  0.00  0.00    -0.244 OA
BRANCH  24  26
ATOM     26  OXT LIG    1       22.309 -30.927  11.397  0.00  0.00    -0.476 OA
ATOM     27  HXT LIG    1       22.314 -31.511  12.185  0.00  0.00    +0.295 HD
ENDBRANCH  24  26
ENDBRANCH   9  24
BRANCH   1  28
ATOM     28  C   LIG    1       24.648 -28.652  13.630  0.00  0.00    +0.266 C 
BRANCH  28  29
ATOM     29  O   LIG    1       25.139 -27.398  14.134  0.00  0.00    -0.460 OA
BRANCH  29  31
ATOM     30  C   LIG    1       25.315 -25.111  13.717  0.00  0.00    +0.136 C 
ATOM     31  C   LIG    1       24.410 -26.301  13.800  0.00  0.00    +0.304 C 
ATOM     32  O   LIG    1       23.220 -26.295  13.527  0.00  0.00    -0.251 OA
ENDBRANCH  29  31
ENDBRANCH  28  29
ENDBRANCH   1  28
TORSDOF 9
ENDMDL
MODEL 4
REMARK VINA RESULT:      -6.7      3.998      6.100
REMARK  Name = *****
REMARK                            x       y       z     vdW  Elec       q    Type
REMARK                         _______ _______ _______ _____ _____    ______ ____
ROOT
ATOM      1  C   LIG    1       27.713 -20.254   7.330  0.00  0.00    +0.006 C 
ATOM      2  C   LIG    1       27.413 -21.311   8.372  0.00  0.00    +0.107 C 
ATOM      3  S   LIG    1       26.582 -22.772   7.711  0.00  0.00    -0.131 S 
ATOM      4  C   LIG    1       25.318 -21.781   6.885  0.00  0.00    +0.169 C 
ATOM      5  N   LIG    1       25.979 -20.957   5.888  0.00  0.00    -0.249 N 
ATOM      6  C   LIG    1       25.219 -21.317   4.844  0.00  0.00    +0.244 C 
ATOM      7  O   LIG    1       25.178 -20.894   3.730  0.00  0.00    -0.273 OA
ATOM      8  CA  LIG    1       24.547 -22.439   5.700  0.00  0.00    +0.191 C 
ATOM      9  CA  LIG    1       27.042 -20.138   6.144  0.00  0.00    +0.125 C 
ENDROOT
BRANCH   8  10
ATOM     10  N   LIG    1       24.897 -23.835   5.321  0.00  0.00    -0.300 N 
ATOM     11  H   LIG    1       25.754 -24.035   4.817  0.00  0.00    +0.150 HD
ATOM     12  C   LIG    1       24.233 -24.888   5.935  0.00  0.00    +0.235 C 
ATOM     13  O   LIG    1       23.378 -24.652   6.786  0.00  0.00    -0.274 OA
BRANCH  12  14
ATOM     14  CA  LIG    1       24.640 -26.297   5.405  0.00  0.00    +0.168 C 
BRANCH  14  15
ATOM     15  C   LIG    1       24.950 -27.336   6.476  0.00  0.00    -0.022 A 
ATOM     16  C   LIG    1       24.239 -28.544   6.572  0.00  0.00    +0.006 A 
ATOM     17  C   LIG    1       24.525 -29.481   7.565  0.00  0.00    +0.000 A 
ATOM     18  C   LIG    1       25.559 -29.250   8.463  0.00  0.00    +0.000 A 
ATOM     19  C   LIG    1       26.308 -28.079   8.365  0.00  0.00    +0.000 A 
ATOM     20  C   LIG    1       26.011 -27.130   7.378  0.00  0.00    +0.006 A 
ENDBRANCH  14  15
BRANCH  14  21
ATOM     21  N   LIG    1       23.565 -26.791   4.514  0.00  0.00    -0.316 NA
ATOM     22  H1  LIG    1       23.375 -26.106   3.787  0.00  0.00    +0.119 HD
ATOM     23  H2  LIG    1       22.708 -26.846   5.066  0.00  0.00    +0.119 HD
ENDBRANCH  14  21
ENDBRANCH  12  14
ENDBRANCH   8  10
BRANCH   9  24
ATOM     24  C   LIG    1       27.533 -19.166   5.093  0.00  0.00    +0.351 C 
ATOM     25  O   LIG    1       28.683 -18.756   5.036  0.00  0.00    -0.244 OA
BRANCH  24  26
ATOM     26  OXT LIG    1       26.598 -18.718   4.232  0.00  0.00    -0.476 OA
ATOM     27  HXT LIG    1       25.835 -18.244   4.626  0.00  0.00    +0.295 HD
ENDBRANCH  24  26
ENDBRANCH   9  24
BRANCH   1  28
ATOM     28  C   LIG    1       28.859 -19.344   7.732  0.00  0.00    +0.266 C 
BRANCH  28  29
ATOM     29  O   LIG    1       29.694 -19.899   8.764  0.00  0.00    -0.460 OA
BRANCH  29  31
ATOM     30  C   LIG    1       31.280 -19.238   7.189  0.00  0.00    +0.136 C 
ATOM     31  C   LIG    1       31.028 -19.906   8.504  0.00  0.00    +0.304 C 
ATOM     32  O   LIG    1       31.897 -20.316   9.259  0.00  0.00    -0.251 OA
ENDBRANCH  29  31
ENDBRANCH  28  29
ENDBRANCH   1  28
TORSDOF 9
ENDMDL
MODEL 5
REMARK VINA RESULT:      -6.6      2.910      4.477
REMARK  Name = *****
REMARK                            x       y       z     vdW  Elec       q    Type
REMARK                         _______ _______ _______ _____ _____    ______ ____
ROOT
ATOM      1  C   LIG    1       29.579 -20.403   7.707  0.00  0.00    +0.006 C 
ATOM      2  C   LIG    1       28.898 -21.312   8.708  0.00  0.00    +0.107 C 
ATOM      3  S   LIG    1       27.358 -22.039   8.105  0.00  0.00    -0.131 S 
ATOM      4  C   LIG    1       26.706 -20.435   7.591  0.00  0.00    +0.169 C 
ATOM      5  N   LIG    1       27.577 -19.912   6.553  0.00  0.00    -0.249 N 
ATOM      6  C   LIG    1       26.624 -19.677   5.639  0.00  0.00    +0.244 C 
ATOM      7  O   LIG    1       26.680 -19.127   4.583  0.00  0.00    -0.273 OA
ATOM      8  CA  LIG    1       25.574 -20.427   6.520  0.00  0.00    +0.191 C 
ATOM      9  CA  LIG    1       28.933 -19.787   6.672  0.00  0.00    +0.125 C 
ENDROOT
BRANCH   8  10
ATOM     10  N   LIG    1       25.100 -21.733   5.987  0.00  0.00    -0.300 N 
ATOM     11  H   LIG    1       25.669 -22.263   5.335  0.00  0.00    +0.150 HD
ATOM     12  C   LIG    1       24.050 -22.381   6.622  0.00  0.00    +0.235 C 
ATOM     13  O   LIG    1       23.537 -21.874   7.617  0.00  0.00    -0.274 OA
BRANCH  12  14
ATOM     14  CA  LIG    1       23.603 -23.705   5.929  0.00  0.00    +0.168 C 
BRANCH  14  15
ATOM     15  C   LIG    1       24.646 -24.816   5.902  0.00  0.00    -0.022 A 
ATOM     16  C   LIG    1       25.338 -25.218   7.057  0.00  0.00    +0.006 A 
ATOM     17  C   LIG    1       26.300 -26.227   7.017  0.00  0.00    +0.000 A 
ATOM     18  C   LIG    1       26.564 -26.889   5.824  0.00  0.00    +0.000 A 
ATOM     19  C   LIG    1       25.863 -26.540   4.672  0.00  0.00    +0.000 A 
ATOM     20  C   LIG    1       24.908 -25.514   4.709  0.00  0.00    +0.006 A 
ENDBRANCH  14  15
BRANCH  14  21
ATOM     21  N   LIG    1       22.367 -24.184   6.589  0.00  0.00    -0.316 NA
ATOM     22  H1  LIG    1       22.594 -24.899   7.276  0.00  0.00    +0.119 HD
ATOM     23  H2  LIG    1       21.803 -24.658   5.881  0.00  0.00    +0.119 HD
ENDBRANCH  14  21
ENDBRANCH  12  14
ENDBRANCH   8  10
BRANCH   9  24
ATOM     24  C   LIG    1       29.730 -19.044   5.621  0.00  0.00    +0.351 C 
ATOM     25  O   LIG    1       30.934 -19.179   5.467  0.00  0.00    -0.244 OA
BRANCH  24  26
ATOM     26  OXT LIG    1       29.035 -18.159   4.880  0.00  0.00    -0.476 OA
ATOM     27  HXT LIG    1       29.269 -17.214   4.999  0.00  0.00    +0.295 HD
ENDBRANCH  24  26
ENDBRANCH   9  24
BRANCH   1  28
ATOM     28  C   LIG    1       31.069 -20.264   7.961  0.00  0.00    +0.266 C 
BRANCH  28  29
ATOM     29  O   LIG    1       31.379 -19.524   9.155  0.00  0.00    -0.460 OA
BRANCH  29  31
ATOM     30  C   LIG    1       30.399 -17.626  10.089  0.00  0.00    +0.136 C 
ATOM     31  C   LIG    1       31.319 -18.171   9.042  0.00  0.00    +0.304 C 
ATOM     32  O   LIG    1       31.974 -17.493   8.265  0.00  0.00    -0.251 OA
ENDBRANCH  29  31
ENDBRANCH  28  29
ENDBRANCH   1  28
TORSDOF 9
ENDMDL
MODEL 6
REMARK VINA RESULT:      -6.3      3.478      5.115
REMARK  Name = *****
REMARK                            x       y       z     vdW  Elec       q    Type
REMARK                         _______ _______ _______ _____ _____    ______ ____
ROOT
ATOM      1  C   LIG    1       30.255 -19.818   7.568  0.00  0.00    +0.006 C 
ATOM      2  C   LIG    1       30.380 -21.055   8.434  0.00  0.00    +0.107 C 
ATOM      3  S   LIG    1       29.253 -22.388   7.968  0.00  0.00    -0.131 S 
ATOM      4  C   LIG    1       27.819 -21.290   7.977  0.00  0.00    +0.169 C 
ATOM      5  N   LIG    1       28.023 -20.283   6.951  0.00  0.00    -0.249 N 
ATOM      6  C   LIG    1       26.859 -20.461   6.309  0.00  0.00    +0.244 C 
ATOM      7  O   LIG    1       26.358 -19.842   5.422  0.00  0.00    -0.273 OA
ATOM      8  CA  LIG    1       26.565 -21.735   7.165  0.00  0.00    +0.191 C 
ATOM      9  CA  LIG    1       29.139 -19.501   6.845  0.00  0.00    +0.125 C 
ENDROOT
BRANCH   8  10
ATOM     10  N   LIG    1       26.624 -23.030   6.434  0.00  0.00    -0.300 N 
ATOM     11  H   LIG    1       27.514 -23.419   6.140  0.00  0.00    +0.150 HD
ATOM     12  C   LIG    1       25.512 -23.861   6.442  0.00  0.00    +0.235 C 
ATOM     13  O   LIG    1       24.506 -23.522   7.060  0.00  0.00    -0.274 OA
BRANCH  12  14
ATOM     14  CA  LIG    1       25.674 -25.155   5.585  0.00  0.00    +0.168 C 
BRANCH  14  15
ATOM     15  C   LIG    1       25.476 -26.467   6.335  0.00  0.00    -0.022 A 
ATOM     16  C   LIG    1       26.263 -26.820   7.443  0.00  0.00    +0.006 A 
ATOM     17  C   LIG    1       26.080 -28.030   8.113  0.00  0.00    +0.000 A 
ATOM     18  C   LIG    1       25.074 -28.901   7.713  0.00  0.00    +0.000 A 
ATOM     19  C   LIG    1       24.251 -28.558   6.642  0.00  0.00    +0.000 A 
ATOM     20  C   LIG    1       24.445 -27.349   5.959  0.00  0.00    +0.006 A 
ENDBRANCH  14  15
BRANCH  14  21
ATOM     21  N   LIG    1       24.740 -25.077   4.439  0.00  0.00    -0.316 NA
ATOM     22  H1  LIG    1       23.780 -25.113   4.771  0.00  0.00    +0.119 HD
ATOM     23  H2  LIG    1       24.866 -25.923   3.881  0.00  0.00    +0.119 HD
ENDBRANCH  14  21
ENDBRANCH  12  14
ENDBRANCH   8  10
BRANCH   9  24
ATOM     24  C   LIG    1       29.175 -18.342   5.873  0.00  0.00    +0.351 C 
ATOM     25  O   LIG    1       29.556 -17.221   6.172  0.00  0.00    -0.244 OA
BRANCH  24  26
ATOM     26  OXT LIG    1       28.701 -18.602   4.638  0.00  0.00    -0.476 OA
ATOM     27  HXT LIG    1       27.731 -18.723   4.562  0.00  0.00    +0.295 HD
ENDBRANCH  24  26
ENDBRANCH   9  24
BRANCH   1  28
ATOM     28  C   LIG    1       31.516 -18.973   7.570  0.00  0.00    +0.266 C 
BRANCH  28  29
ATOM     29  O   LIG    1       31.911 -18.540   8.884  0.00  0.00    -0.460 OA
BRANCH  29  31
ATOM     30  C   LIG    1       30.463 -17.162  10.083  0.00  0.00    +0.136 C 
ATOM     31  C   LIG    1       31.653 -17.239   9.179  0.00  0.00    +0.304 C 
ATOM     32  O   LIG    1       32.331 -16.284   8.832  0.00  0.00    -0.251 OA
ENDBRANCH  29  31
ENDBRANCH  28  29
ENDBRANCH   1  28
TORSDOF 9
ENDMDL
MODEL 7
REMARK VINA RESULT:      -6.3      7.858     10.072
REMARK  Name = *****
REMARK                            x       y       z     vdW  Elec       q    Type
REMARK                         _______ _______ _______ _____ _____    ______ ____
ROOT
ATOM      1  C   LIG    1       25.829 -27.748  13.047  0.00  0.00    +0.006 C 
ATOM      2  C   LIG    1       27.043 -27.984  12.173  0.00  0.00    +0.107 C 
ATOM      3  S   LIG    1       26.641 -28.509  10.491  0.00  0.00    -0.131 S 
ATOM      4  C   LIG    1       25.547 -29.822  11.075  0.00  0.00    +0.169 C 
ATOM      5  N   LIG    1       24.450 -29.200  11.795  0.00  0.00    -0.249 N 
ATOM      6  C   LIG    1       23.452 -29.788  11.118  0.00  0.00    +0.244 C 
ATOM      7  O   LIG    1       22.276 -29.782  11.307  0.00  0.00    -0.273 OA
ATOM      8  CA  LIG    1       24.473 -30.360  10.082  0.00  0.00    +0.191 C 
ATOM      9  CA  LIG    1       24.603 -28.307  12.818  0.00  0.00    +0.125 C 
ENDROOT
BRANCH   8  10
ATOM     10  N   LIG    1       24.412 -29.762   8.720  0.00  0.00    -0.300 N 
ATOM     11  H   LIG    1       24.042 -28.828   8.581  0.00  0.00    +0.150 HD
ATOM     12  C   LIG    1       25.154 -30.336   7.697  0.00  0.00    +0.235 C 
ATOM     13  O   LIG    1       25.855 -31.318   7.933  0.00  0.00    -0.274 OA
BRANCH  12  14
ATOM     14  CA  LIG    1       24.953 -29.662   6.305  0.00  0.00    +0.168 C 
BRANCH  14  15
ATOM     15  C   LIG    1       25.026 -28.139   6.298  0.00  0.00    -0.022 A 
ATOM     16  C   LIG    1       24.096 -27.351   5.600  0.00  0.00    +0.006 A 
ATOM     17  C   LIG    1       24.181 -25.959   5.590  0.00  0.00    +0.000 A 
ATOM     18  C   LIG    1       25.179 -25.318   6.314  0.00  0.00    +0.000 A 
ATOM     19  C   LIG    1       26.091 -26.073   7.049  0.00  0.00    +0.000 A 
ATOM     20  C   LIG    1       26.014 -27.473   7.046  0.00  0.00    +0.006 A 
ENDBRANCH  14  15
BRANCH  14  21
ATOM     21  N   LIG    1       25.949 -30.223   5.365  0.00  0.00    -0.316 NA
ATOM     22  H1  LIG    1       26.071 -29.596   4.573  0.00  0.00    +0.119 HD
ATOM     23  H2  LIG    1       25.556 -31.081   4.974  0.00  0.00    +0.119 HD
ENDBRANCH  14  21
ENDBRANCH  12  14
ENDBRANCH   8  10
BRANCH   9  24
ATOM     24  C   LIG    1       23.411 -27.870  13.641  0.00  0.00    +0.351 C 
ATOM     25  O   LIG    1       23.028 -28.459  14.641  0.00  0.00    -0.244 OA
BRANCH  24  26
ATOM     26  OXT LIG    1       22.739 -26.801  13.172  0.00  0.00    -0.476 OA
ATOM     27  HXT LIG    1       21.774 -26.782  13.348  0.00  0.00    +0.295 HD
ENDBRANCH  24  26
ENDBRANCH   9  24
BRANCH   1  28
ATOM     28  C   LIG    1       26.113 -26.802  14.200  0.00  0.00    +0.266 C 
BRANCH  28  29
ATOM     29  O   LIG    1       27.163 -25.860  13.920  0.00  0.00    -0.460 OA
BRANCH  29  31
ATOM     30  C   LIG    1       25.444 -24.345  14.350  0.00  0.00    +0.136 C 
ATOM     31  C   LIG    1       26.922 -24.577  14.300  0.00  0.00    +0.304 C 
ATOM     32  O   LIG    1       27.771 -23.763  14.630  0.00  0.00    -0.251 OA
ENDBRANCH  29  31
ENDBRANCH  28  29
ENDBRANCH   1  28
TORSDOF 9
ENDMDL
MODEL 8
REMARK VINA RESULT:      -6.2      7.522     10.985
REMARK  Name = *****
REMARK                            x       y       z     vdW  Elec       q    Type
REMARK                         _______ _______ _______ _____ _____    ______ ____
ROOT
ATOM      1  C   LIG    1       25.645 -31.114   8.818  0.00  0.00    +0.006 C 
ATOM      2  C   LIG    1       26.671 -30.095   9.267  0.00  0.00    +0.107 C 
ATOM      3  S   LIG    1       26.285 -28.402   8.771  0.00  0.00    -0.131 S 
ATOM      4  C   LIG    1       26.023 -28.880   7.048  0.00  0.00    +0.169 C 
ATOM      5  N   LIG    1       24.897 -29.796   7.007  0.00  0.00    -0.249 N 
ATOM      6  C   LIG    1       24.183 -29.139   6.081  0.00  0.00    +0.244 C 
ATOM      7  O   LIG    1       23.182 -29.445   5.511  0.00  0.00    -0.273 OA
ATOM      8  CA  LIG    1       25.167 -27.928   6.159  0.00  0.00    +0.191 C 
ATOM      9  CA  LIG    1       24.790 -30.925   7.768  0.00  0.00    +0.125 C 
ENDROOT
BRANCH   8  10
ATOM     10  N   LIG    1       24.619 -26.691   6.777  0.00  0.00    -0.300 N 
ATOM     11  H   LIG    1       24.250 -26.703   7.722  0.00  0.00    +0.150 HD
ATOM     12  C   LIG    1       24.908 -25.462   6.200  0.00  0.00    +0.235 C 
ATOM     13  O   LIG    1       25.618 -25.414   5.198  0.00  0.00    -0.274 OA
BRANCH  12  14
ATOM     14  CA  LIG    1       24.220 -24.249   6.900  0.00  0.00    +0.168 C 
BRANCH  14  15
ATOM     15  C   LIG    1       24.987 -22.933   6.835  0.00  0.00    -0.022 A 
ATOM     16  C   LIG    1       24.859 -22.048   5.752  0.00  0.00    +0.006 A 
ATOM     17  C   LIG    1       25.576 -20.853   5.698  0.00  0.00    +0.000 A 
ATOM     18  C   LIG    1       26.411 -20.494   6.749  0.00  0.00    +0.000 A 
ATOM     19  C   LIG    1       26.526 -21.334   7.855  0.00  0.00    +0.000 A 
ATOM     20  C   LIG    1       25.817 -22.543   7.902  0.00  0.00    +0.006 A 
ENDBRANCH  14  15
BRANCH  14  21
ATOM     21  N   LIG    1       22.869 -24.078   6.320  0.00  0.00    -0.316 NA
ATOM     22  H1  LIG    1       22.862 -24.395   5.354  0.00  0.00    +0.119 HD
ATOM     23  H2  LIG    1       22.675 -23.076   6.279  0.00  0.00    +0.119 HD
ENDBRANCH  14  21
ENDBRANCH  12  14
ENDBRANCH   8  10
BRANCH   9  24
ATOM     24  C   LIG    1       23.683 -31.924   7.509  0.00  0.00    +0.351 C 
ATOM     25  O   LIG    1       23.669 -32.685   6.554  0.00  0.00    -0.244 OA
BRANCH  24  26
ATOM     26  OXT LIG    1       22.655 -31.892   8.380  0.00  0.00    -0.476 OA
ATOM     27  HXT LIG    1       22.091 -32.694   8.416  0.00  0.00    +0.295 HD
ENDBRANCH  24  26
ENDBRANCH   9  24
BRANCH   1  28
ATOM     28  C   LIG    1       25.649 -32.367   9.675  0.00  0.00    +0.266 C 
BRANCH  28  29
ATOM     29  O   LIG    1       25.849 -33.575   8.920  0.00  0.00    -0.460 OA
BRANCH  29  31
ATOM     30  C   LIG    1       27.074 -33.825   6.953  0.00  0.00    +0.136 C 
ATOM     31  C   LIG    1       27.108 -33.775   8.448  0.00  0.00    +0.304 C 
ATOM     32  O   LIG    1       28.121 -33.825   9.128  0.00  0.00    -0.251 OA
ENDBRANCH  29  31
ENDBRANCH  28  29
ENDBRANCH   1  28
TORSDOF 9
ENDMDL
MODEL 9
REMARK VINA RESULT:      -6.1      6.652     10.328
REMARK  Name = *****
REMARK                            x       y       z     vdW  Elec       q    Type
REMARK                         _______ _______ _______ _____ _____    ______ ____
ROOT
ATOM      1  C   LIG    1       25.604 -30.357   8.173  0.00  0.00    +0.006 C 
ATOM      2  C   LIG    1       26.336 -29.446   9.136  0.00  0.00    +0.107 C 
ATOM      3  S   LIG    1       26.060 -27.687   8.829  0.00  0.00    -0.131 S 
ATOM      4  C   LIG    1       26.471 -27.844   7.077  0.00  0.00    +0.169 C 
ATOM      5  N   LIG    1       25.492 -28.727   6.468  0.00  0.00    -0.249 N 
ATOM      6  C   LIG    1       25.128 -27.907   5.471  0.00  0.00    +0.244 C 
ATOM      7  O   LIG    1       24.423 -28.096   4.529  0.00  0.00    -0.273 OA
ATOM      8  CA  LIG    1       25.945 -26.739   6.112  0.00  0.00    +0.191 C 
ATOM      9  CA  LIG    1       25.181 -29.974   6.931  0.00  0.00    +0.125 C 
ENDROOT
BRANCH   8  10
ATOM     10  N   LIG    1       25.138 -25.629   6.686  0.00  0.00    -0.300 N 
ATOM     11  H   LIG    1       25.063 -25.508   7.691  0.00  0.00    +0.150 HD
ATOM     12  C   LIG    1       24.764 -24.572   5.867  0.00  0.00    +0.235 C 
ATOM     13  O   LIG    1       25.113 -24.565   4.689  0.00  0.00    -0.274 OA
BRANCH  12  14
ATOM     14  CA  LIG    1       23.866 -23.507   6.568  0.00  0.00    +0.168 C 
BRANCH  14  15
ATOM     15  C   LIG    1       23.805 -22.147   5.882  0.00  0.00    -0.022 A 
ATOM     16  C   LIG    1       22.599 -21.444   5.725  0.00  0.00    +0.006 A 
ATOM     17  C   LIG    1       22.554 -20.206   5.084  0.00  0.00    +0.000 A 
ATOM     18  C   LIG    1       23.724 -19.621   4.618  0.00  0.00    +0.000 A 
ATOM     19  C   LIG    1       24.941 -20.277   4.796  0.00  0.00    +0.000 A 
ATOM     20  C   LIG    1       24.984 -21.529   5.426  0.00  0.00    +0.006 A 
ENDBRANCH  14  15
BRANCH  14  21
ATOM     21  N   LIG    1       22.502 -24.065   6.711  0.00  0.00    -0.316 NA
ATOM     22  H1  LIG    1       22.109 -24.262   5.795  0.00  0.00    +0.119 HD
ATOM     23  H2  LIG    1       21.910 -23.335   7.110  0.00  0.00    +0.119 HD
ENDBRANCH  14  21
ENDBRANCH  12  14
ENDBRANCH   8  10
BRANCH   9  24
ATOM     24  C   LIG    1       24.303 -30.899   6.116  0.00  0.00    +0.351 C 
ATOM     25  O   LIG    1       23.221 -31.315   6.500  0.00  0.00    -0.244 OA
BRANCH  24  26
ATOM     26  OXT LIG    1       24.814 -31.297   4.934  0.00  0.00    -0.476 OA
ATOM     27  HXT LIG    1       25.730 -31.007   4.737  0.00  0.00    +0.295 HD
ENDBRANCH  24  26
ENDBRANCH   9  24
BRANCH   1  28
ATOM     28  C   LIG    1       25.368 -31.743   8.744  0.00  0.00    +0.266 C 
BRANCH  28  29
ATOM     29  O   LIG    1       24.530 -31.745   9.913  0.00  0.00    -0.460 OA
BRANCH  29  31
ATOM     30  C   LIG    1       22.617 -33.014   9.506  0.00  0.00    +0.136 C 
ATOM     31  C   LIG    1       23.195 -31.644   9.682  0.00  0.00    +0.304 C 
ATOM     32  O   LIG    1       22.547 -30.608   9.696  0.00  0.00    -0.251 OA
ENDBRANCH  29  31
ENDBRANCH  28  29
ENDBRANCH   1  28
TORSDOF 9
ENDMDL
