MODEL 1
REMARK VINA RESULT:      16.8      0.000      0.000
REMARK  Name = *****
REMARK                            x       y       z     vdW  Elec       q    Type
REMARK                         _______ _______ _______ _____ _____    ______ ____
ROOT
ATOM      1  C   LIG    1       24.729 -17.307   3.426  0.00  0.00    +0.137 C 
ENDROOT
BRANCH   1   2
ATOM      2  O   LIG    1       25.071 -15.998   3.003  0.00  0.00    -0.390 OA
ATOM      3  H   LIG    1       25.296 -15.474   3.797  0.00  0.00    +0.210 HD
ENDBRANCH   1   2
BRANCH   1   4
ATOM      4  C   LIG    1       25.856 -17.867   4.308  0.00  0.00    +0.056 C 
BRANCH   4   5
ATOM      5  C   LIG    1       27.280 -17.613   3.766  0.00  0.00    +0.080 C 
BRANCH   5   6
ATOM      6  N   LIG    1       27.367 -16.231   3.276  0.00  0.00    -0.310 N 
ATOM      7  H   LIG    1       26.955 -16.030   2.377  0.00  0.00    +0.149 HD
ATOM      8  C   LIG    1       27.896 -15.192   4.026  0.00  0.00    +0.234 C 
ATOM      9  O   LIG    1       28.353 -15.424   5.147  0.00  0.00    -0.274 OA
BRANCH   8  10
ATOM     10  C   LIG    1       27.799 -13.754   3.348  0.00  0.00    +0.166 C 
BRANCH  10  11
ATOM     11  N   LIG    1       26.419 -13.176   3.363  0.00  0.00    -0.274 N 
ATOM     12  C   LIG    1       25.797 -12.777   4.518  0.00  0.00    +0.303 C 
ATOM     13  O   LIG    1       26.353 -12.698   5.644  0.00  0.00    -0.253 OA
ATOM     14  N   LIG    1       24.485 -12.419   4.434  0.00  0.00    -0.299 N 
ATOM     15  H   LIG    1       24.033 -12.283   5.335  0.00  0.00    +0.150 HD
ATOM     16  C   LIG    1       23.704 -12.392   3.230  0.00  0.00    +0.107 C 
ATOM     17  C   LIG    1       24.611 -12.071   2.071  0.00  0.00    +0.038 C 
ATOM     18  C   LIG    1       25.710 -13.117   2.080  0.00  0.00    +0.112 C 
ENDBRANCH  10  11
BRANCH  10  19
ATOM     19  C   LIG    1       28.917 -12.705   3.702  0.00  0.00    +0.012 C 
ATOM     20  C   LIG    1       29.098 -11.618   2.633  0.00  0.00    +0.009 C 
ATOM     21  C   LIG    1       28.653 -11.949   5.027  0.00  0.00    +0.009 C 
ENDBRANCH  10  19
ENDBRANCH   8  10
ENDBRANCH   5   6
BRANCH   5  22
ATOM     22  C   LIG    1       28.458 -17.990   4.704  0.00  0.00    +0.057 C 
BRANCH  22  23
ATOM     23  C   LIG    1       28.338 -19.113   5.720  0.00  0.00    -0.046 A 
ATOM     24  C   LIG    1       27.117 -19.440   6.324  0.00  0.00    +0.003 A 
ATOM     25  C   LIG    1       26.943 -20.655   6.991  0.00  0.00    +0.000 A 
ATOM     26  C   LIG    1       27.987 -21.572   7.058  0.00  0.00    +0.000 A 
ATOM     27  C   LIG    1       29.226 -21.241   6.518  0.00  0.00    +0.000 A 
ATOM     28  C   LIG    1       29.409 -20.011   5.876  0.00  0.00    +0.003 A 
ENDBRANCH  22  23
ENDBRANCH   5  22
ENDBRANCH   4   5
ENDBRANCH   1   4
BRANCH   1  29
ATOM     29  C   LIG    1       23.315 -17.379   4.091  0.00  0.00    +0.106 C 
BRANCH  29  31
ATOM     30  C   LIG    1       21.146 -18.891   3.860  0.00  0.00    +0.251 C 
ATOM     31  N   LIG    1       22.518 -18.635   3.769  0.00  0.00    -0.307 N 
ATOM     32  H   LIG    1       23.076 -19.425   3.479  0.00  0.00    +0.149 HD
ATOM     33  O   LIG    1       20.347 -18.043   4.239  0.00  0.00    -0.272 OA
BRANCH  30  34
ATOM     34  C   LIG    1       20.673 -20.347   3.383  0.00  0.00    +0.324 C 
BRANCH  34  35
ATOM     35  O   LIG    1       21.445 -21.499   3.743  0.00  0.00    -0.482 OA
BRANCH  35  38
ATOM     36  C   LIG    1       21.728 -21.569   6.865  0.00  0.00    +0.048 C 
ATOM     37  C   LIG    1       22.827 -21.489   5.850  0.00  0.00    -0.009 A 
ATOM     38  C   LIG    1       22.641 -21.418   4.451  0.00  0.00    +0.127 A 
ATOM     39  C   LIG    1       23.823 -21.377   3.651  0.00  0.00    -0.009 A 
ATOM     40  C   LIG    1       23.777 -21.364   2.146  0.00  0.00    +0.048 C 
ATOM     41  C   LIG    1       25.115 -21.411   4.233  0.00  0.00    +0.007 A 
ATOM     42  C   LIG    1       25.275 -21.514   5.600  0.00  0.00    +0.001 A 
ATOM     43  C   LIG    1       24.141 -21.560   6.395  0.00  0.00    +0.007 A 
ENDBRANCH  35  38
ENDBRANCH  34  35
ENDBRANCH  30  34
ENDBRANCH  29  31
BRANCH  29  44
ATOM     44  C   LIG    1       23.335 -16.942   5.605  0.00  0.00    +0.060 C 
BRANCH  44  45
ATOM     45  C   LIG    1       22.659 -15.593   5.939  0.00  0.00    -0.045 A 
ATOM     46  C   LIG    1       23.232 -14.356   5.587  0.00  0.00    +0.003 A 
ATOM     47  C   LIG    1       22.644 -13.139   5.984  0.00  0.00    +0.000 A 
ATOM     48  C   LIG    1       21.458 -13.132   6.712  0.00  0.00    +0.000 A 
ATOM     49  C   LIG    1       20.847 -14.341   7.025  0.00  0.00    +0.000 A 
ATOM     50  C   LIG    1       21.439 -15.557   6.642  0.00  0.00    +0.003 A 
ENDBRANCH  44  45
ENDBRANCH  29  44
ENDBRANCH   1  29
TORSDOF 16
ENDMDL
