MODEL 1
REMARK VINA RESULT:      -6.5      0.000      0.000
REMARK  Name = *****
REMARK                            x       y       z     vdW  Elec       q    Type
REMARK                         _______ _______ _______ _____ _____    ______ ____
ROOT
ATOM      1  C   LIG    1       24.967 -32.434   6.938  0.00  0.00    -0.002 C 
ATOM      2  C   LIG    1       25.006 -31.170   7.897  0.00  0.00    -0.026 C 
ATOM      3  C   LIG    1       24.975 -29.809   7.178  0.00  0.00    +0.012 C 
ATOM      4  C   LIG    1       26.373 -31.335   8.648  0.00  0.00    +0.001 C 
ATOM      5  C   LIG    1       26.501 -30.800  10.087  0.00  0.00    +0.025 C 
ATOM      6  C   LIG    1       24.949 -31.198  11.091  0.00  0.00    +0.001 C 
ATOM      7  C   LIG    1       23.889 -31.858  10.170  0.00  0.00    +0.005 C 
ATOM      8  C   LIG    1       24.334 -29.776  12.086  0.00  0.00    -0.026 C 
ATOM      9  C   LIG    1       22.854 -29.499  11.899  0.00  0.00    +0.012 C 
ATOM     10  C   LIG    1       25.196 -28.201  12.572  0.00  0.00    +0.000 C 
ATOM     11  C   LIG    1       25.658 -28.341  13.987  0.00  0.00    +0.035 C 
ATOM     12  C   LIG    1       26.543 -29.530  13.865  0.00  0.00    +0.115 C 
ATOM     13  C   LIG    1       26.592 -29.965  12.363  0.00  0.00    +0.032 C 
ATOM     14  C   LIG    1       26.702 -27.792  11.457  0.00  0.00    +0.035 C 
ATOM     15  C   LIG    1       25.208 -29.303  11.126  0.00  0.00    +0.009 C 
ATOM     16  C   LIG    1       27.181 -29.042  10.142  0.00  0.00    +0.118 C 
ATOM     17  C   LIG    1       26.671 -32.840   8.591  0.00  0.00    +0.005 C 
ATOM     18  C   LIG    1       23.730 -31.198   8.805  0.00  0.00    +0.007 C 
ATOM     19  C   LIG    1       26.269 -33.212   7.180  0.00  0.00    +0.004 C 
ENDROOT
BRANCH   1  21
ATOM     20  C   LIG    1       23.495 -33.320   5.098  0.00  0.00    +0.008 C 
ATOM     21  C   LIG    1       24.594 -32.288   5.428  0.00  0.00    -0.010 C 
BRANCH  21  22
ATOM     22  C   LIG    1       25.769 -32.422   4.423  0.00  0.00    +0.015 C 
BRANCH  22  23
ATOM     23  C   LIG    1       25.403 -33.139   3.120  0.00  0.00    +0.121 C 
BRANCH  23  24
ATOM     24  C   LIG    1       26.606 -33.218   2.196  0.00  0.00    +0.305 C 
ATOM     25  O   LIG    1       27.725 -33.526   2.559  0.00  0.00    -0.251 OA
BRANCH  24  26
ATOM     26  O   LIG    1       26.318 -32.884   0.911  0.00  0.00    -0.481 OA
ATOM     27  H   LIG    1       26.851 -33.350   0.245  0.00  0.00    +0.295 HD
ENDBRANCH  24  26
ENDBRANCH  23  24
ENDBRANCH  22  23
ENDBRANCH  21  22
ENDBRANCH   1  21
BRANCH  12  28
ATOM     28  O   LIG    1       26.043 -30.585  14.677  0.00  0.00    -0.392 OA
ATOM     29  H   LIG    1       25.499 -30.178  15.373  0.00  0.00    +0.210 HD
ENDBRANCH  12  28
BRANCH  16  30
ATOM     30  O   LIG    1       27.029 -28.410   8.871  0.00  0.00    -0.392 OA
ATOM     31  H   LIG    1       27.900 -28.381   8.446  0.00  0.00    +0.210 HD
ENDBRANCH  16  30
TORSDOF 7
ENDMDL
MODEL 2
REMARK VINA RESULT:      -6.1      2.279      8.007
REMARK  Name = *****
REMARK                            x       y       z     vdW  Elec       q    Type
REMARK                         _______ _______ _______ _____ _____    ______ ____
ROOT
ATOM      1  C   LIG    1       25.235 -29.811  12.060  0.00  0.00    -0.002 C 
ATOM      2  C   LIG    1       25.709 -29.971  10.554  0.00  0.00    -0.026 C 
ATOM      3  C   LIG    1       26.790 -28.972  10.105  0.00  0.00    +0.012 C 
ATOM      4  C   LIG    1       24.393 -29.723   9.738  0.00  0.00    +0.001 C 
ATOM      5  C   LIG    1       24.208 -30.440   8.387  0.00  0.00    +0.025 C 
ATOM      6  C   LIG    1       24.790 -32.236   8.496  0.00  0.00    +0.001 C 
ATOM      7  C   LIG    1       25.420 -32.494   9.890  0.00  0.00    +0.005 C 
ATOM      8  C   LIG    1       25.826 -32.759   7.067  0.00  0.00    -0.026 C 
ATOM      9  C   LIG    1       27.127 -33.425   7.471  0.00  0.00    +0.012 C 
ATOM     10  C   LIG    1       26.036 -31.969   5.396  0.00  0.00    +0.000 C 
ATOM     11  C   LIG    1       25.196 -32.724   4.416  0.00  0.00    +0.035 C 
ATOM     12  C   LIG    1       23.851 -32.553   5.027  0.00  0.00    +0.115 C 
ATOM     13  C   LIG    1       23.989 -31.646   6.294  0.00  0.00    +0.032 C 
ATOM     14  C   LIG    1       25.527 -30.120   5.366  0.00  0.00    +0.035 C 
ATOM     15  C   LIG    1       25.770 -31.379   7.094  0.00  0.00    +0.009 C 
ATOM     16  C   LIG    1       24.791 -29.392   6.931  0.00  0.00    +0.118 C 
ATOM     17  C   LIG    1       23.258 -30.076  10.710  0.00  0.00    +0.005 C 
ATOM     18  C   LIG    1       26.350 -31.391  10.384  0.00  0.00    +0.007 C 
ATOM     19  C   LIG    1       23.735 -29.483  12.018  0.00  0.00    +0.004 C 
ENDROOT
BRANCH   1  21
ATOM     20  C   LIG    1       25.896 -29.553  14.476  0.00  0.00    +0.008 C 
ATOM     21  C   LIG    1       26.043 -28.935  13.069  0.00  0.00    -0.010 C 
BRANCH  21  22
ATOM     22  C   LIG    1       25.669 -27.428  13.109  0.00  0.00    +0.015 C 
BRANCH  22  23
ATOM     23  C   LIG    1       26.747 -26.498  12.546  0.00  0.00    +0.121 C 
BRANCH  23  24
ATOM     24  C   LIG    1       26.773 -25.185  13.309  0.00  0.00    +0.305 C 
ATOM     25  O   LIG    1       25.780 -24.549  13.605  0.00  0.00    -0.251 OA
BRANCH  24  26
ATOM     26  O   LIG    1       28.029 -24.768  13.616  0.00  0.00    -0.481 OA
ATOM     27  H   LIG    1       28.143 -23.802  13.617  0.00  0.00    +0.295 HD
ENDBRANCH  24  26
ENDBRANCH  23  24
ENDBRANCH  22  23
ENDBRANCH  21  22
ENDBRANCH   1  21
BRANCH  12  28
ATOM     28  O   LIG    1       23.318 -33.825   5.375  0.00  0.00    -0.392 OA
ATOM     29  H   LIG    1       22.353 -33.772   5.264  0.00  0.00    +0.210 HD
ENDBRANCH  12  28
BRANCH  16  30
ATOM     30  O   LIG    1       25.669 -28.361   7.381  0.00  0.00    -0.392 OA
ATOM     31  H   LIG    1       25.345 -28.045   8.239  0.00  0.00    +0.210 HD
ENDBRANCH  16  30
TORSDOF 7
ENDMDL
MODEL 3
REMARK VINA RESULT:      -6.0      1.995      3.283
REMARK  Name = *****
REMARK                            x       y       z     vdW  Elec       q    Type
REMARK                         _______ _______ _______ _____ _____    ______ ____
ROOT
ATOM      1  C   LIG    1       25.744 -31.326   6.774  0.00  0.00    -0.002 C 
ATOM      2  C   LIG    1       24.980 -31.678   8.120  0.00  0.00    -0.026 C 
ATOM      3  C   LIG    1       24.291 -33.054   8.135  0.00  0.00    +0.012 C 
ATOM      4  C   LIG    1       23.898 -30.547   8.222  0.00  0.00    +0.001 C 
ATOM      5  C   LIG    1       23.440 -30.079   9.616  0.00  0.00    +0.025 C 
ATOM      6  C   LIG    1       24.915 -29.922  10.789  0.00  0.00    +0.001 C 
ATOM      7  C   LIG    1       26.199 -30.426  10.079  0.00  0.00    +0.005 C 
ATOM      8  C   LIG    1       24.610 -30.653  12.451  0.00  0.00    -0.026 C 
ATOM      9  C   LIG    1       25.702 -31.602  12.907  0.00  0.00    +0.012 C 
ATOM     10  C   LIG    1       23.008 -31.126  13.269  0.00  0.00    +0.000 C 
ATOM     11  C   LIG    1       22.641 -30.044  14.234  0.00  0.00    +0.035 C 
ATOM     12  C   LIG    1       22.557 -28.879  13.313  0.00  0.00    +0.115 C 
ATOM     13  C   LIG    1       22.814 -29.377  11.853  0.00  0.00    +0.032 C 
ATOM     14  C   LIG    1       21.569 -31.370  12.024  0.00  0.00    +0.035 C 
ATOM     15  C   LIG    1       23.660 -31.135  11.573  0.00  0.00    +0.009 C 
ATOM     16  C   LIG    1       21.907 -30.998  10.216  0.00  0.00    +0.118 C 
ATOM     17  C   LIG    1       24.475 -29.380   7.409  0.00  0.00    +0.005 C 
ATOM     18  C   LIG    1       26.026 -31.717   9.286  0.00  0.00    +0.007 C 
ATOM     19  C   LIG    1       25.071 -30.069   6.201  0.00  0.00    +0.004 C 
ENDROOT
BRANCH   1  21
ATOM     20  C   LIG    1       27.437 -33.012   5.981  0.00  0.00    +0.008 C 
ATOM     21  C   LIG    1       26.036 -32.425   5.704  0.00  0.00    -0.010 C 
BRANCH  21  22
ATOM     22  C   LIG    1       25.932 -31.975   4.222  0.00  0.00    +0.015 C 
BRANCH  22  23
ATOM     23  C   LIG    1       25.583 -33.101   3.245  0.00  0.00    +0.121 C 
BRANCH  23  24
ATOM     24  C   LIG    1       26.681 -33.271   2.210  0.00  0.00    +0.305 C 
ATOM     25  O   LIG    1       27.828 -33.571   2.476  0.00  0.00    -0.251 OA
BRANCH  24  26
ATOM     26  O   LIG    1       26.261 -33.030   0.940  0.00  0.00    -0.481 OA
ATOM     27  H   LIG    1       25.297 -32.939   0.845  0.00  0.00    +0.295 HD
ENDBRANCH  24  26
ENDBRANCH  23  24
ENDBRANCH  22  23
ENDBRANCH  21  22
ENDBRANCH   1  21
BRANCH  12  28
ATOM     28  O   LIG    1       23.520 -27.902  13.688  0.00  0.00    -0.392 OA
ATOM     29  H   LIG    1       23.053 -27.222  14.204  0.00  0.00    +0.210 HD
ENDBRANCH  12  28
BRANCH  16  30
ATOM     30  O   LIG    1       21.739 -32.213   9.487  0.00  0.00    -0.392 OA
ATOM     31  H   LIG    1       22.452 -32.818   9.745  0.00  0.00    +0.210 HD
ENDBRANCH  16  30
TORSDOF 7
ENDMDL
MODEL 4
REMARK VINA RESULT:      -6.0      5.677      9.442
REMARK  Name = *****
REMARK                            x       y       z     vdW  Elec       q    Type
REMARK                         _______ _______ _______ _____ _____    ______ ____
ROOT
ATOM      1  C   LIG    1       23.265 -27.384  13.764  0.00  0.00    -0.002 C 
ATOM      2  C   LIG    1       22.864 -28.799  13.166  0.00  0.00    -0.026 C 
ATOM      3  C   LIG    1       23.904 -29.420  12.216  0.00  0.00    +0.012 C 
ATOM      4  C   LIG    1       21.546 -28.491  12.374  0.00  0.00    +0.001 C 
ATOM      5  C   LIG    1       20.477 -29.593  12.250  0.00  0.00    +0.025 C 
ATOM      6  C   LIG    1       20.262 -30.507  13.892  0.00  0.00    +0.001 C 
ATOM      7  C   LIG    1       21.310 -29.991  14.913  0.00  0.00    +0.005 C 
ATOM      8  C   LIG    1       20.193 -32.337  13.708  0.00  0.00    -0.026 C 
ATOM      9  C   LIG    1       21.138 -33.077  14.636  0.00  0.00    +0.012 C 
ATOM     10  C   LIG    1       19.890 -33.372  12.192  0.00  0.00    +0.000 C 
ATOM     11  C   LIG    1       18.465 -33.825  12.216  0.00  0.00    +0.035 C 
ATOM     12  C   LIG    1       17.765 -32.513  12.233  0.00  0.00    +0.115 C 
ATOM     13  C   LIG    1       18.834 -31.375  12.146  0.00  0.00    +0.032 C 
ATOM     14  C   LIG    1       20.220 -32.426  10.556  0.00  0.00    +0.035 C 
ATOM     15  C   LIG    1       20.717 -31.793  12.551  0.00  0.00    +0.009 C 
ATOM     16  C   LIG    1       20.671 -30.609  10.673  0.00  0.00    +0.118 C 
ATOM     17  C   LIG    1       20.971 -27.236  13.046  0.00  0.00    +0.005 C 
ATOM     18  C   LIG    1       22.717 -29.813  14.351  0.00  0.00    +0.007 C 
ATOM     19  C   LIG    1       22.199 -26.386  13.287  0.00  0.00    +0.004 C 
ENDROOT
BRANCH   1  21
ATOM     20  C   LIG    1       25.550 -27.422  14.820  0.00  0.00    +0.008 C 
ATOM     21  C   LIG    1       24.727 -26.847  13.648  0.00  0.00    -0.010 C 
BRANCH  21  22
ATOM     22  C   LIG    1       24.880 -25.303  13.598  0.00  0.00    +0.015 C 
BRANCH  22  23
ATOM     23  C   LIG    1       25.109 -24.649  14.964  0.00  0.00    +0.121 C 
BRANCH  23  24
ATOM     24  C   LIG    1       25.979 -23.412  14.825  0.00  0.00    +0.305 C 
ATOM     25  O   LIG    1       25.547 -22.277  14.777  0.00  0.00    -0.251 OA
BRANCH  24  26
ATOM     26  O   LIG    1       27.304 -23.696  14.734  0.00  0.00    -0.481 OA
ATOM     27  H   LIG    1       27.556 -24.562  15.101  0.00  0.00    +0.295 HD
ENDBRANCH  24  26
ENDBRANCH  23  24
ENDBRANCH  22  23
ENDBRANCH  21  22
ENDBRANCH   1  21
BRANCH  12  28
ATOM     28  O   LIG    1       16.999 -32.394  13.425  0.00  0.00    -0.392 OA
ATOM     29  H   LIG    1       17.390 -32.999  14.079  0.00  0.00    +0.210 HD
ENDBRANCH  12  28
BRANCH  16  30
ATOM     30  O   LIG    1       21.987 -30.456  10.143  0.00  0.00    -0.392 OA
ATOM     31  H   LIG    1       22.174 -29.507  10.075  0.00  0.00    +0.210 HD
ENDBRANCH  16  30
TORSDOF 7
ENDMDL
MODEL 5
REMARK VINA RESULT:      -5.9      1.737      3.160
REMARK  Name = *****
REMARK                            x       y       z     vdW  Elec       q    Type
REMARK                         _______ _______ _______ _____ _____    ______ ____
ROOT
ATOM      1  C   LIG    1       25.833 -31.460   7.395  0.00  0.00    -0.002 C 
ATOM      2  C   LIG    1       25.739 -31.446   8.980  0.00  0.00    -0.026 C 
ATOM      3  C   LIG    1       25.659 -32.835   9.637  0.00  0.00    +0.012 C 
ATOM      4  C   LIG    1       24.410 -30.659   9.251  0.00  0.00    +0.001 C 
ATOM      5  C   LIG    1       24.291 -29.821  10.538  0.00  0.00    +0.025 C 
ATOM      6  C   LIG    1       25.895 -28.879  10.876  0.00  0.00    +0.001 C 
ATOM      7  C   LIG    1       26.968 -29.289   9.833  0.00  0.00    +0.005 C 
ATOM      8  C   LIG    1       26.445 -28.972  12.631  0.00  0.00    -0.026 C 
ATOM      9  C   LIG    1       27.896 -29.382  12.792  0.00  0.00    +0.012 C 
ATOM     10  C   LIG    1       25.495 -29.470  14.151  0.00  0.00    +0.000 C 
ATOM     11  C   LIG    1       25.087 -28.225  14.872  0.00  0.00    +0.035 C 
ATOM     12  C   LIG    1       24.279 -27.556  13.818  0.00  0.00    +0.115 C 
ATOM     13  C   LIG    1       24.213 -28.494  12.568  0.00  0.00    +0.032 C 
ATOM     14  C   LIG    1       23.932 -30.509  13.757  0.00  0.00    +0.035 C 
ATOM     15  C   LIG    1       25.513 -29.966  12.403  0.00  0.00    +0.009 C 
ATOM     16  C   LIG    1       23.497 -30.783  11.953  0.00  0.00    +0.118 C 
ATOM     17  C   LIG    1       24.211 -29.787   8.003  0.00  0.00    +0.005 C 
ATOM     18  C   LIG    1       27.042 -30.785   9.547  0.00  0.00    +0.007 C 
ATOM     19  C   LIG    1       24.594 -30.718   6.874  0.00  0.00    +0.004 C 
ENDROOT
BRANCH   1  21
ATOM     20  C   LIG    1       27.683 -32.908   6.491  0.00  0.00    +0.008 C 
ATOM     21  C   LIG    1       26.150 -32.778   6.620  0.00  0.00    -0.010 C 
BRANCH  21  22
ATOM     22  C   LIG    1       25.485 -32.921   5.225  0.00  0.00    +0.015 C 
BRANCH  22  23
ATOM     23  C   LIG    1       26.476 -32.981   4.059  0.00  0.00    +0.121 C 
BRANCH  23  24
ATOM     24  C   LIG    1       25.741 -32.958   2.730  0.00  0.00    +0.305 C 
ATOM     25  O   LIG    1       26.266 -32.701   1.665  0.00  0.00    -0.251 OA
BRANCH  24  26
ATOM     26  O   LIG    1       24.415 -33.232   2.847  0.00  0.00    -0.481 OA
ATOM     27  H   LIG    1       23.967 -32.753   3.565  0.00  0.00    +0.295 HD
ENDBRANCH  24  26
ENDBRANCH  23  24
ENDBRANCH  22  23
ENDBRANCH  21  22
ENDBRANCH   1  21
BRANCH  12  28
ATOM     28  O   LIG    1       24.872 -26.309  13.480  0.00  0.00    -0.392 OA
ATOM     29  H   LIG    1       25.625 -26.498  12.893  0.00  0.00    +0.210 HD
ENDBRANCH  12  28
BRANCH  16  30
ATOM     30  O   LIG    1       23.568 -32.186  11.700  0.00  0.00    -0.392 OA
ATOM     31  H   LIG    1       23.408 -32.328  10.754  0.00  0.00    +0.210 HD
ENDBRANCH  16  30
TORSDOF 7
ENDMDL
MODEL 6
REMARK VINA RESULT:      -5.5      4.874      7.776
REMARK  Name = *****
REMARK                            x       y       z     vdW  Elec       q    Type
REMARK                         _______ _______ _______ _____ _____    ______ ____
ROOT
ATOM      1  C   LIG    1       24.407 -28.788  13.436  0.00  0.00    -0.002 C 
ATOM      2  C   LIG    1       23.491 -29.932  12.827  0.00  0.00    -0.026 C 
ATOM      3  C   LIG    1       24.154 -30.778  11.725  0.00  0.00    +0.012 C 
ATOM      4  C   LIG    1       22.283 -29.136  12.222  0.00  0.00    +0.001 C 
ATOM      5  C   LIG    1       20.896 -29.806  12.181  0.00  0.00    +0.025 C 
ATOM      6  C   LIG    1       20.552 -30.735  13.791  0.00  0.00    +0.001 C 
ATOM      7  C   LIG    1       21.811 -30.688  14.697  0.00  0.00    +0.005 C 
ATOM      8  C   LIG    1       19.847 -32.416  13.531  0.00  0.00    -0.026 C 
ATOM      9  C   LIG    1       20.573 -33.505  14.297  0.00  0.00    +0.012 C 
ATOM     10  C   LIG    1       19.056 -33.155  12.018  0.00  0.00    +0.000 C 
ATOM     11  C   LIG    1       17.573 -33.110  12.199  0.00  0.00    +0.035 C 
ATOM     12  C   LIG    1       17.366 -31.647  12.365  0.00  0.00    +0.115 C 
ATOM     13  C   LIG    1       18.744 -30.925  12.199  0.00  0.00    +0.032 C 
ATOM     14  C   LIG    1       19.519 -32.234  10.399  0.00  0.00    +0.035 C 
ATOM     15  C   LIG    1       20.403 -31.979  12.344  0.00  0.00    +0.009 C 
ATOM     16  C   LIG    1       20.571 -30.687  10.546  0.00  0.00    +0.118 C 
ATOM     17  C   LIG    1       22.240 -27.825  13.019  0.00  0.00    +0.005 C 
ATOM     18  C   LIG    1       23.129 -30.939  13.972  0.00  0.00    +0.007 C 
ATOM     19  C   LIG    1       23.702 -27.456  13.144  0.00  0.00    +0.004 C 
ENDROOT
BRANCH   1  21
ATOM     20  C   LIG    1       26.672 -28.544  14.507  0.00  0.00    +0.008 C 
ATOM     21  C   LIG    1       25.945 -28.759  13.163  0.00  0.00    -0.010 C 
BRANCH  21  22
ATOM     22  C   LIG    1       26.429 -27.712  12.123  0.00  0.00    +0.015 C 
BRANCH  22  23
ATOM     23  C   LIG    1       26.801 -28.305  10.761  0.00  0.00    +0.121 C 
BRANCH  23  24
ATOM     24  C   LIG    1       27.777 -29.456  10.927  0.00  0.00    +0.305 C 
ATOM     25  O   LIG    1       27.542 -30.601  10.595  0.00  0.00    -0.251 OA
BRANCH  24  26
ATOM     26  O   LIG    1       28.946 -29.087  11.511  0.00  0.00    -0.481 OA
ATOM     27  H   LIG    1       28.868 -28.340  12.129  0.00  0.00    +0.295 HD
ENDBRANCH  24  26
ENDBRANCH  23  24
ENDBRANCH  22  23
ENDBRANCH  21  22
ENDBRANCH   1  21
BRANCH  12  28
ATOM     28  O   LIG    1       16.812 -31.384  13.649  0.00  0.00    -0.392 OA
ATOM     29  H   LIG    1       17.530 -31.035  14.205  0.00  0.00    +0.210 HD
ENDBRANCH  12  28
BRANCH  16  30
ATOM     30  O   LIG    1       21.799 -30.935   9.862  0.00  0.00    -0.392 OA
ATOM     31  H   LIG    1       22.300 -31.589  10.374  0.00  0.00    +0.210 HD
ENDBRANCH  16  30
TORSDOF 7
ENDMDL
MODEL 7
REMARK VINA RESULT:      -5.5      2.715      3.241
REMARK  Name = *****
REMARK                            x       y       z     vdW  Elec       q    Type
REMARK                         _______ _______ _______ _____ _____    ______ ____
ROOT
ATOM      1  C   LIG    1       24.427 -31.117   7.485  0.00  0.00    -0.002 C 
ATOM      2  C   LIG    1       24.856 -30.196   8.705  0.00  0.00    -0.026 C 
ATOM      3  C   LIG    1       25.545 -28.878   8.312  0.00  0.00    +0.012 C 
ATOM      4  C   LIG    1       25.863 -31.100   9.498  0.00  0.00    +0.001 C 
ATOM      5  C   LIG    1       25.969 -30.934  11.025  0.00  0.00    +0.025 C 
ATOM      6  C   LIG    1       24.256 -30.729  11.798  0.00  0.00    +0.001 C 
ATOM      7  C   LIG    1       23.186 -30.656  10.677  0.00  0.00    +0.005 C 
ATOM      8  C   LIG    1       24.170 -29.373  13.041  0.00  0.00    -0.026 C 
ATOM      9  C   LIG    1       23.017 -28.413  12.814  0.00  0.00    +0.012 C 
ATOM     10  C   LIG    1       25.540 -28.484  13.931  0.00  0.00    +0.000 C 
ATOM     11  C   LIG    1       25.649 -29.057  15.307  0.00  0.00    +0.035 C 
ATOM     12  C   LIG    1       25.929 -30.482  14.985  0.00  0.00    +0.115 C 
ATOM     13  C   LIG    1       26.034 -30.631  13.431  0.00  0.00    +0.032 C 
ATOM     14  C   LIG    1       27.237 -28.641  13.050  0.00  0.00    +0.035 C 
ATOM     15  C   LIG    1       25.310 -29.206  12.279  0.00  0.00    +0.009 C 
ATOM     16  C   LIG    1       27.332 -29.731  11.525  0.00  0.00    +0.118 C 
ATOM     17  C   LIG    1       25.475 -32.537   9.123  0.00  0.00    +0.005 C 
ATOM     18  C   LIG    1       23.564 -29.779   9.488  0.00  0.00    +0.007 C 
ATOM     19  C   LIG    1       25.194 -32.439   7.640  0.00  0.00    +0.004 C 
ENDROOT
BRANCH   1  21
ATOM     20  C   LIG    1       25.793 -30.846   5.388  0.00  0.00    +0.008 C 
ATOM     21  C   LIG    1       24.416 -30.563   6.025  0.00  0.00    -0.010 C 
BRANCH  21  22
ATOM     22  C   LIG    1       24.057 -29.060   5.872  0.00  0.00    +0.015 C 
BRANCH  22  23
ATOM     23  C   LIG    1       24.993 -28.282   4.942  0.00  0.00    +0.121 C 
BRANCH  23  24
ATOM     24  C   LIG    1       25.010 -26.809   5.311  0.00  0.00    +0.305 C 
ATOM     25  O   LIG    1       25.864 -26.026   4.947  0.00  0.00    -0.251 OA
BRANCH  24  26
ATOM     26  O   LIG    1       23.978 -26.447   6.117  0.00  0.00    -0.481 OA
ATOM     27  H   LIG    1       23.145 -26.918   5.940  0.00  0.00    +0.295 HD
ENDBRANCH  24  26
ENDBRANCH  23  24
ENDBRANCH  22  23
ENDBRANCH  21  22
ENDBRANCH   1  21
BRANCH  12  28
ATOM     28  O   LIG    1       24.888 -31.303  15.500  0.00  0.00    -0.392 OA
ATOM     29  H   LIG    1       25.306 -32.106  15.857  0.00  0.00    +0.210 HD
ENDBRANCH  12  28
BRANCH  16  30
ATOM     30  O   LIG    1       27.689 -28.898  10.422  0.00  0.00    -0.392 OA
ATOM     31  H   LIG    1       28.606 -29.100  10.179  0.00  0.00    +0.210 HD
ENDBRANCH  16  30
TORSDOF 7
ENDMDL
MODEL 8
REMARK VINA RESULT:      -5.5      9.785     13.518
REMARK  Name = *****
REMARK                            x       y       z     vdW  Elec       q    Type
REMARK                         _______ _______ _______ _____ _____    ______ ____
ROOT
ATOM      1  C   LIG    1       30.909 -19.950   8.292  0.00  0.00    -0.002 C 
ATOM      2  C   LIG    1       29.348 -19.757   8.075  0.00  0.00    -0.026 C 
ATOM      3  C   LIG    1       28.693 -18.703   8.984  0.00  0.00    +0.012 C 
ATOM      4  C   LIG    1       28.765 -21.174   8.408  0.00  0.00    +0.001 C 
ATOM      5  C   LIG    1       27.486 -21.641   7.688  0.00  0.00    +0.025 C 
ATOM      6  C   LIG    1       27.542 -21.179   5.855  0.00  0.00    +0.001 C 
ATOM      7  C   LIG    1       28.813 -20.335   5.571  0.00  0.00    +0.005 C 
ATOM      8  C   LIG    1       25.971 -20.446   5.235  0.00  0.00    -0.026 C 
ATOM      9  C   LIG    1       26.164 -19.145   4.480  0.00  0.00    +0.012 C 
ATOM     10  C   LIG    1       24.268 -20.474   5.982  0.00  0.00    +0.000 C 
ATOM     11  C   LIG    1       23.469 -21.523   5.278  0.00  0.00    +0.035 C 
ATOM     12  C   LIG    1       24.297 -22.726   5.557  0.00  0.00    +0.115 C 
ATOM     13  C   LIG    1       25.496 -22.306   6.470  0.00  0.00    +0.032 C 
ATOM     14  C   LIG    1       24.276 -20.848   7.864  0.00  0.00    +0.035 C 
ATOM     15  C   LIG    1       25.970 -20.399   6.616  0.00  0.00    +0.009 C 
ATOM     16  C   LIG    1       25.924 -21.248   8.667  0.00  0.00    +0.118 C 
ATOM     17  C   LIG    1       29.927 -22.145   8.155  0.00  0.00    +0.005 C 
ATOM     18  C   LIG    1       29.110 -19.257   6.609  0.00  0.00    +0.007 C 
ATOM     19  C   LIG    1       31.117 -21.407   8.730  0.00  0.00    +0.004 C 
ENDROOT
BRANCH   1  21
ATOM     20  C   LIG    1       31.161 -18.868  10.551  0.00  0.00    +0.008 C 
ATOM     21  C   LIG    1       31.739 -18.919   9.120  0.00  0.00    -0.010 C 
BRANCH  21  22
ATOM     22  C   LIG    1       31.825 -17.485   8.530  0.00  0.00    +0.015 C 
BRANCH  22  23
ATOM     23  C   LIG    1       31.343 -16.385   9.480  0.00  0.00    +0.121 C 
BRANCH  23  24
ATOM     24  C   LIG    1       32.523 -15.709  10.157  0.00  0.00    +0.305 C 
ATOM     25  O   LIG    1       32.971 -16.041  11.237  0.00  0.00    -0.251 OA
BRANCH  24  26
ATOM     26  O   LIG    1       33.025 -14.667   9.443  0.00  0.00    -0.481 OA
ATOM     27  H   LIG    1       32.806 -14.687   8.496  0.00  0.00    +0.295 HD
ENDBRANCH  24  26
ENDBRANCH  23  24
ENDBRANCH  22  23
ENDBRANCH  21  22
ENDBRANCH   1  21
BRANCH  12  28
ATOM     28  O   LIG    1       24.767 -23.279   4.334  0.00  0.00    -0.392 OA
ATOM     29  H   LIG    1       25.522 -22.737   4.045  0.00  0.00    +0.210 HD
ENDBRANCH  12  28
BRANCH  16  30
ATOM     30  O   LIG    1       26.187 -20.234   9.637  0.00  0.00    -0.392 OA
ATOM     31  H   LIG    1       25.336 -19.880   9.938  0.00  0.00    +0.210 HD
ENDBRANCH  16  30
TORSDOF 7
ENDMDL
MODEL 9
REMARK VINA RESULT:      -5.4      4.147      9.072
REMARK  Name = *****
REMARK                            x       y       z     vdW  Elec       q    Type
REMARK                         _______ _______ _______ _____ _____    ______ ____
ROOT
ATOM      1  C   LIG    1       20.031 -28.979  13.733  0.00  0.00    -0.002 C 
ATOM      2  C   LIG    1       21.418 -29.709  13.482  0.00  0.00    -0.026 C 
ATOM      3  C   LIG    1       21.886 -30.625  14.626  0.00  0.00    +0.012 C 
ATOM      4  C   LIG    1       22.424 -28.516  13.319  0.00  0.00    +0.001 C 
ATOM      5  C   LIG    1       23.650 -28.696  12.405  0.00  0.00    +0.025 C 
ATOM      6  C   LIG    1       23.173 -29.600  10.813  0.00  0.00    +0.001 C 
ATOM      7  C   LIG    1       21.688 -30.040  10.892  0.00  0.00    +0.005 C 
ATOM      8  C   LIG    1       24.354 -30.934  10.347  0.00  0.00    -0.026 C 
ATOM      9  C   LIG    1       23.683 -32.261  10.047  0.00  0.00    +0.012 C 
ATOM     10  C   LIG    1       26.092 -31.244  10.932  0.00  0.00    +0.000 C 
ATOM     11  C   LIG    1       27.032 -30.739   9.885  0.00  0.00    +0.035 C 
ATOM     12  C   LIG    1       26.633 -29.307   9.833  0.00  0.00    +0.115 C 
ATOM     13  C   LIG    1       25.526 -29.057  10.910  0.00  0.00    +0.032 C 
ATOM     14  C   LIG    1       26.490 -30.386  12.600  0.00  0.00    +0.035 C 
ATOM     15  C   LIG    1       24.562 -30.598  11.671  0.00  0.00    +0.009 C 
ATOM     16  C   LIG    1       25.173 -29.280  13.350  0.00  0.00    +0.118 C 
ATOM     17  C   LIG    1       21.558 -27.335  12.857  0.00  0.00    +0.005 C 
ATOM     18  C   LIG    1       21.268 -30.640  12.230  0.00  0.00    +0.007 C 
ATOM     19  C   LIG    1       20.316 -27.470  13.711  0.00  0.00    +0.004 C 
ENDROOT
BRANCH   1  21
ATOM     20  C   LIG    1       18.215 -30.594  14.390  0.00  0.00    +0.008 C 
ATOM     21  C   LIG    1       19.087 -29.424  14.894  0.00  0.00    -0.010 C 
BRANCH  21  22
ATOM     22  C   LIG    1       18.186 -28.313  15.500  0.00  0.00    +0.015 C 
BRANCH  22  23
ATOM     23  C   LIG    1       17.009 -27.904  14.610  0.00  0.00    +0.121 C 
BRANCH  23  24
ATOM     24  C   LIG    1       16.690 -26.430  14.790  0.00  0.00    +0.305 C 
ATOM     25  O   LIG    1       15.775 -26.009  15.470  0.00  0.00    -0.251 OA
BRANCH  24  26
ATOM     26  O   LIG    1       17.521 -25.613  14.091  0.00  0.00    -0.481 OA
ATOM     27  H   LIG    1       17.952 -26.036  13.328  0.00  0.00    +0.295 HD
ENDBRANCH  24  26
ENDBRANCH  23  24
ENDBRANCH  22  23
ENDBRANCH  21  22
ENDBRANCH   1  21
BRANCH  12  28
ATOM     28  O   LIG    1       26.149 -28.991   8.533  0.00  0.00    -0.392 OA
ATOM     29  H   LIG    1       25.321 -28.494   8.647  0.00  0.00    +0.210 HD
ENDBRANCH  12  28
BRANCH  16  30
ATOM     30  O   LIG    1       24.792 -29.851  14.601  0.00  0.00    -0.392 OA
ATOM     31  H   LIG    1       25.001 -29.210  15.298  0.00  0.00    +0.210 HD
ENDBRANCH  16  30
TORSDOF 7
ENDMDL
