MODEL 1
REMARK VINA RESULT:      20.4      0.000      0.000
REMARK  Name = *****
REMARK                            x       y       z     vdW  Elec       q    Type
REMARK                         _______ _______ _______ _____ _____    ______ ____
ROOT
ATOM      1  C   LIG    1       25.584 -13.186   4.079  0.00  0.00    +0.169 C 
ATOM      2  C   LIG    1       24.701 -12.280   3.140  0.00  0.00    +0.084 C 
ATOM      3  C   LIG    1       23.363 -11.867   3.804  0.00  0.00    +0.042 C 
ATOM      4  C   LIG    1       23.422 -12.025   5.323  0.00  0.00    +0.084 C 
ATOM      5  C   LIG    1       23.640 -13.524   5.669  0.00  0.00    +0.163 C 
ATOM      6  C   LIG    1       24.695 -14.245   4.785  0.00  0.00    +0.182 C 
ENDROOT
BRANCH   2   7
ATOM      7  N   LIG    1       24.385 -12.891   1.832  0.00  0.00    -0.325 NA
ATOM      8  H   LIG    1       23.390 -12.727   1.639  0.00  0.00    +0.118 HD
ATOM      9  H   LIG    1       24.473 -13.903   1.892  0.00  0.00    +0.118 HD
ENDBRANCH   2   7
BRANCH   4  10
ATOM     10  N   LIG    1       22.189 -11.525   5.959  0.00  0.00    -0.325 NA
ATOM     11  H   LIG    1       21.901 -12.178   6.693  0.00  0.00    +0.118 HD
ATOM     12  H   LIG    1       22.393 -10.656   6.452  0.00  0.00    +0.118 HD
ENDBRANCH   4  10
BRANCH   5  13
ATOM     13  O   LIG    1       23.944 -13.702   7.062  0.00  0.00    -0.388 OA
ATOM     14  H   LIG    1       24.670 -13.075   7.276  0.00  0.00    +0.210 HD
ENDBRANCH   5  13
BRANCH   6  15
ATOM     15  O   LIG    1       24.110 -15.043   3.744  0.00  0.00    -0.340 OA
BRANCH  15  16
ATOM     16  C   LIG    1       23.378 -16.208   4.107  0.00  0.00    +0.282 C 
ATOM     17  C   LIG    1       22.060 -16.019   4.872  0.00  0.00    +0.202 C 
ATOM     18  C   LIG    1       21.532 -17.452   4.792  0.00  0.00    +0.186 C 
ATOM     19  C   LIG    1       21.837 -17.775   3.321  0.00  0.00    +0.178 C 
ATOM     20  O   LIG    1       23.093 -17.100   3.025  0.00  0.00    -0.341 OA
BRANCH  17  21
ATOM     21  O   LIG    1       22.186 -15.512   6.190  0.00  0.00    -0.384 OA
ATOM     22  H   LIG    1       22.554 -14.595   6.123  0.00  0.00    +0.210 HD
ENDBRANCH  17  21
BRANCH  19  23
ATOM     23  C   LIG    1       20.763 -17.348   2.302  0.00  0.00    +0.190 C 
BRANCH  23  24
ATOM     24  O   LIG    1       19.677 -18.262   2.209  0.00  0.00    -0.392 OA
ATOM     25  H   LIG    1       19.583 -18.502   1.267  0.00  0.00    +0.209 HD
ENDBRANCH  23  24
ENDBRANCH  19  23
BRANCH  18  26
ATOM     26  O   LIG    1       22.364 -18.363   5.558  0.00  0.00    -0.341 OA
BRANCH  26  27
ATOM     27  C   LIG    1       23.706 -18.528   5.086  0.00  0.00    +0.270 C 
ATOM     28  C   LIG    1       23.613 -19.193   3.672  0.00  0.00    +0.139 C 
ATOM     29  C   LIG    1       25.034 -19.418   3.119  0.00  0.00    +0.167 C 
ATOM     30  C   LIG    1       25.879 -20.211   4.134  0.00  0.00    +0.175 C 
ATOM     31  C   LIG    1       25.796 -19.558   5.536  0.00  0.00    +0.166 C 
ATOM     32  O   LIG    1       24.430 -19.391   5.954  0.00  0.00    -0.343 OA
BRANCH  28  33
ATOM     33  N   LIG    1       22.902 -20.508   3.730  0.00  0.00    -0.321 NA
ATOM     34  H   LIG    1       22.246 -20.494   4.512  0.00  0.00    +0.119 HD
ATOM     35  H   LIG    1       23.607 -21.213   3.973  0.00  0.00    +0.119 HD
ENDBRANCH  28  33
BRANCH  30  36
ATOM     36  O   LIG    1       25.431 -21.572   4.170  0.00  0.00    -0.387 OA
ATOM     37  H   LIG    1       24.933 -21.666   5.017  0.00  0.00    +0.210 HD
ENDBRANCH  30  36
BRANCH  29  38
ATOM     38  O   LIG    1       25.647 -18.160   2.822  0.00  0.00    -0.387 OA
ATOM     39  H   LIG    1       26.095 -18.259   1.963  0.00  0.00    +0.210 HD
ENDBRANCH  29  38
BRANCH  31  40
ATOM     40  C   LIG    1       26.510 -20.428   6.589  0.00  0.00    +0.112 C 
BRANCH  40  41
ATOM     41  N   LIG    1       27.850 -19.925   6.920  0.00  0.00    -0.328 NA
ATOM     42  H   LIG    1       27.864 -19.619   7.890  0.00  0.00    +0.118 HD
ATOM     43  H   LIG    1       28.539 -20.668   6.824  0.00  0.00    +0.118 HD
ENDBRANCH  40  41
ENDBRANCH  31  40
ENDBRANCH  26  27
ENDBRANCH  18  26
ENDBRANCH  15  16
ENDBRANCH   6  15
BRANCH   1  44
ATOM     44  O   LIG    1       26.291 -12.326   5.007  0.00  0.00    -0.342 OA
BRANCH  44  49
ATOM     45  C   LIG    1       27.612 -14.829   5.560  0.00  0.00    +0.166 C 
ATOM     46  C   LIG    1       27.891 -15.230   4.096  0.00  0.00    +0.175 C 
ATOM     47  C   LIG    1       27.590 -14.080   3.126  0.00  0.00    +0.167 C 
ATOM     48  C   LIG    1       28.303 -12.818   3.629  0.00  0.00    +0.139 C 
ATOM     49  C   LIG    1       27.714 -12.491   5.035  0.00  0.00    +0.270 C 
ATOM     50  O   LIG    1       28.106 -13.527   5.924  0.00  0.00    -0.343 OA
BRANCH  48  51
ATOM     51  N   LIG    1       28.290 -11.729   2.623  0.00  0.00    -0.321 NA
ATOM     52  H   LIG    1       28.553 -12.153   1.726  0.00  0.00    +0.119 HD
ATOM     53  H   LIG    1       29.075 -11.106   2.827  0.00  0.00    +0.119 HD
ENDBRANCH  48  51
BRANCH  47  54
ATOM     54  O   LIG    1       28.055 -14.445   1.812  0.00  0.00    -0.387 OA
ATOM     55  H   LIG    1       27.306 -14.914   1.398  0.00  0.00    +0.210 HD
ENDBRANCH  47  54
BRANCH  46  56
ATOM     56  O   LIG    1       27.106 -16.374   3.731  0.00  0.00    -0.387 OA
ATOM     57  H   LIG    1       26.479 -16.053   3.053  0.00  0.00    +0.210 HD
ENDBRANCH  46  56
BRANCH  45  58
ATOM     58  C   LIG    1       28.213 -15.841   6.564  0.00  0.00    +0.112 C 
BRANCH  58  59
ATOM     59  N   LIG    1       28.938 -16.963   5.948  0.00  0.00    -0.328 NA
ATOM     60  H   LIG    1       29.793 -16.639   5.504  0.00  0.00    +0.118 HD
ATOM     61  H   LIG    1       28.365 -17.365   5.208  0.00  0.00    +0.118 HD
ENDBRANCH  58  59
ENDBRANCH  45  58
ENDBRANCH  44  49
ENDBRANCH   1  44
TORSDOF 22
ENDMDL
MODEL 2
REMARK VINA RESULT:      22.3      1.336      2.115
REMARK  Name = *****
REMARK                            x       y       z     vdW  Elec       q    Type
REMARK                         _______ _______ _______ _____ _____    ______ ____
ROOT
ATOM      1  C   LIG    1       25.716 -14.234   4.422  0.00  0.00    +0.169 C 
ATOM      2  C   LIG    1       25.498 -13.555   3.017  0.00  0.00    +0.084 C 
ATOM      3  C   LIG    1       24.201 -12.709   2.963  0.00  0.00    +0.042 C 
ATOM      4  C   LIG    1       23.712 -12.351   4.365  0.00  0.00    +0.084 C 
ATOM      5  C   LIG    1       23.351 -13.657   5.126  0.00  0.00    +0.163 C 
ATOM      6  C   LIG    1       24.375 -14.812   4.947  0.00  0.00    +0.182 C 
ENDROOT
BRANCH   2   7
ATOM      7  N   LIG    1       25.462 -14.505   1.884  0.00  0.00    -0.325 NA
ATOM      8  H   LIG    1       24.862 -15.293   2.153  0.00  0.00    +0.118 HD
ATOM      9  H   LIG    1       26.384 -14.917   1.748  0.00  0.00    +0.118 HD
ENDBRANCH   2   7
BRANCH   4  10
ATOM     10  N   LIG    1       22.543 -11.452   4.309  0.00  0.00    -0.325 NA
ATOM     11  H   LIG    1       22.772 -10.573   4.782  0.00  0.00    +0.118 HD
ATOM     12  H   LIG    1       22.371 -11.185   3.339  0.00  0.00    +0.118 HD
ENDBRANCH   4  10
BRANCH   5  13
ATOM     13  O   LIG    1       23.116 -13.405   6.521  0.00  0.00    -0.388 OA
ATOM     14  H   LIG    1       23.406 -12.483   6.695  0.00  0.00    +0.210 HD
ENDBRANCH   5  13
BRANCH   6  15
ATOM     15  O   LIG    1       23.955 -15.797   3.988  0.00  0.00    -0.340 OA
BRANCH  15  16
ATOM     16  C   LIG    1       23.441 -17.035   4.464  0.00  0.00    +0.282 C 
ATOM     17  C   LIG    1       21.985 -17.069   4.951  0.00  0.00    +0.202 C 
ATOM     18  C   LIG    1       21.816 -18.583   5.087  0.00  0.00    +0.186 C 
ATOM     19  C   LIG    1       22.481 -19.052   3.784  0.00  0.00    +0.178 C 
ATOM     20  O   LIG    1       23.590 -18.134   3.559  0.00  0.00    -0.341 OA
BRANCH  17  21
ATOM     21  O   LIG    1       21.721 -16.340   6.138  0.00  0.00    -0.384 OA
ATOM     22  H   LIG    1       21.721 -16.985   6.891  0.00  0.00    +0.210 HD
ENDBRANCH  17  21
BRANCH  19  23
ATOM     23  C   LIG    1       21.573 -19.086   2.540  0.00  0.00    +0.190 C 
BRANCH  23  24
ATOM     24  O   LIG    1       20.221 -18.747   2.819  0.00  0.00    -0.392 OA
ATOM     25  H   LIG    1       19.711 -18.894   1.998  0.00  0.00    +0.209 HD
ENDBRANCH  23  24
ENDBRANCH  19  23
BRANCH  18  26
ATOM     26  O   LIG    1       22.653 -19.113   6.149  0.00  0.00    -0.341 OA
BRANCH  26  27
ATOM     27  C   LIG    1       23.641 -20.068   5.747  0.00  0.00    +0.270 C 
ATOM     28  C   LIG    1       25.039 -19.434   6.052  0.00  0.00    +0.139 C 
ATOM     29  C   LIG    1       26.149 -20.410   5.618  0.00  0.00    +0.167 C 
ATOM     30  C   LIG    1       25.951 -20.819   4.146  0.00  0.00    +0.175 C 
ATOM     31  C   LIG    1       24.498 -21.301   3.909  0.00  0.00    +0.166 C 
ATOM     32  O   LIG    1       23.543 -20.319   4.351  0.00  0.00    -0.343 OA
BRANCH  28  33
ATOM     33  N   LIG    1       25.222 -18.138   5.326  0.00  0.00    -0.321 NA
ATOM     34  H   LIG    1       24.420 -17.537   5.515  0.00  0.00    +0.119 HD
ATOM     35  H   LIG    1       25.177 -18.353   4.323  0.00  0.00    +0.119 HD
ENDBRANCH  28  33
BRANCH  30  36
ATOM     36  O   LIG    1       26.275 -19.714   3.294  0.00  0.00    -0.387 OA
ATOM     37  H   LIG    1       25.819 -19.895   2.437  0.00  0.00    +0.210 HD
ENDBRANCH  30  36
BRANCH  29  38
ATOM     38  O   LIG    1       26.148 -21.560   6.468  0.00  0.00    -0.387 OA
ATOM     39  H   LIG    1       27.033 -21.962   6.404  0.00  0.00    +0.210 HD
ENDBRANCH  29  38
BRANCH  31  40
ATOM     40  C   LIG    1       24.245 -21.565   2.412  0.00  0.00    +0.112 C 
BRANCH  40  41
ATOM     41  N   LIG    1       22.816 -21.568   2.075  0.00  0.00    -0.328 NA
ATOM     42  H   LIG    1       22.706 -21.416   1.074  0.00  0.00    +0.118 HD
ATOM     43  H   LIG    1       22.403 -22.473   2.292  0.00  0.00    +0.118 HD
ENDBRANCH  40  41
ENDBRANCH  31  40
ENDBRANCH  26  27
ENDBRANCH  18  26
ENDBRANCH  15  16
ENDBRANCH   6  15
BRANCH   1  44
ATOM     44  O   LIG    1       26.301 -13.252   5.314  0.00  0.00    -0.342 OA
BRANCH  44  49
ATOM     45  C   LIG    1       27.888 -15.660   5.311  0.00  0.00    +0.166 C 
ATOM     46  C   LIG    1       28.264 -15.644   3.814  0.00  0.00    +0.175 C 
ATOM     47  C   LIG    1       27.864 -14.323   3.143  0.00  0.00    +0.167 C 
ATOM     48  C   LIG    1       28.405 -13.164   3.989  0.00  0.00    +0.139 C 
ATOM     49  C   LIG    1       27.732 -13.268   5.392  0.00  0.00    +0.270 C 
ATOM     50  O   LIG    1       28.211 -14.450   6.018  0.00  0.00    -0.343 OA
BRANCH  48  51
ATOM     51  N   LIG    1       28.300 -11.861   3.287  0.00  0.00    -0.321 NA
ATOM     52  H   LIG    1       27.910 -12.058   2.359  0.00  0.00    +0.119 HD
ATOM     53  H   LIG    1       29.249 -11.541   3.080  0.00  0.00    +0.119 HD
ENDBRANCH  48  51
BRANCH  47  54
ATOM     54  O   LIG    1       28.416 -14.291   1.813  0.00  0.00    -0.387 OA
ATOM     55  H   LIG    1       28.045 -13.488   1.403  0.00  0.00    +0.210 HD
ENDBRANCH  47  54
BRANCH  46  56
ATOM     56  O   LIG    1       27.633 -16.733   3.127  0.00  0.00    -0.387 OA
ATOM     57  H   LIG    1       27.693 -16.510   2.176  0.00  0.00    +0.210 HD
ENDBRANCH  46  56
BRANCH  45  58
ATOM     58  C   LIG    1       28.567 -16.826   6.068  0.00  0.00    +0.112 C 
BRANCH  58  59
ATOM     59  N   LIG    1       29.453 -17.661   5.244  0.00  0.00    -0.328 NA
ATOM     60  H   LIG    1       29.289 -17.495   4.254  0.00  0.00    +0.118 HD
ATOM     61  H   LIG    1       29.237 -18.643   5.410  0.00  0.00    +0.118 HD
ENDBRANCH  58  59
ENDBRANCH  45  58
ENDBRANCH  44  49
ENDBRANCH   1  44
TORSDOF 22
ENDMDL
