MODEL 1
REMARK VINA RESULT:      -7.8      0.000      0.000
REMARK  Name = *****
REMARK                            x       y       z     vdW  Elec       q    Type
REMARK                         _______ _______ _______ _____ _____    ______ ____
ROOT
ATOM      1  C   LIG    1       24.319 -23.144   6.419  0.00  0.00    +0.122 C 
ATOM      2  C   LIG    1       25.605 -23.303   7.126  0.00  0.00    +0.203 C 
ATOM      3  O   LIG    1       25.885 -24.376   7.658  0.00  0.00    -0.286 OA
ATOM      4  C   LIG    1       26.545 -22.157   7.143  0.00  0.00    +0.049 C 
ATOM      5  C   LIG    1       26.215 -20.973   6.460  0.00  0.00    +0.055 C 
ATOM      6  C   LIG    1       27.155 -19.922   6.486  0.00  0.00    +0.052 C 
ATOM      7  C   LIG    1       28.397 -20.020   7.156  0.00  0.00    +0.067 C 
ATOM      8  C   LIG    1       28.666 -21.234   7.810  0.00  0.00    +0.145 C 
ATOM      9  F   LIG    1       29.816 -21.423   8.472  0.00  0.00    -0.203 F 
ATOM     10  N   LIG    1       24.964 -20.886   5.784  0.00  0.00    -0.343 NA
ATOM     11  C   LIG    1       27.758 -22.289   7.817  0.00  0.00    +0.054 C 
ATOM     12  C   LIG    1       24.111 -21.979   5.789  0.00  0.00    +0.105 C 
ENDROOT
BRANCH   7  13
ATOM     13  N   LIG    1       29.288 -18.944   7.081  0.00  0.00    -0.325 NA
ATOM     14  C   LIG    1       29.501 -18.150   8.310  0.00  0.00    +0.120 C 
ATOM     15  C   LIG    1       30.809 -18.559   9.032  0.00  0.00    +0.100 C 
ATOM     16  N   LIG    1       32.004 -18.511   8.165  0.00  0.00    -0.313 NA
ATOM     17  H   LIG    1       32.121 -17.553   7.832  0.00  0.00    +0.122 HD
ATOM     18  C   LIG    1       31.766 -19.376   6.990  0.00  0.00    +0.100 C 
ATOM     19  C   LIG    1       30.480 -19.019   6.210  0.00  0.00    +0.120 C 
ENDBRANCH   7  13
BRANCH  10  20
ATOM     20  C   LIG    1       24.605 -19.738   4.926  0.00  0.00    +0.087 C 
ATOM     21  C   LIG    1       24.623 -19.838   3.417  0.00  0.00    +0.027 C 
ATOM     22  C   LIG    1       23.321 -19.688   4.136  0.00  0.00    +0.027 C 
ENDBRANCH  10  20
BRANCH   1  24
ATOM     23  O   LIG    1       22.143 -24.029   6.800  0.00  0.00    -0.245 OA
ATOM     24  C   LIG    1       23.281 -24.191   6.371  0.00  0.00    +0.342 C 
BRANCH  24  25
ATOM     25  O   LIG    1       23.675 -25.352   5.805  0.00  0.00    -0.477 OA
ATOM     26  H   LIG    1       24.152 -25.238   4.947  0.00  0.00    +0.295 HD
ENDBRANCH  24  25
ENDBRANCH   1  24
TORSDOF 4
ENDMDL
MODEL 2
REMARK VINA RESULT:      -6.9      3.902      6.825
REMARK  Name = *****
REMARK                            x       y       z     vdW  Elec       q    Type
REMARK                         _______ _______ _______ _____ _____    ______ ____
ROOT
ATOM      1  C   LIG    1       29.985 -20.149   7.749  0.00  0.00    +0.122 C 
ATOM      2  C   LIG    1       29.672 -19.266   6.608  0.00  0.00    +0.203 C 
ATOM      3  O   LIG    1       30.504 -18.451   6.216  0.00  0.00    -0.286 OA
ATOM      4  C   LIG    1       28.356 -19.416   5.942  0.00  0.00    +0.049 C 
ATOM      5  C   LIG    1       27.462 -20.410   6.378  0.00  0.00    +0.055 C 
ATOM      6  C   LIG    1       26.235 -20.528   5.694  0.00  0.00    +0.052 C 
ATOM      7  C   LIG    1       25.882 -19.701   4.602  0.00  0.00    +0.067 C 
ATOM      8  C   LIG    1       26.826 -18.735   4.213  0.00  0.00    +0.145 C 
ATOM      9  F   LIG    1       26.584 -17.905   3.189  0.00  0.00    -0.203 F 
ATOM     10  N   LIG    1       27.829 -21.241   7.476  0.00  0.00    -0.343 NA
ATOM     11  C   LIG    1       28.042 -18.580   4.871  0.00  0.00    +0.054 C 
ATOM     12  C   LIG    1       29.068 -21.073   8.073  0.00  0.00    +0.105 C 
ENDROOT
BRANCH   7  13
ATOM     13  N   LIG    1       24.664 -19.928   3.953  0.00  0.00    -0.325 NA
ATOM     14  C   LIG    1       24.069 -21.277   4.073  0.00  0.00    +0.120 C 
ATOM     15  C   LIG    1       22.952 -21.311   5.146  0.00  0.00    +0.100 C 
ATOM     16  N   LIG    1       21.902 -20.293   4.941  0.00  0.00    -0.313 NA
ATOM     17  H   LIG    1       21.464 -20.461   4.034  0.00  0.00    +0.122 HD
ATOM     18  C   LIG    1       22.542 -18.961   4.900  0.00  0.00    +0.100 C 
ATOM     19  C   LIG    1       23.663 -18.847   3.841  0.00  0.00    +0.120 C 
ENDBRANCH   7  13
BRANCH  10  20
ATOM     20  C   LIG    1       27.013 -22.398   7.901  0.00  0.00    +0.087 C 
ATOM     21  C   LIG    1       25.576 -22.236   8.344  0.00  0.00    +0.027 C 
ATOM     22  C   LIG    1       25.882 -22.942   7.063  0.00  0.00    +0.027 C 
ENDBRANCH  10  20
BRANCH   1  24
ATOM     23  O   LIG    1       31.737 -21.028   9.096  0.00  0.00    -0.245 OA
ATOM     24  C   LIG    1       31.237 -20.066   8.524  0.00  0.00    +0.342 C 
BRANCH  24  25
ATOM     25  O   LIG    1       31.806 -18.842   8.549  0.00  0.00    -0.477 OA
ATOM     26  H   LIG    1       32.379 -18.681   9.338  0.00  0.00    +0.295 HD
ENDBRANCH  24  25
ENDBRANCH   1  24
TORSDOF 4
ENDMDL
MODEL 3
REMARK VINA RESULT:      -6.2      1.689      2.181
REMARK  Name = *****
REMARK                            x       y       z     vdW  Elec       q    Type
REMARK                         _______ _______ _______ _____ _____    ______ ____
ROOT
ATOM      1  C   LIG    1       23.750 -21.064   5.512  0.00  0.00    +0.122 C 
ATOM      2  C   LIG    1       24.564 -21.634   6.604  0.00  0.00    +0.203 C 
ATOM      3  O   LIG    1       24.072 -22.463   7.368  0.00  0.00    -0.286 OA
ATOM      4  C   LIG    1       25.978 -21.206   6.727  0.00  0.00    +0.049 C 
ATOM      5  C   LIG    1       26.519 -20.309   5.789  0.00  0.00    +0.055 C 
ATOM      6  C   LIG    1       27.876 -19.954   5.935  0.00  0.00    +0.052 C 
ATOM      7  C   LIG    1       28.696 -20.463   6.969  0.00  0.00    +0.067 C 
ATOM      8  C   LIG    1       28.092 -21.361   7.866  0.00  0.00    +0.145 C 
ATOM      9  F   LIG    1       28.787 -21.899   8.878  0.00  0.00    -0.203 F 
ATOM     10  N   LIG    1       25.687 -19.805   4.748  0.00  0.00    -0.343 NA
ATOM     11  C   LIG    1       26.754 -21.726   7.761  0.00  0.00    +0.054 C 
ATOM     12  C   LIG    1       24.370 -20.229   4.664  0.00  0.00    +0.105 C 
ENDROOT
BRANCH   7  13
ATOM     13  N   LIG    1       30.044 -20.094   7.002  0.00  0.00    -0.325 NA
ATOM     14  C   LIG    1       30.368 -18.674   6.742  0.00  0.00    +0.120 C 
ATOM     15  C   LIG    1       30.622 -17.899   8.059  0.00  0.00    +0.100 C 
ATOM     16  N   LIG    1       31.646 -18.518   8.924  0.00  0.00    -0.313 NA
ATOM     17  H   LIG    1       32.527 -18.548   8.408  0.00  0.00    +0.122 HD
ATOM     18  C   LIG    1       31.237 -19.910   9.210  0.00  0.00    +0.100 C 
ATOM     19  C   LIG    1       30.978 -20.752   7.940  0.00  0.00    +0.120 C 
ENDBRANCH   7  13
BRANCH  10  20
ATOM     20  C   LIG    1       26.213 -18.977   3.643  0.00  0.00    +0.087 C 
ATOM     21  C   LIG    1       25.551 -17.678   3.239  0.00  0.00    +0.027 C 
ATOM     22  C   LIG    1       26.902 -17.656   3.879  0.00  0.00    +0.027 C 
ENDBRANCH  10  20
BRANCH   1  24
ATOM     23  O   LIG    1       21.545 -20.615   4.743  0.00  0.00    -0.245 OA
ATOM     24  C   LIG    1       22.322 -21.373   5.314  0.00  0.00    +0.342 C 
BRANCH  24  25
ATOM     25  O   LIG    1       21.929 -22.569   5.802  0.00  0.00    -0.477 OA
ATOM     26  H   LIG    1       22.580 -22.983   6.421  0.00  0.00    +0.295 HD
ENDBRANCH  24  25
ENDBRANCH   1  24
TORSDOF 4
ENDMDL
MODEL 4
REMARK VINA RESULT:      -6.0      3.204      6.518
REMARK  Name = *****
REMARK                            x       y       z     vdW  Elec       q    Type
REMARK                         _______ _______ _______ _____ _____    ______ ____
ROOT
ATOM      1  C   LIG    1       30.324 -19.560   7.421  0.00  0.00    +0.122 C 
ATOM      2  C   LIG    1       29.340 -20.565   7.868  0.00  0.00    +0.203 C 
ATOM      3  O   LIG    1       29.545 -21.212   8.893  0.00  0.00    -0.286 OA
ATOM      4  C   LIG    1       28.102 -20.742   7.071  0.00  0.00    +0.049 C 
ATOM      5  C   LIG    1       27.875 -19.932   5.944  0.00  0.00    +0.055 C 
ATOM      6  C   LIG    1       26.671 -20.123   5.236  0.00  0.00    +0.052 C 
ATOM      7  C   LIG    1       25.700 -21.079   5.617  0.00  0.00    +0.067 C 
ATOM      8  C   LIG    1       25.988 -21.849   6.757  0.00  0.00    +0.145 C 
ATOM      9  F   LIG    1       25.130 -22.779   7.197  0.00  0.00    -0.203 F 
ATOM     10  N   LIG    1       28.857 -18.968   5.572  0.00  0.00    -0.343 NA
ATOM     11  C   LIG    1       27.170 -21.698   7.475  0.00  0.00    +0.054 C 
ATOM     12  C   LIG    1       30.001 -18.830   6.342  0.00  0.00    +0.105 C 
ENDROOT
BRANCH   7  13
ATOM     13  N   LIG    1       24.512 -21.159   4.883  0.00  0.00    -0.325 NA
ATOM     14  C   LIG    1       23.243 -21.170   5.642  0.00  0.00    +0.120 C 
ATOM     15  C   LIG    1       22.576 -19.772   5.655  0.00  0.00    +0.100 C 
ATOM     16  N   LIG    1       22.374 -19.199   4.308  0.00  0.00    -0.313 NA
ATOM     17  H   LIG    1       21.767 -19.827   3.780  0.00  0.00    +0.122 HD
ATOM     18  C   LIG    1       23.683 -19.145   3.622  0.00  0.00    +0.100 C 
ATOM     19  C   LIG    1       24.405 -20.510   3.559  0.00  0.00    +0.120 C 
ENDBRANCH   7  13
BRANCH  10  20
ATOM     20  C   LIG    1       28.631 -17.983   4.494  0.00  0.00    +0.087 C 
ATOM     21  C   LIG    1       27.241 -17.515   4.125  0.00  0.00    +0.027 C 
ATOM     22  C   LIG    1       28.197 -16.565   4.771  0.00  0.00    +0.027 C 
ENDBRANCH  10  20
BRANCH   1  24
ATOM     23  O   LIG    1       32.275 -18.303   7.943  0.00  0.00    -0.245 OA
ATOM     24  C   LIG    1       31.612 -19.323   8.098  0.00  0.00    +0.342 C 
BRANCH  24  25
ATOM     25  O   LIG    1       32.009 -20.318   8.920  0.00  0.00    -0.477 OA
ATOM     26  H   LIG    1       31.413 -20.460   9.696  0.00  0.00    +0.295 HD
ENDBRANCH  24  25
ENDBRANCH   1  24
TORSDOF 4
ENDMDL
MODEL 5
REMARK VINA RESULT:      -5.9      2.530      3.668
REMARK  Name = *****
REMARK                            x       y       z     vdW  Elec       q    Type
REMARK                         _______ _______ _______ _____ _____    ______ ____
ROOT
ATOM      1  C   LIG    1       24.758 -20.879   4.737  0.00  0.00    +0.122 C 
ATOM      2  C   LIG    1       25.617 -19.763   4.293  0.00  0.00    +0.203 C 
ATOM      3  O   LIG    1       25.254 -19.039   3.368  0.00  0.00    -0.286 OA
ATOM      4  C   LIG    1       26.894 -19.531   5.008  0.00  0.00    +0.049 C 
ATOM      5  C   LIG    1       27.237 -20.339   6.107  0.00  0.00    +0.055 C 
ATOM      6  C   LIG    1       28.451 -20.060   6.768  0.00  0.00    +0.052 C 
ATOM      7  C   LIG    1       29.314 -19.010   6.377  0.00  0.00    +0.067 C 
ATOM      8  C   LIG    1       28.906 -18.236   5.277  0.00  0.00    +0.145 C 
ATOM      9  F   LIG    1       29.656 -17.219   4.831  0.00  0.00    -0.203 F 
ATOM     10  N   LIG    1       26.358 -21.391   6.496  0.00  0.00    -0.343 NA
ATOM     11  C   LIG    1       27.722 -18.489   4.591  0.00  0.00    +0.054 C 
ATOM     12  C   LIG    1       25.172 -21.578   5.804  0.00  0.00    +0.105 C 
ENDROOT
BRANCH   7  13
ATOM     13  N   LIG    1       30.470 -18.776   7.128  0.00  0.00    -0.325 NA
ATOM     14  C   LIG    1       30.432 -17.671   8.110  0.00  0.00    +0.120 C 
ATOM     15  C   LIG    1       30.186 -18.197   9.547  0.00  0.00    +0.100 C 
ATOM     16  N   LIG    1       31.145 -19.238   9.969  0.00  0.00    -0.313 NA
ATOM     17  H   LIG    1       32.084 -18.840   9.942  0.00  0.00    +0.122 HD
ATOM     18  C   LIG    1       31.091 -20.348   8.993  0.00  0.00    +0.100 C 
ATOM     19  C   LIG    1       31.339 -19.900   7.534  0.00  0.00    +0.120 C 
ENDBRANCH   7  13
BRANCH  10  20
ATOM     20  C   LIG    1       26.572 -22.189   7.721  0.00  0.00    +0.087 C 
ATOM     21  C   LIG    1       25.884 -21.844   9.024  0.00  0.00    +0.027 C 
ATOM     22  C   LIG    1       25.509 -23.094   8.293  0.00  0.00    +0.027 C 
ENDBRANCH  10  20
BRANCH   1  24
ATOM     23  O   LIG    1       22.391 -21.065   4.593  0.00  0.00    -0.245 OA
ATOM     24  C   LIG    1       23.489 -21.242   4.078  0.00  0.00    +0.342 C 
BRANCH  24  25
ATOM     25  O   LIG    1       23.626 -21.781   2.847  0.00  0.00    -0.477 OA
ATOM     26  H   LIG    1       24.540 -22.100   2.648  0.00  0.00    +0.295 HD
ENDBRANCH  24  25
ENDBRANCH   1  24
TORSDOF 4
ENDMDL
MODEL 6
REMARK VINA RESULT:      -5.9      6.696      9.410
REMARK  Name = *****
REMARK                            x       y       z     vdW  Elec       q    Type
REMARK                         _______ _______ _______ _____ _____    ______ ____
ROOT
ATOM      1  C   LIG    1       25.336 -31.704   9.654  0.00  0.00    +0.122 C 
ATOM      2  C   LIG    1       24.678 -31.508   8.347  0.00  0.00    +0.203 C 
ATOM      3  O   LIG    1       23.991 -32.406   7.865  0.00  0.00    -0.286 OA
ATOM      4  C   LIG    1       24.845 -30.203   7.663  0.00  0.00    +0.049 C 
ATOM      5  C   LIG    1       25.582 -29.178   8.284  0.00  0.00    +0.055 C 
ATOM      6  C   LIG    1       25.688 -27.948   7.603  0.00  0.00    +0.052 C 
ATOM      7  C   LIG    1       25.086 -27.712   6.345  0.00  0.00    +0.067 C 
ATOM      8  C   LIG    1       24.358 -28.777   5.786  0.00  0.00    +0.145 C 
ATOM      9  F   LIG    1       23.751 -28.650   4.598  0.00  0.00    -0.203 F 
ATOM     10  N   LIG    1       26.180 -29.424   9.554  0.00  0.00    -0.343 NA
ATOM     11  C   LIG    1       24.240 -30.009   6.422  0.00  0.00    +0.054 C 
ATOM     12  C   LIG    1       26.001 -30.656  10.163  0.00  0.00    +0.105 C 
ENDROOT
BRANCH   7  13
ATOM     13  N   LIG    1       25.203 -26.442   5.772  0.00  0.00    -0.325 NA
ATOM     14  C   LIG    1       23.951 -25.724   5.448  0.00  0.00    +0.120 C 
ATOM     15  C   LIG    1       23.602 -24.674   6.532  0.00  0.00    +0.100 C 
ATOM     16  N   LIG    1       24.695 -23.720   6.808  0.00  0.00    -0.313 NA
ATOM     17  H   LIG    1       24.906 -23.216   5.946  0.00  0.00    +0.122 HD
ATOM     18  C   LIG    1       25.899 -24.487   7.195  0.00  0.00    +0.100 C 
ATOM     19  C   LIG    1       26.317 -25.549   6.153  0.00  0.00    +0.120 C 
ENDBRANCH   7  13
BRANCH  10  20
ATOM     20  C   LIG    1       26.843 -28.360  10.336  0.00  0.00    +0.087 C 
ATOM     21  C   LIG    1       26.343 -27.950  11.703  0.00  0.00    +0.027 C 
ATOM     22  C   LIG    1       27.656 -28.652  11.573  0.00  0.00    +0.027 C 
ENDBRANCH  10  20
BRANCH   1  24
ATOM     23  O   LIG    1       26.278 -33.649  10.647  0.00  0.00    -0.245 OA
ATOM     24  C   LIG    1       25.286 -32.969  10.410  0.00  0.00    +0.342 C 
BRANCH  24  25
ATOM     25  O   LIG    1       24.055 -33.323  10.837  0.00  0.00    -0.477 OA
ATOM     26  H   LIG    1       23.977 -34.274  11.095  0.00  0.00    +0.295 HD
ENDBRANCH  24  25
ENDBRANCH   1  24
TORSDOF 4
ENDMDL
MODEL 7
REMARK VINA RESULT:      -5.8      3.336      6.741
REMARK  Name = *****
REMARK                            x       y       z     vdW  Elec       q    Type
REMARK                         _______ _______ _______ _____ _____    ______ ____
ROOT
ATOM      1  C   LIG    1       30.422 -19.182   7.695  0.00  0.00    +0.122 C 
ATOM      2  C   LIG    1       29.612 -20.225   8.357  0.00  0.00    +0.203 C 
ATOM      3  O   LIG    1       29.925 -20.626   9.476  0.00  0.00    -0.286 OA
ATOM      4  C   LIG    1       28.414 -20.738   7.653  0.00  0.00    +0.049 C 
ATOM      5  C   LIG    1       28.053 -20.200   6.405  0.00  0.00    +0.055 C 
ATOM      6  C   LIG    1       26.889 -20.706   5.789  0.00  0.00    +0.052 C 
ATOM      7  C   LIG    1       26.085 -21.711   6.375  0.00  0.00    +0.067 C 
ATOM      8  C   LIG    1       26.499 -22.197   7.627  0.00  0.00    +0.145 C 
ATOM      9  F   LIG    1       25.803 -23.149   8.264  0.00  0.00    -0.203 F 
ATOM     10  N   LIG    1       28.867 -19.185   5.824  0.00  0.00    -0.343 NA
ATOM     11  C   LIG    1       27.648 -21.732   8.261  0.00  0.00    +0.054 C 
ATOM     12  C   LIG    1       29.980 -18.728   6.513  0.00  0.00    +0.105 C 
ENDROOT
BRANCH   7  13
ATOM     13  N   LIG    1       24.920 -22.111   5.714  0.00  0.00    -0.325 NA
ATOM     14  C   LIG    1       24.848 -23.513   5.249  0.00  0.00    +0.120 C 
ATOM     15  C   LIG    1       24.022 -24.393   6.220  0.00  0.00    +0.100 C 
ATOM     16  N   LIG    1       22.671 -23.863   6.496  0.00  0.00    -0.313 NA
ATOM     17  H   LIG    1       22.160 -23.814   5.614  0.00  0.00    +0.122 HD
ATOM     18  C   LIG    1       22.805 -22.489   7.025  0.00  0.00    +0.100 C 
ATOM     19  C   LIG    1       23.609 -21.547   6.100  0.00  0.00    +0.120 C 
ENDBRANCH   7  13
BRANCH  10  20
ATOM     20  C   LIG    1       28.480 -18.468   4.591  0.00  0.00    +0.087 C 
ATOM     21  C   LIG    1       27.066 -17.979   4.368  0.00  0.00    +0.027 C 
ATOM     22  C   LIG    1       28.169 -16.992   4.577  0.00  0.00    +0.027 C 
ENDBRANCH  10  20
BRANCH   1  24
ATOM     23  O   LIG    1       32.054 -17.487   8.040  0.00  0.00    -0.245 OA
ATOM     24  C   LIG    1       31.661 -18.625   8.270  0.00  0.00    +0.342 C 
BRANCH  24  25
ATOM     25  O   LIG    1       32.333 -19.466   9.084  0.00  0.00    -0.477 OA
ATOM     26  H   LIG    1       33.089 -19.930   8.647  0.00  0.00    +0.295 HD
ENDBRANCH  24  25
ENDBRANCH   1  24
TORSDOF 4
ENDMDL
MODEL 8
REMARK VINA RESULT:      -5.7      9.316     10.410
REMARK  Name = *****
REMARK                            x       y       z     vdW  Elec       q    Type
REMARK                         _______ _______ _______ _____ _____    ______ ____
ROOT
ATOM      1  C   LIG    1       20.899 -30.420  11.183  0.00  0.00    +0.122 C 
ATOM      2  C   LIG    1       22.071 -30.787  10.362  0.00  0.00    +0.203 C 
ATOM      3  O   LIG    1       21.932 -31.529   9.392  0.00  0.00    -0.286 OA
ATOM      4  C   LIG    1       23.389 -30.213  10.722  0.00  0.00    +0.049 C 
ATOM      5  C   LIG    1       23.490 -29.312  11.797  0.00  0.00    +0.055 C 
ATOM      6  C   LIG    1       24.762 -28.776  12.081  0.00  0.00    +0.052 C 
ATOM      7  C   LIG    1       25.917 -29.102  11.333  0.00  0.00    +0.067 C 
ATOM      8  C   LIG    1       25.744 -30.002  10.267  0.00  0.00    +0.145 C 
ATOM      9  F   LIG    1       26.778 -30.371   9.499  0.00  0.00    -0.203 F 
ATOM     10  N   LIG    1       22.319 -28.986  12.541  0.00  0.00    -0.343 NA
ATOM     11  C   LIG    1       24.506 -30.561   9.963  0.00  0.00    +0.054 C 
ATOM     12  C   LIG    1       21.103 -29.541  12.175  0.00  0.00    +0.105 C 
ENDROOT
BRANCH   7  13
ATOM     13  N   LIG    1       27.126 -28.478  11.657  0.00  0.00    -0.325 NA
ATOM     14  C   LIG    1       27.056 -27.194  12.386  0.00  0.00    +0.120 C 
ATOM     15  C   LIG    1       27.305 -27.387  13.903  0.00  0.00    +0.100 C 
ATOM     16  N   LIG    1       28.564 -28.095  14.212  0.00  0.00    -0.313 NA
ATOM     17  H   LIG    1       29.340 -27.547  13.839  0.00  0.00    +0.122 HD
ATOM     18  C   LIG    1       28.550 -29.400  13.516  0.00  0.00    +0.100 C 
ATOM     19  C   LIG    1       28.318 -29.286  11.993  0.00  0.00    +0.120 C 
ENDBRANCH   7  13
BRANCH  10  20
ATOM     20  C   LIG    1       22.311 -27.943  13.588  0.00  0.00    +0.087 C 
ATOM     21  C   LIG    1       22.315 -26.470  13.240  0.00  0.00    +0.027 C 
ATOM     22  C   LIG    1       21.102 -27.083  13.865  0.00  0.00    +0.027 C 
ENDBRANCH  10  20
BRANCH   1  24
ATOM     23  O   LIG    1       18.982 -31.711  11.746  0.00  0.00    -0.245 OA
ATOM     24  C   LIG    1       19.545 -30.960  10.957  0.00  0.00    +0.342 C 
BRANCH  24  25
ATOM     25  O   LIG    1       18.960 -30.554   9.810  0.00  0.00    -0.477 OA
ATOM     26  H   LIG    1       19.066 -29.589   9.624  0.00  0.00    +0.295 HD
ENDBRANCH  24  25
ENDBRANCH   1  24
TORSDOF 4
ENDMDL
MODEL 9
REMARK VINA RESULT:      -5.5      2.527      3.745
REMARK  Name = *****
REMARK                            x       y       z     vdW  Elec       q    Type
REMARK                         _______ _______ _______ _____ _____    ______ ____
ROOT
ATOM      1  C   LIG    1       24.818 -20.617   4.229  0.00  0.00    +0.122 C 
ATOM      2  C   LIG    1       25.921 -19.636   4.222  0.00  0.00    +0.203 C 
ATOM      3  O   LIG    1       25.955 -18.757   3.364  0.00  0.00    -0.286 OA
ATOM      4  C   LIG    1       26.949 -19.726   5.286  0.00  0.00    +0.049 C 
ATOM      5  C   LIG    1       26.833 -20.704   6.290  0.00  0.00    +0.055 C 
ATOM      6  C   LIG    1       27.824 -20.729   7.292  0.00  0.00    +0.052 C 
ATOM      7  C   LIG    1       28.906 -19.819   7.326  0.00  0.00    +0.067 C 
ATOM      8  C   LIG    1       28.956 -18.863   6.297  0.00  0.00    +0.145 C 
ATOM      9  F   LIG    1       29.943 -17.957   6.243  0.00  0.00    -0.203 F 
ATOM     10  N   LIG    1       25.736 -21.613   6.250  0.00  0.00    -0.343 NA
ATOM     11  C   LIG    1       28.004 -18.814   5.283  0.00  0.00    +0.054 C 
ATOM     12  C   LIG    1       24.793 -21.498   5.241  0.00  0.00    +0.105 C 
ENDROOT
BRANCH   7  13
ATOM     13  N   LIG    1       29.810 -19.889   8.390  0.00  0.00    -0.325 NA
ATOM     14  C   LIG    1       31.222 -20.187   8.066  0.00  0.00    +0.120 C 
ATOM     15  C   LIG    1       32.085 -18.901   8.047  0.00  0.00    +0.100 C 
ATOM     16  N   LIG    1       31.991 -18.106   9.288  0.00  0.00    -0.313 NA
ATOM     17  H   LIG    1       32.315 -18.684  10.065  0.00  0.00    +0.122 HD
ATOM     18  C   LIG    1       30.570 -17.775   9.526  0.00  0.00    +0.100 C 
ATOM     19  C   LIG    1       29.646 -19.013   9.570  0.00  0.00    +0.120 C 
ENDBRANCH   7  13
BRANCH  10  20
ATOM     20  C   LIG    1       25.462 -22.571   7.341  0.00  0.00    +0.087 C 
ATOM     21  C   LIG    1       24.410 -23.649   7.204  0.00  0.00    +0.027 C 
ATOM     22  C   LIG    1       25.856 -24.025   7.259  0.00  0.00    +0.027 C 
ENDBRANCH  10  20
BRANCH   1  24
ATOM     23  O   LIG    1       23.057 -19.700   2.918  0.00  0.00    -0.245 OA
ATOM     24  C   LIG    1       23.761 -20.663   3.201  0.00  0.00    +0.342 C 
BRANCH  24  25
ATOM     25  O   LIG    1       23.631 -21.854   2.578  0.00  0.00    -0.477 OA
ATOM     26  H   LIG    1       22.702 -22.189   2.540  0.00  0.00    +0.295 HD
ENDBRANCH  24  25
ENDBRANCH   1  24
TORSDOF 4
ENDMDL
