MODEL 1
REMARK VINA RESULT:      -2.4      0.000      0.000
REMARK  Name = *****
REMARK                            x       y       z     vdW  Elec       q    Type
REMARK                         _______ _______ _______ _____ _____    ______ ____
ROOT
ATOM      1  C   LIG    1       22.130 -19.692   4.421  0.00  0.00    +0.019 A 
ATOM      2  C   LIG    1       23.381 -19.079   4.232  0.00  0.00    +0.035 A 
ATOM      3  C   LIG    1       24.588 -19.593   4.756  0.00  0.00    +0.049 A 
ATOM      4  N   LIG    1       25.856 -18.966   4.536  0.00  0.00    -0.298 N 
ATOM      5  C   LIG    1       27.057 -19.293   5.244  0.00  0.00    +0.048 A 
ATOM      6  C   LIG    1       27.121 -20.398   6.123  0.00  0.00    +0.034 A 
ATOM      7  S   LIG    1       25.809 -21.572   6.335  0.00  0.00    -0.086 S 
ATOM      8  C   LIG    1       28.280 -20.675   6.879  0.00  0.00    +0.017 A 
ATOM      9  C   LIG    1       29.410 -19.878   6.771  0.00  0.00    +0.001 A 
ATOM     10  C   LIG    1       29.391 -18.807   5.895  0.00  0.00    +0.002 A 
ATOM     11  C   LIG    1       28.237 -18.523   5.147  0.00  0.00    +0.024 A 
ATOM     12  C   LIG    1       24.454 -20.755   5.540  0.00  0.00    +0.034 A 
ATOM     13  C   LIG    1       23.200 -21.374   5.738  0.00  0.00    +0.017 A 
ATOM     14  C   LIG    1       22.043 -20.857   5.175  0.00  0.00    +0.012 A 
ENDROOT
BRANCH   1  16
ATOM     15  C   LIG    1       20.966 -17.590   3.473  0.00  0.00    +0.091 C 
ATOM     16  C   LIG    1       20.911 -19.061   3.847  0.00  0.00    +0.160 C 
ATOM     17  O   LIG    1       19.897 -19.721   3.712  0.00  0.00    -0.292 OA
ENDBRANCH   1  16
BRANCH   4  18
ATOM     18  C   LIG    1       25.952 -17.937   3.450  0.00  0.00    +0.112 C 
BRANCH  18  19
ATOM     19  C   LIG    1       24.654 -17.122   3.304  0.00  0.00    +0.035 C 
BRANCH  19  20
ATOM     20  C   LIG    1       24.641 -15.781   4.080  0.00  0.00    +0.086 C 
BRANCH  20  21
ATOM     21  N   LIG    1       25.288 -14.625   3.440  0.00  0.00    -0.300 NA
ATOM     22  C   LIG    1       25.518 -13.464   4.318  0.00  0.00    +0.100 C 
ATOM     23  C   LIG    1       26.734 -13.534   5.261  0.00  0.00    +0.100 C 
ATOM     24  N   LIG    1       28.016 -13.839   4.604  0.00  0.00    -0.298 NA
ATOM     25  C   LIG    1       27.826 -15.015   3.729  0.00  0.00    +0.100 C 
ATOM     26  C   LIG    1       26.577 -14.986   2.799  0.00  0.00    +0.100 C 
BRANCH  24  27
ATOM     27  C   LIG    1       28.614 -12.694   3.893  0.00  0.00    +0.112 C 
BRANCH  27  28
ATOM     28  C   LIG    1       29.131 -11.578   4.823  0.00  0.00    +0.171 C 
BRANCH  28  29
ATOM     29  O   LIG    1       29.127 -12.007   6.182  0.00  0.00    -0.394 OA
ATOM     30  H   LIG    1       30.056 -12.094   6.456  0.00  0.00    +0.209 HD
ENDBRANCH  28  29
ENDBRANCH  27  28
ENDBRANCH  24  27
ENDBRANCH  20  21
ENDBRANCH  19  20
ENDBRANCH  18  19
ENDBRANCH   4  18
TORSDOF 8
ENDMDL
MODEL 2
REMARK VINA RESULT:      -1.7      2.156      4.824
REMARK  Name = *****
REMARK                            x       y       z     vdW  Elec       q    Type
REMARK                         _______ _______ _______ _____ _____    ______ ____
ROOT
ATOM      1  C   LIG    1       27.183 -20.224   5.953  0.00  0.00    +0.019 A 
ATOM      2  C   LIG    1       26.283 -19.421   5.229  0.00  0.00    +0.035 A 
ATOM      3  C   LIG    1       24.886 -19.636   5.212  0.00  0.00    +0.049 A 
ATOM      4  N   LIG    1       23.983 -18.796   4.485  0.00  0.00    -0.298 N 
ATOM      5  C   LIG    1       22.610 -19.112   4.229  0.00  0.00    +0.048 A 
ATOM      6  C   LIG    1       21.983 -20.229   4.825  0.00  0.00    +0.034 A 
ATOM      7  S   LIG    1       22.750 -21.260   6.048  0.00  0.00    -0.086 S 
ATOM      8  C   LIG    1       20.654 -20.585   4.512  0.00  0.00    +0.017 A 
ATOM      9  C   LIG    1       19.906 -19.835   3.618  0.00  0.00    +0.001 A 
ATOM     10  C   LIG    1       20.480 -18.716   3.041  0.00  0.00    +0.002 A 
ATOM     11  C   LIG    1       21.804 -18.363   3.343  0.00  0.00    +0.024 A 
ATOM     12  C   LIG    1       24.444 -20.757   5.940  0.00  0.00    +0.034 A 
ATOM     13  C   LIG    1       25.342 -21.570   6.666  0.00  0.00    +0.017 A 
ATOM     14  C   LIG    1       26.704 -21.303   6.685  0.00  0.00    +0.012 A 
ENDROOT
BRANCH   1  16
ATOM     15  C   LIG    1       29.085 -18.610   5.284  0.00  0.00    +0.091 C 
ATOM     16  C   LIG    1       28.640 -19.929   5.888  0.00  0.00    +0.160 C 
ATOM     17  O   LIG    1       29.439 -20.753   6.295  0.00  0.00    -0.292 OA
ENDBRANCH   1  16
BRANCH   4  18
ATOM     18  C   LIG    1       24.487 -17.467   4.010  0.00  0.00    +0.112 C 
BRANCH  18  19
ATOM     19  C   LIG    1       23.365 -16.416   3.921  0.00  0.00    +0.035 C 
BRANCH  19  20
ATOM     20  C   LIG    1       23.658 -15.091   4.669  0.00  0.00    +0.086 C 
BRANCH  20  21
ATOM     21  N   LIG    1       24.386 -14.047   3.931  0.00  0.00    -0.300 NA
ATOM     22  C   LIG    1       25.165 -13.113   4.764  0.00  0.00    +0.100 C 
ATOM     23  C   LIG    1       26.533 -13.608   5.272  0.00  0.00    +0.100 C 
ATOM     24  N   LIG    1       27.439 -14.118   4.230  0.00  0.00    -0.298 NA
ATOM     25  C   LIG    1       26.693 -15.076   3.387  0.00  0.00    +0.100 C 
ATOM     26  C   LIG    1       25.289 -14.614   2.898  0.00  0.00    +0.100 C 
BRANCH  24  27
ATOM     27  C   LIG    1       28.099 -13.062   3.439  0.00  0.00    +0.112 C 
BRANCH  27  28
ATOM     28  C   LIG    1       29.287 -12.391   4.157  0.00  0.00    +0.171 C 
BRANCH  28  29
ATOM     29  O   LIG    1       28.892 -11.885   5.430  0.00  0.00    -0.394 OA
ATOM     30  H   LIG    1       29.696 -11.820   5.972  0.00  0.00    +0.209 HD
ENDBRANCH  28  29
ENDBRANCH  27  28
ENDBRANCH  24  27
ENDBRANCH  20  21
ENDBRANCH  19  20
ENDBRANCH  18  19
ENDBRANCH   4  18
TORSDOF 8
ENDMDL
