MODEL 1
REMARK VINA RESULT:      -4.3      0.000      0.000
REMARK  Name = *****
REMARK                            x       y       z     vdW  Elec       q    Type
REMARK                         _______ _______ _______ _____ _____    ______ ____
ROOT
ATOM      1  C   LIG    1       24.883 -14.958   3.978  0.00  0.00    +0.144 C 
ENDROOT
BRANCH   1   2
ATOM      2  C   LIG    1       26.131 -15.158   3.059  0.00  0.00    +0.072 C 
ATOM      3  N   LIG    1       26.426 -14.037   2.136  0.00  0.00    -0.312 NA
ATOM      4  H   LIG    1       27.123 -14.360   1.462  0.00  0.00    +0.122 HD
ATOM      5  C   LIG    1       26.938 -12.835   2.793  0.00  0.00    +0.081 C 
ATOM      6  C   LIG    1       28.142 -13.078   3.699  0.00  0.00    +0.015 C 
ATOM      7  C   LIG    1       27.980 -14.295   4.602  0.00  0.00    +0.003 C 
ATOM      8  C   LIG    1       27.424 -15.491   3.834  0.00  0.00    +0.020 C 
ENDBRANCH   1   2
BRANCH   1   9
ATOM      9  C   LIG    1       24.008 -16.211   4.048  0.00  0.00    -0.032 A 
ATOM     10  C   LIG    1       22.716 -16.122   4.591  0.00  0.00    +0.004 A 
ATOM     11  C   LIG    1       21.928 -17.262   4.754  0.00  0.00    +0.000 A 
ATOM     12  C   LIG    1       22.413 -18.508   4.367  0.00  0.00    +0.000 A 
ATOM     13  C   LIG    1       23.687 -18.613   3.811  0.00  0.00    +0.000 A 
ATOM     14  C   LIG    1       24.481 -17.473   3.652  0.00  0.00    +0.004 A 
ENDBRANCH   1   9
BRANCH   1  15
ATOM     15  C   LIG    1       24.067 -13.737   3.538  0.00  0.00    +0.316 C 
ATOM     16  O   LIG    1       23.614 -13.547   2.423  0.00  0.00    -0.250 OA
BRANCH  15  18
ATOM     17  C   LIG    1       23.737 -11.504   4.262  0.00  0.00    +0.280 C 
ATOM     18  O   LIG    1       23.933 -12.879   4.599  0.00  0.00    -0.468 OA
ENDBRANCH  15  18
ENDBRANCH   1  15
TORSDOF 4
ENDMDL
MODEL 2
REMARK VINA RESULT:      -3.2      4.083      6.669
REMARK  Name = *****
REMARK                            x       y       z     vdW  Elec       q    Type
REMARK                         _______ _______ _______ _____ _____    ______ ____
ROOT
ATOM      1  C   LIG    1       24.926 -19.994   4.428  0.00  0.00    +0.144 C 
ENDROOT
BRANCH   1   2
ATOM      2  C   LIG    1       23.762 -19.429   5.305  0.00  0.00    +0.072 C 
ATOM      3  N   LIG    1       22.600 -18.899   4.553  0.00  0.00    -0.312 NA
ATOM      4  H   LIG    1       22.008 -18.386   5.209  0.00  0.00    +0.122 HD
ATOM      5  C   LIG    1       21.787 -19.924   3.899  0.00  0.00    +0.081 C 
ATOM      6  C   LIG    1       21.324 -21.044   4.827  0.00  0.00    +0.015 C 
ATOM      7  C   LIG    1       22.429 -21.571   5.734  0.00  0.00    +0.003 C 
ATOM      8  C   LIG    1       23.233 -20.431   6.354  0.00  0.00    +0.020 C 
ENDBRANCH   1   2
BRANCH   1   9
ATOM      9  C   LIG    1       26.175 -20.302   5.255  0.00  0.00    -0.032 A 
ATOM     10  C   LIG    1       26.128 -21.314   6.228  0.00  0.00    +0.004 A 
ATOM     11  C   LIG    1       27.220 -21.557   7.062  0.00  0.00    +0.000 A 
ATOM     12  C   LIG    1       28.382 -20.801   6.930  0.00  0.00    +0.000 A 
ATOM     13  C   LIG    1       28.453 -19.804   5.959  0.00  0.00    +0.000 A 
ATOM     14  C   LIG    1       27.357 -19.553   5.127  0.00  0.00    +0.004 A 
ENDBRANCH   1   9
BRANCH   1  15
ATOM     15  C   LIG    1       25.248 -19.048   3.267  0.00  0.00    +0.316 C 
ATOM     16  O   LIG    1       25.670 -19.380   2.173  0.00  0.00    -0.250 OA
BRANCH  15  18
ATOM     17  C   LIG    1       26.004 -16.801   3.314  0.00  0.00    +0.280 C 
ATOM     18  O   LIG    1       24.998 -17.757   3.655  0.00  0.00    -0.468 OA
ENDBRANCH  15  18
ENDBRANCH   1  15
TORSDOF 4
ENDMDL
MODEL 3
REMARK VINA RESULT:      -2.8      3.499      5.192
REMARK  Name = *****
REMARK                            x       y       z     vdW  Elec       q    Type
REMARK                         _______ _______ _______ _____ _____    ______ ____
ROOT
ATOM      1  C   LIG    1       25.021 -19.130   4.441  0.00  0.00    +0.144 C 
ENDROOT
BRANCH   1   2
ATOM      2  C   LIG    1       25.870 -20.439   4.527  0.00  0.00    +0.072 C 
ATOM      3  N   LIG    1       27.339 -20.243   4.558  0.00  0.00    -0.312 NA
ATOM      4  H   LIG    1       27.780 -21.153   4.413  0.00  0.00    +0.122 HD
ATOM      5  C   LIG    1       27.844 -19.676   5.808  0.00  0.00    +0.081 C 
ATOM      6  C   LIG    1       27.405 -20.427   7.062  0.00  0.00    +0.015 C 
ATOM      7  C   LIG    1       25.924 -20.785   7.062  0.00  0.00    +0.003 C 
ATOM      8  C   LIG    1       25.486 -21.350   5.713  0.00  0.00    +0.020 C 
ENDBRANCH   1   2
BRANCH   1   9
ATOM      9  C   LIG    1       23.525 -19.418   4.300  0.00  0.00    -0.032 A 
ATOM     10  C   LIG    1       22.648 -18.370   3.977  0.00  0.00    +0.004 A 
ATOM     11  C   LIG    1       21.268 -18.580   3.932  0.00  0.00    +0.000 A 
ATOM     12  C   LIG    1       20.745 -19.842   4.197  0.00  0.00    +0.000 A 
ATOM     13  C   LIG    1       21.602 -20.897   4.504  0.00  0.00    +0.000 A 
ATOM     14  C   LIG    1       22.984 -20.688   4.556  0.00  0.00    +0.004 A 
ENDBRANCH   1   9
BRANCH   1  15
ATOM     15  C   LIG    1       25.520 -18.225   3.309  0.00  0.00    +0.316 C 
ATOM     16  O   LIG    1       25.956 -18.603   2.235  0.00  0.00    -0.250 OA
BRANCH  15  18
ATOM     17  C   LIG    1       26.486 -16.061   3.305  0.00  0.00    +0.280 C 
ATOM     18  O   LIG    1       25.409 -16.915   3.697  0.00  0.00    -0.468 OA
ENDBRANCH  15  18
ENDBRANCH   1  15
TORSDOF 4
ENDMDL
MODEL 4
REMARK VINA RESULT:      -2.6      3.080      6.068
REMARK  Name = *****
REMARK                            x       y       z     vdW  Elec       q    Type
REMARK                         _______ _______ _______ _____ _____    ______ ____
ROOT
ATOM      1  C   LIG    1       24.732 -17.980   4.079  0.00  0.00    +0.144 C 
ENDROOT
BRANCH   1   2
ATOM      2  C   LIG    1       23.396 -18.632   3.595  0.00  0.00    +0.072 C 
ATOM      3  N   LIG    1       23.524 -19.996   3.029  0.00  0.00    -0.312 NA
ATOM      4  H   LIG    1       22.641 -20.231   2.573  0.00  0.00    +0.122 HD
ATOM      5  C   LIG    1       23.827 -21.032   4.016  0.00  0.00    +0.081 C 
ATOM      6  C   LIG    1       22.872 -21.063   5.206  0.00  0.00    +0.015 C 
ATOM      7  C   LIG    1       22.580 -19.682   5.781  0.00  0.00    +0.003 C 
ATOM      8  C   LIG    1       22.295 -18.667   4.677  0.00  0.00    +0.020 C 
ENDBRANCH   1   2
BRANCH   1   9
ATOM      9  C   LIG    1       24.763 -16.471   3.829  0.00  0.00    -0.032 A 
ATOM     10  C   LIG    1       25.915 -15.887   3.278  0.00  0.00    +0.004 A 
ATOM     11  C   LIG    1       26.011 -14.503   3.123  0.00  0.00    +0.000 A 
ATOM     12  C   LIG    1       24.953 -13.682   3.505  0.00  0.00    +0.000 A 
ATOM     13  C   LIG    1       23.796 -14.246   4.038  0.00  0.00    +0.000 A 
ATOM     14  C   LIG    1       23.700 -15.632   4.201  0.00  0.00    +0.004 A 
ENDBRANCH   1   9
BRANCH   1  15
ATOM     15  C   LIG    1       25.942 -18.672   3.444  0.00  0.00    +0.316 C 
ATOM     16  O   LIG    1       26.041 -19.006   2.276  0.00  0.00    -0.250 OA
BRANCH  15  18
ATOM     17  C   LIG    1       26.686 -19.978   5.277  0.00  0.00    +0.280 C 
ATOM     18  O   LIG    1       26.903 -18.870   4.402  0.00  0.00    -0.468 OA
ENDBRANCH  15  18
ENDBRANCH   1  15
TORSDOF 4
ENDMDL
MODEL 5
REMARK VINA RESULT:      -2.2      2.040      3.338
REMARK  Name = *****
REMARK                            x       y       z     vdW  Elec       q    Type
REMARK                         _______ _______ _______ _____ _____    ______ ____
ROOT
ATOM      1  C   LIG    1       25.718 -15.442   3.433  0.00  0.00    +0.144 C 
ENDROOT
BRANCH   1   2
ATOM      2  C   LIG    1       24.903 -14.532   4.407  0.00  0.00    +0.072 C 
ATOM      3  N   LIG    1       25.515 -13.217   4.710  0.00  0.00    -0.312 NA
ATOM      4  H   LIG    1       25.005 -12.806   5.494  0.00  0.00    +0.122 HD
ATOM      5  C   LIG    1       25.492 -12.270   3.595  0.00  0.00    +0.081 C 
ATOM      6  C   LIG    1       24.112 -12.059   2.979  0.00  0.00    +0.015 C 
ATOM      7  C   LIG    1       23.350 -13.357   2.745  0.00  0.00    +0.003 C 
ATOM      8  C   LIG    1       23.447 -14.286   3.954  0.00  0.00    +0.020 C 
ENDBRANCH   1   2
BRANCH   1   9
ATOM      9  C   LIG    1       25.275 -16.905   3.501  0.00  0.00    -0.032 A 
ATOM     10  C   LIG    1       23.947 -17.208   3.841  0.00  0.00    +0.004 A 
ATOM     11  C   LIG    1       23.533 -18.532   4.002  0.00  0.00    +0.000 A 
ATOM     12  C   LIG    1       24.438 -19.573   3.814  0.00  0.00    +0.000 A 
ATOM     13  C   LIG    1       25.756 -19.291   3.460  0.00  0.00    +0.000 A 
ATOM     14  C   LIG    1       26.174 -17.966   3.305  0.00  0.00    +0.004 A 
ENDBRANCH   1   9
BRANCH   1  15
ATOM     15  C   LIG    1       27.224 -15.307   3.686  0.00  0.00    +0.316 C 
ATOM     16  O   LIG    1       27.887 -16.008   4.430  0.00  0.00    -0.250 OA
BRANCH  15  18
ATOM     17  C   LIG    1       28.687 -13.443   3.604  0.00  0.00    +0.280 C 
ATOM     18  O   LIG    1       27.712 -14.258   2.949  0.00  0.00    -0.468 OA
ENDBRANCH  15  18
ENDBRANCH   1  15
TORSDOF 4
ENDMDL
MODEL 6
REMARK VINA RESULT:      -1.9      4.896      7.165
REMARK  Name = *****
REMARK                            x       y       z     vdW  Elec       q    Type
REMARK                         _______ _______ _______ _____ _____    ______ ____
ROOT
ATOM      1  C   LIG    1       25.019 -20.440   4.948  0.00  0.00    +0.144 C 
ENDROOT
BRANCH   1   2
ATOM      2  C   LIG    1       23.888 -20.115   5.977  0.00  0.00    +0.072 C 
ATOM      3  N   LIG    1       23.111 -18.885   5.699  0.00  0.00    -0.312 NA
ATOM      4  H   LIG    1       22.550 -18.673   6.527  0.00  0.00    +0.122 HD
ATOM      5  C   LIG    1       22.216 -18.985   4.546  0.00  0.00    +0.081 C 
ATOM      6  C   LIG    1       21.272 -20.184   4.586  0.00  0.00    +0.015 C 
ATOM      7  C   LIG    1       21.963 -21.481   4.988  0.00  0.00    +0.003 C 
ATOM      8  C   LIG    1       22.888 -21.274   6.185  0.00  0.00    +0.020 C 
ENDBRANCH   1   2
BRANCH   1   9
ATOM      9  C   LIG    1       26.413 -20.332   5.568  0.00  0.00    -0.032 A 
ATOM     10  C   LIG    1       27.317 -19.379   5.071  0.00  0.00    +0.004 A 
ATOM     11  C   LIG    1       28.627 -19.316   5.551  0.00  0.00    +0.000 A 
ATOM     12  C   LIG    1       29.050 -20.196   6.543  0.00  0.00    +0.000 A 
ATOM     13  C   LIG    1       28.162 -21.138   7.059  0.00  0.00    +0.000 A 
ATOM     14  C   LIG    1       26.851 -21.207   6.576  0.00  0.00    +0.004 A 
ENDBRANCH   1   9
BRANCH   1  15
ATOM     15  C   LIG    1       24.897 -19.557   3.702  0.00  0.00    +0.316 C 
ATOM     16  O   LIG    1       25.458 -18.489   3.527  0.00  0.00    -0.250 OA
BRANCH  15  18
ATOM     17  C   LIG    1       24.191 -21.565   2.659  0.00  0.00    +0.280 C 
ATOM     18  O   LIG    1       24.043 -20.152   2.809  0.00  0.00    -0.468 OA
ENDBRANCH  15  18
ENDBRANCH   1  15
TORSDOF 4
ENDMDL
MODEL 7
REMARK VINA RESULT:      -1.8      2.499      5.363
REMARK  Name = *****
REMARK                            x       y       z     vdW  Elec       q    Type
REMARK                         _______ _______ _______ _____ _____    ______ ____
ROOT
ATOM      1  C   LIG    1       26.044 -15.179   4.116  0.00  0.00    +0.144 C 
ENDROOT
BRANCH   1   2
ATOM      2  C   LIG    1       24.888 -14.781   3.142  0.00  0.00    +0.072 C 
ATOM      3  N   LIG    1       23.611 -14.404   3.792  0.00  0.00    -0.312 NA
ATOM      4  H   LIG    1       22.891 -14.362   3.068  0.00  0.00    +0.122 HD
ATOM      5  C   LIG    1       23.645 -13.119   4.489  0.00  0.00    +0.081 C 
ATOM      6  C   LIG    1       24.143 -11.955   3.636  0.00  0.00    +0.015 C 
ATOM      7  C   LIG    1       25.391 -12.291   2.828  0.00  0.00    +0.003 C 
ATOM      8  C   LIG    1       25.270 -13.656   2.155  0.00  0.00    +0.020 C 
ENDBRANCH   1   2
BRANCH   1   9
ATOM      9  C   LIG    1       27.086 -14.069   4.262  0.00  0.00    -0.032 A 
ATOM     10  C   LIG    1       28.009 -13.849   3.227  0.00  0.00    +0.004 A 
ATOM     11  C   LIG    1       29.030 -12.907   3.366  0.00  0.00    +0.000 A 
ATOM     12  C   LIG    1       29.137 -12.162   4.537  0.00  0.00    +0.000 A 
ATOM     13  C   LIG    1       28.220 -12.355   5.568  0.00  0.00    +0.000 A 
ATOM     14  C   LIG    1       27.200 -13.302   5.434  0.00  0.00    +0.004 A 
ENDBRANCH   1   9
BRANCH   1  15
ATOM     15  C   LIG    1       26.696 -16.497   3.684  0.00  0.00    +0.316 C 
ATOM     16  O   LIG    1       27.819 -16.867   3.979  0.00  0.00    -0.250 OA
BRANCH  15  18
ATOM     17  C   LIG    1       25.384 -18.455   3.425  0.00  0.00    +0.280 C 
ATOM     18  O   LIG    1       25.817 -17.199   2.899  0.00  0.00    -0.468 OA
ENDBRANCH  15  18
ENDBRANCH   1  15
TORSDOF 4
ENDMDL
MODEL 8
REMARK VINA RESULT:      -1.8      2.134      3.433
REMARK  Name = *****
REMARK                            x       y       z     vdW  Elec       q    Type
REMARK                         _______ _______ _______ _____ _____    ______ ____
ROOT
ATOM      1  C   LIG    1       25.665 -15.715   3.407  0.00  0.00    +0.144 C 
ENDROOT
BRANCH   1   2
ATOM      2  C   LIG    1       25.156 -14.426   4.128  0.00  0.00    +0.072 C 
ATOM      3  N   LIG    1       26.100 -13.283   4.127  0.00  0.00    -0.312 NA
ATOM      4  H   LIG    1       25.749 -12.585   4.786  0.00  0.00    +0.122 HD
ATOM      5  C   LIG    1       26.273 -12.645   2.823  0.00  0.00    +0.081 C 
ATOM      6  C   LIG    1       24.968 -12.227   2.150  0.00  0.00    +0.015 C 
ATOM      7  C   LIG    1       23.888 -13.300   2.212  0.00  0.00    +0.003 C 
ATOM      8  C   LIG    1       23.795 -13.919   3.604  0.00  0.00    +0.020 C 
ENDBRANCH   1   2
BRANCH   1   9
ATOM      9  C   LIG    1       24.730 -16.906   3.623  0.00  0.00    -0.032 A 
ATOM     10  C   LIG    1       23.464 -16.694   4.192  0.00  0.00    +0.004 A 
ATOM     11  C   LIG    1       22.623 -17.769   4.487  0.00  0.00    +0.000 A 
ATOM     12  C   LIG    1       23.029 -19.071   4.209  0.00  0.00    +0.000 A 
ATOM     13  C   LIG    1       24.276 -19.299   3.630  0.00  0.00    +0.000 A 
ATOM     14  C   LIG    1       25.123 -18.225   3.339  0.00  0.00    +0.004 A 
ENDBRANCH   1   9
BRANCH   1  15
ATOM     15  C   LIG    1       27.099 -16.052   3.832  0.00  0.00    +0.316 C 
ATOM     16  O   LIG    1       27.986 -15.246   4.049  0.00  0.00    -0.250 OA
BRANCH  15  18
ATOM     17  C   LIG    1       28.321 -17.877   4.724  0.00  0.00    +0.280 C 
ATOM     18  O   LIG    1       27.234 -17.414   3.920  0.00  0.00    -0.468 OA
ENDBRANCH  15  18
ENDBRANCH   1  15
TORSDOF 4
ENDMDL
MODEL 9
REMARK VINA RESULT:      -1.7      2.211      4.218
REMARK  Name = *****
REMARK                            x       y       z     vdW  Elec       q    Type
REMARK                         _______ _______ _______ _____ _____    ______ ____
ROOT
ATOM      1  C   LIG    1       26.194 -14.897   3.336  0.00  0.00    +0.144 C 
ENDROOT
BRANCH   1   2
ATOM      2  C   LIG    1       27.280 -14.840   4.458  0.00  0.00    +0.072 C 
ATOM      3  N   LIG    1       28.677 -14.693   3.984  0.00  0.00    -0.312 NA
ATOM      4  H   LIG    1       29.298 -14.867   4.776  0.00  0.00    +0.122 HD
ATOM      5  C   LIG    1       28.990 -13.375   3.431  0.00  0.00    +0.081 C 
ATOM      6  C   LIG    1       28.640 -12.209   4.351  0.00  0.00    +0.015 C 
ATOM      7  C   LIG    1       27.261 -12.336   4.988  0.00  0.00    +0.003 C 
ATOM      8  C   LIG    1       27.020 -13.747   5.518  0.00  0.00    +0.020 C 
ENDBRANCH   1   2
BRANCH   1   9
ATOM      9  C   LIG    1       25.310 -13.648   3.323  0.00  0.00    -0.032 A 
ATOM     10  C   LIG    1       24.510 -13.358   4.440  0.00  0.00    +0.004 A 
ATOM     11  C   LIG    1       23.624 -12.279   4.425  0.00  0.00    +0.000 A 
ATOM     12  C   LIG    1       23.532 -11.467   3.298  0.00  0.00    +0.000 A 
ATOM     13  C   LIG    1       24.330 -11.731   2.186  0.00  0.00    +0.000 A 
ATOM     14  C   LIG    1       25.213 -12.814   2.196  0.00  0.00    +0.004 A 
ENDBRANCH   1   9
BRANCH   1  15
ATOM     15  C   LIG    1       25.351 -16.171   3.452  0.00  0.00    +0.316 C 
ATOM     16  O   LIG    1       24.204 -16.232   3.859  0.00  0.00    -0.250 OA
BRANCH  15  18
ATOM     17  C   LIG    1       25.680 -18.517   3.532  0.00  0.00    +0.280 C 
ATOM     18  O   LIG    1       26.096 -17.244   3.034  0.00  0.00    -0.468 OA
ENDBRANCH  15  18
ENDBRANCH   1  15
TORSDOF 4
ENDMDL
