MODEL 1
REMARK VINA RESULT:      -7.4      0.000      0.000
REMARK  Name = *****
REMARK                            x       y       z     vdW  Elec       q    Type
REMARK                         _______ _______ _______ _____ _____    ______ ____
ROOT
ATOM      1  S   LIG    1       26.689 -21.883   7.447  0.00  0.00    +0.062 S 
ATOM      2  O   LIG    1       27.486 -23.065   7.167  0.00  0.00    -0.153 OA
ATOM      3  O   LIG    1       26.305 -21.608   8.809  0.00  0.00    -0.153 OA
ENDROOT
BRANCH   1   4
ATOM      4  C   LIG    1       27.650 -20.494   6.806  0.00  0.00    +0.116 A 
ATOM      5  C   LIG    1       29.017 -20.248   7.148  0.00  0.00    +0.047 A 
ATOM      6  C   LIG    1       29.727 -19.321   6.331  0.00  0.00    +0.005 A 
ATOM      7  C   LIG    1       31.085 -19.087   6.582  0.00  0.00    +0.119 A 
ATOM      8  N   LIG    1       31.795 -19.658   7.575  0.00  0.00    -0.260 NA
ATOM      9  C   LIG    1       31.109 -20.496   8.375  0.00  0.00    +0.149 A 
ATOM     10  C   LIG    1       29.094 -18.640   5.282  0.00  0.00    +0.010 A 
ATOM     11  C   LIG    1       27.751 -18.854   5.004  0.00  0.00    +0.003 A 
ATOM     12  C   LIG    1       29.762 -20.801   8.216  0.00  0.00    +0.151 A 
ATOM     13  F   LIG    1       29.189 -21.553   9.161  0.00  0.00    -0.203 F 
ATOM     14  C   LIG    1       27.038 -19.784   5.750  0.00  0.00    +0.029 A 
ENDBRANCH   1   4
BRANCH   1  17
ATOM     15  C   LIG    1       23.504 -20.418   5.668  0.00  0.00    +0.027 C 
ATOM     16  C   LIG    1       24.089 -21.188   6.855  0.00  0.00    +0.090 C 
ATOM     17  N   LIG    1       25.317 -21.927   6.431  0.00  0.00    -0.172 NA
ATOM     18  C   LIG    1       25.125 -23.138   5.593  0.00  0.00    +0.111 C 
ATOM     19  C   LIG    1       24.552 -24.300   6.402  0.00  0.00    +0.032 C 
ATOM     20  C   LIG    1       23.026 -24.327   6.479  0.00  0.00    +0.082 C 
ATOM     21  N   LIG    1       22.334 -23.063   6.690  0.00  0.00    -0.314 NA
ATOM     22  H   LIG    1       22.098 -22.638   5.796  0.00  0.00    +0.122 HD
ATOM     23  C   LIG    1       23.040 -22.103   7.549  0.00  0.00    +0.101 C 
ENDBRANCH   1  17
TORSDOF 2
ENDMDL
MODEL 2
REMARK VINA RESULT:      -6.9      1.877      6.370
REMARK  Name = *****
REMARK                            x       y       z     vdW  Elec       q    Type
REMARK                         _______ _______ _______ _____ _____    ______ ____
ROOT
ATOM      1  S   LIG    1       27.851 -20.492   8.175  0.00  0.00    +0.062 S 
ATOM      2  O   LIG    1       27.008 -19.816   9.146  0.00  0.00    -0.153 OA
ATOM      3  O   LIG    1       28.305 -21.831   8.458  0.00  0.00    -0.153 OA
ENDROOT
BRANCH   1   4
ATOM      4  C   LIG    1       26.904 -20.495   6.636  0.00  0.00    +0.116 A 
ATOM      5  C   LIG    1       25.567 -20.991   6.527  0.00  0.00    +0.047 A 
ATOM      6  C   LIG    1       24.845 -20.639   5.350  0.00  0.00    +0.005 A 
ATOM      7  C   LIG    1       23.512 -21.046   5.217  0.00  0.00    +0.119 A 
ATOM      8  N   LIG    1       22.838 -21.787   6.119  0.00  0.00    -0.260 NA
ATOM      9  C   LIG    1       23.538 -22.160   7.207  0.00  0.00    +0.149 A 
ATOM     10  C   LIG    1       25.442 -19.893   4.324  0.00  0.00    +0.010 A 
ATOM     11  C   LIG    1       26.760 -19.470   4.429  0.00  0.00    +0.003 A 
ATOM     12  C   LIG    1       24.863 -21.810   7.440  0.00  0.00    +0.151 A 
ATOM     13  F   LIG    1       25.461 -22.357   8.504  0.00  0.00    -0.203 F 
ATOM     14  C   LIG    1       27.481 -19.756   5.581  0.00  0.00    +0.029 A 
ENDBRANCH   1   4
BRANCH   1  17
ATOM     15  C   LIG    1       31.067 -19.326   6.237  0.00  0.00    +0.027 C 
ATOM     16  C   LIG    1       30.472 -20.088   7.425  0.00  0.00    +0.090 C 
ATOM     17  N   LIG    1       29.174 -19.468   7.832  0.00  0.00    -0.172 NA
ATOM     18  C   LIG    1       29.238 -18.169   8.550  0.00  0.00    +0.111 C 
ATOM     19  C   LIG    1       29.750 -18.338   9.979  0.00  0.00    +0.032 C 
ATOM     20  C   LIG    1       31.271 -18.288  10.116  0.00  0.00    +0.082 C 
ATOM     21  N   LIG    1       32.067 -18.987   9.117  0.00  0.00    -0.314 NA
ATOM     22  H   LIG    1       32.300 -18.359   8.351  0.00  0.00    +0.122 HD
ATOM     23  C   LIG    1       31.473 -20.229   8.607  0.00  0.00    +0.101 C 
ENDBRANCH   1  17
TORSDOF 2
ENDMDL
MODEL 3
REMARK VINA RESULT:      -6.8      2.628      6.499
REMARK  Name = *****
REMARK                            x       y       z     vdW  Elec       q    Type
REMARK                         _______ _______ _______ _____ _____    ______ ____
ROOT
ATOM      1  S   LIG    1       28.390 -19.949   6.501  0.00  0.00    +0.062 S 
ATOM      2  O   LIG    1       28.889 -21.201   5.959  0.00  0.00    -0.153 OA
ATOM      3  O   LIG    1       28.473 -18.757   5.693  0.00  0.00    -0.153 OA
ENDROOT
BRANCH   1   4
ATOM      4  C   LIG    1       26.662 -20.263   6.925  0.00  0.00    +0.116 A 
ATOM      5  C   LIG    1       25.623 -20.425   5.955  0.00  0.00    +0.047 A 
ATOM      6  C   LIG    1       24.394 -20.979   6.416  0.00  0.00    +0.005 A 
ATOM      7  C   LIG    1       23.362 -21.216   5.499  0.00  0.00    +0.119 A 
ATOM      8  N   LIG    1       23.421 -20.933   4.183  0.00  0.00    -0.260 NA
ATOM      9  C   LIG    1       24.566 -20.365   3.758  0.00  0.00    +0.149 A 
ATOM     10  C   LIG    1       24.198 -21.291   7.769  0.00  0.00    +0.010 A 
ATOM     11  C   LIG    1       25.202 -21.074   8.701  0.00  0.00    +0.003 A 
ATOM     12  C   LIG    1       25.652 -20.088   4.581  0.00  0.00    +0.151 A 
ATOM     13  F   LIG    1       26.670 -19.410   4.042  0.00  0.00    -0.203 F 
ATOM     14  C   LIG    1       26.429 -20.577   8.281  0.00  0.00    +0.029 A 
ENDBRANCH   1   4
BRANCH   1  17
ATOM     15  C   LIG    1       29.891 -17.824   9.449  0.00  0.00    +0.027 C 
ATOM     16  C   LIG    1       30.137 -18.598   8.150  0.00  0.00    +0.090 C 
ATOM     17  N   LIG    1       29.139 -19.703   8.016  0.00  0.00    -0.172 NA
ATOM     18  C   LIG    1       29.317 -20.889   8.892  0.00  0.00    +0.111 C 
ATOM     19  C   LIG    1       30.507 -21.740   8.453  0.00  0.00    +0.032 C 
ATOM     20  C   LIG    1       31.846 -21.315   9.054  0.00  0.00    +0.082 C 
ATOM     21  N   LIG    1       32.136 -19.890   9.127  0.00  0.00    -0.314 NA
ATOM     22  H   LIG    1       31.825 -19.513  10.020  0.00  0.00    +0.122 HD
ATOM     23  C   LIG    1       31.606 -19.089   8.015  0.00  0.00    +0.101 C 
ENDBRANCH   1  17
TORSDOF 2
ENDMDL
MODEL 4
REMARK VINA RESULT:      -6.6      1.706      2.664
REMARK  Name = *****
REMARK                            x       y       z     vdW  Elec       q    Type
REMARK                         _______ _______ _______ _____ _____    ______ ____
ROOT
ATOM      1  S   LIG    1       26.125 -21.509   8.129  0.00  0.00    +0.062 S 
ATOM      2  O   LIG    1       26.089 -22.502   9.189  0.00  0.00    -0.153 OA
ATOM      3  O   LIG    1       25.471 -20.242   8.338  0.00  0.00    -0.153 OA
ENDROOT
BRANCH   1   4
ATOM      4  C   LIG    1       27.878 -21.229   7.793  0.00  0.00    +0.116 A 
ATOM      5  C   LIG    1       28.363 -20.250   6.870  0.00  0.00    +0.047 A 
ATOM      6  C   LIG    1       29.748 -19.925   6.946  0.00  0.00    +0.005 A 
ATOM      7  C   LIG    1       30.266 -18.930   6.107  0.00  0.00    +0.119 A 
ATOM      8  N   LIG    1       29.554 -18.251   5.187  0.00  0.00    -0.260 NA
ATOM      9  C   LIG    1       28.257 -18.594   5.083  0.00  0.00    +0.149 A 
ATOM     10  C   LIG    1       30.602 -20.580   7.845  0.00  0.00    +0.010 A 
ATOM     11  C   LIG    1       30.118 -21.567   8.693  0.00  0.00    +0.003 A 
ATOM     12  C   LIG    1       27.641 -19.565   5.865  0.00  0.00    +0.151 A 
ATOM     13  F   LIG    1       26.378 -19.882   5.562  0.00  0.00    -0.203 F 
ATOM     14  C   LIG    1       28.765 -21.878   8.678  0.00  0.00    +0.029 A 
ENDBRANCH   1   4
BRANCH   1  17
ATOM     15  C   LIG    1       24.009 -21.763   4.825  0.00  0.00    +0.027 C 
ATOM     16  C   LIG    1       24.121 -22.067   6.322  0.00  0.00    +0.090 C 
ATOM     17  N   LIG    1       25.555 -22.253   6.701  0.00  0.00    -0.172 NA
ATOM     18  C   LIG    1       26.211 -23.516   6.278  0.00  0.00    +0.111 C 
ATOM     19  C   LIG    1       25.711 -24.711   7.088  0.00  0.00    +0.032 C 
ATOM     20  C   LIG    1       24.459 -25.379   6.524  0.00  0.00    +0.082 C 
ATOM     21  N   LIG    1       23.395 -24.518   6.025  0.00  0.00    -0.314 NA
ATOM     22  H   LIG    1       23.524 -24.340   5.031  0.00  0.00    +0.122 HD
ATOM     23  C   LIG    1       23.220 -23.257   6.758  0.00  0.00    +0.101 C 
ENDBRANCH   1  17
TORSDOF 2
ENDMDL
MODEL 5
REMARK VINA RESULT:      -6.4      1.657      6.278
REMARK  Name = *****
REMARK                            x       y       z     vdW  Elec       q    Type
REMARK                         _______ _______ _______ _____ _____    ______ ____
ROOT
ATOM      1  S   LIG    1       27.903 -20.995   7.463  0.00  0.00    +0.062 S 
ATOM      2  O   LIG    1       27.218 -20.982   8.744  0.00  0.00    -0.153 OA
ATOM      3  O   LIG    1       28.748 -22.116   7.136  0.00  0.00    -0.153 OA
ENDROOT
BRANCH   1   4
ATOM      4  C   LIG    1       26.600 -20.847   6.220  0.00  0.00    +0.116 A 
ATOM      5  C   LIG    1       25.327 -21.491   6.323  0.00  0.00    +0.047 A 
ATOM      6  C   LIG    1       24.302 -21.033   5.447  0.00  0.00    +0.005 A 
ATOM      7  C   LIG    1       23.019 -21.586   5.545  0.00  0.00    +0.119 A 
ATOM      8  N   LIG    1       22.663 -22.562   6.403  0.00  0.00    -0.260 NA
ATOM      9  C   LIG    1       23.647 -23.027   7.197  0.00  0.00    +0.149 A 
ATOM     10  C   LIG    1       24.552 -20.040   4.489  0.00  0.00    +0.010 A 
ATOM     11  C   LIG    1       25.811 -19.469   4.371  0.00  0.00    +0.003 A 
ATOM     12  C   LIG    1       24.952 -22.550   7.184  0.00  0.00    +0.151 A 
ATOM     13  F   LIG    1       25.846 -23.194   7.942  0.00  0.00    -0.203 F 
ATOM     14  C   LIG    1       26.823 -19.858   5.239  0.00  0.00    +0.029 A 
ENDBRANCH   1   4
BRANCH   1  17
ATOM     15  C   LIG    1       29.607 -18.018   5.540  0.00  0.00    +0.027 C 
ATOM     16  C   LIG    1       29.758 -19.388   6.210  0.00  0.00    +0.090 C 
ATOM     17  N   LIG    1       28.766 -19.528   7.319  0.00  0.00    -0.172 NA
ATOM     18  C   LIG    1       29.028 -18.763   8.564  0.00  0.00    +0.111 C 
ATOM     19  C   LIG    1       30.190 -19.357   9.359  0.00  0.00    +0.032 C 
ATOM     20  C   LIG    1       31.566 -18.832   8.956  0.00  0.00    +0.082 C 
ATOM     21  N   LIG    1       31.844 -18.672   7.536  0.00  0.00    -0.314 NA
ATOM     22  H   LIG    1       31.600 -17.731   7.233  0.00  0.00    +0.122 HD
ATOM     23  C   LIG    1       31.218 -19.674   6.662  0.00  0.00    +0.101 C 
ENDBRANCH   1  17
TORSDOF 2
ENDMDL
MODEL 6
REMARK VINA RESULT:      -5.5      8.711     10.061
REMARK  Name = *****
REMARK                            x       y       z     vdW  Elec       q    Type
REMARK                         _______ _______ _______ _____ _____    ______ ____
ROOT
ATOM      1  S   LIG    1       26.242 -29.561   9.446  0.00  0.00    +0.062 S 
ATOM      2  O   LIG    1       26.260 -28.271   8.778  0.00  0.00    -0.153 OA
ATOM      3  O   LIG    1       27.495 -30.169   9.820  0.00  0.00    -0.153 OA
ENDROOT
BRANCH   1   4
ATOM      4  C   LIG    1       25.229 -29.324  10.922  0.00  0.00    +0.116 A 
ATOM      5  C   LIG    1       25.488 -28.325  11.912  0.00  0.00    +0.047 A 
ATOM      6  C   LIG    1       24.440 -28.049  12.837  0.00  0.00    +0.005 A 
ATOM      7  C   LIG    1       24.616 -27.038  13.790  0.00  0.00    +0.119 A 
ATOM      8  N   LIG    1       25.733 -26.298  13.932  0.00  0.00    -0.260 NA
ATOM      9  C   LIG    1       26.740 -26.595  13.089  0.00  0.00    +0.149 A 
ATOM     10  C   LIG    1       23.237 -28.768  12.811  0.00  0.00    +0.010 A 
ATOM     11  C   LIG    1       23.030 -29.772  11.875  0.00  0.00    +0.003 A 
ATOM     12  C   LIG    1       26.672 -27.576  12.106  0.00  0.00    +0.151 A 
ATOM     13  F   LIG    1       27.794 -27.839  11.427  0.00  0.00    -0.203 F 
ATOM     14  C   LIG    1       24.011 -30.038  10.929  0.00  0.00    +0.029 A 
ENDBRANCH   1   4
BRANCH   1  17
ATOM     15  C   LIG    1       24.671 -33.024   8.446  0.00  0.00    +0.027 C 
ATOM     16  C   LIG    1       25.819 -32.023   8.281  0.00  0.00    +0.090 C 
ATOM     17  N   LIG    1       25.316 -30.630   8.488  0.00  0.00    -0.172 NA
ATOM     18  C   LIG    1       24.492 -30.038   7.403  0.00  0.00    +0.111 C 
ATOM     19  C   LIG    1       25.337 -29.688   6.179  0.00  0.00    +0.032 C 
ATOM     20  C   LIG    1       25.511 -30.831   5.182  0.00  0.00    +0.082 C 
ATOM     21  N   LIG    1       25.766 -32.163   5.713  0.00  0.00    -0.314 NA
ATOM     22  H   LIG    1       24.889 -32.661   5.849  0.00  0.00    +0.122 HD
ATOM     23  C   LIG    1       26.578 -32.200   6.936  0.00  0.00    +0.101 C 
ENDBRANCH   1  17
TORSDOF 2
ENDMDL
MODEL 7
REMARK VINA RESULT:      -5.5      8.706     10.173
REMARK  Name = *****
REMARK                            x       y       z     vdW  Elec       q    Type
REMARK                         _______ _______ _______ _____ _____    ______ ____
ROOT
ATOM      1  S   LIG    1       24.219 -31.441   9.295  0.00  0.00    +0.062 S 
ATOM      2  O   LIG    1       25.005 -32.583   9.729  0.00  0.00    -0.153 OA
ATOM      3  O   LIG    1       22.900 -31.666   8.760  0.00  0.00    -0.153 OA
ENDROOT
BRANCH   1   4
ATOM      4  C   LIG    1       24.103 -30.362  10.738  0.00  0.00    +0.116 A 
ATOM      5  C   LIG    1       25.205 -29.618  11.266  0.00  0.00    +0.047 A 
ATOM      6  C   LIG    1       24.897 -28.580  12.191  0.00  0.00    +0.005 A 
ATOM      7  C   LIG    1       25.930 -27.780  12.694  0.00  0.00    +0.119 A 
ATOM      8  N   LIG    1       27.235 -27.926  12.390  0.00  0.00    -0.260 NA
ATOM      9  C   LIG    1       27.530 -28.939  11.553  0.00  0.00    +0.149 A 
ATOM     10  C   LIG    1       23.579 -28.344  12.608  0.00  0.00    +0.010 A 
ATOM     11  C   LIG    1       22.532 -29.115  12.125  0.00  0.00    +0.003 A 
ATOM     12  C   LIG    1       26.583 -29.791  10.996  0.00  0.00    +0.151 A 
ATOM     13  F   LIG    1       27.038 -30.826  10.281  0.00  0.00    -0.203 F 
ATOM     14  C   LIG    1       22.789 -30.106  11.187  0.00  0.00    +0.029 A 
ENDBRANCH   1   4
BRANCH   1  17
ATOM     15  C   LIG    1       25.539 -28.182   7.536  0.00  0.00    +0.027 C 
ATOM     16  C   LIG    1       24.557 -29.357   7.523  0.00  0.00    +0.090 C 
ATOM     17  N   LIG    1       25.170 -30.543   8.195  0.00  0.00    -0.172 NA
ATOM     18  C   LIG    1       26.229 -31.272   7.453  0.00  0.00    +0.111 C 
ATOM     19  C   LIG    1       25.653 -32.073   6.286  0.00  0.00    +0.032 C 
ATOM     20  C   LIG    1       25.525 -31.288   4.982  0.00  0.00    +0.082 C 
ATOM     21  N   LIG    1       25.035 -29.919   5.058  0.00  0.00    -0.314 NA
ATOM     22  H   LIG    1       25.813 -29.271   5.156  0.00  0.00    +0.122 HD
ATOM     23  C   LIG    1       24.025 -29.677   6.097  0.00  0.00    +0.101 C 
ENDBRANCH   1  17
TORSDOF 2
ENDMDL
MODEL 8
REMARK VINA RESULT:      -5.4      9.291     10.823
REMARK  Name = *****
REMARK                            x       y       z     vdW  Elec       q    Type
REMARK                         _______ _______ _______ _____ _____    ______ ____
ROOT
ATOM      1  S   LIG    1       25.923 -31.362   9.771  0.00  0.00    +0.062 S 
ATOM      2  O   LIG    1       26.985 -31.118   8.811  0.00  0.00    -0.153 OA
ATOM      3  O   LIG    1       26.018 -32.510  10.639  0.00  0.00    -0.153 OA
ENDROOT
BRANCH   1   4
ATOM      4  C   LIG    1       25.828 -29.862  10.774  0.00  0.00    +0.116 A 
ATOM      5  C   LIG    1       25.028 -29.744  11.954  0.00  0.00    +0.047 A 
ATOM      6  C   LIG    1       25.297 -28.634  12.805  0.00  0.00    +0.005 A 
ATOM      7  C   LIG    1       24.587 -28.501  14.004  0.00  0.00    +0.119 A 
ATOM      8  N   LIG    1       23.622 -29.342  14.426  0.00  0.00    -0.260 NA
ATOM      9  C   LIG    1       23.335 -30.364  13.596  0.00  0.00    +0.149 A 
ATOM     10  C   LIG    1       26.260 -27.672  12.465  0.00  0.00    +0.010 A 
ATOM     11  C   LIG    1       26.985 -27.778  11.287  0.00  0.00    +0.003 A 
ATOM     12  C   LIG    1       23.979 -30.590  12.385  0.00  0.00    +0.151 A 
ATOM     13  F   LIG    1       23.502 -31.572  11.614  0.00  0.00    -0.203 F 
ATOM     14  C   LIG    1       26.781 -28.871  10.455  0.00  0.00    +0.029 A 
ENDBRANCH   1   4
BRANCH   1  17
ATOM     15  C   LIG    1       22.745 -33.001   8.137  0.00  0.00    +0.027 C 
ATOM     16  C   LIG    1       24.177 -32.487   7.960  0.00  0.00    +0.090 C 
ATOM     17  N   LIG    1       24.442 -31.372   8.919  0.00  0.00    -0.172 NA
ATOM     18  C   LIG    1       23.813 -30.059   8.624  0.00  0.00    +0.111 C 
ATOM     19  C   LIG    1       24.481 -29.367   7.438  0.00  0.00    +0.032 C 
ATOM     20  C   LIG    1       23.906 -29.750   6.075  0.00  0.00    +0.082 C 
ATOM     21  N   LIG    1       23.592 -31.152   5.840  0.00  0.00    -0.314 NA
ATOM     22  H   LIG    1       22.626 -31.345   6.096  0.00  0.00    +0.122 HD
ATOM     23  C   LIG    1       24.499 -32.110   6.487  0.00  0.00    +0.101 C 
ENDBRANCH   1  17
TORSDOF 2
ENDMDL
MODEL 9
REMARK VINA RESULT:      -5.3      8.598     10.104
REMARK  Name = *****
REMARK                            x       y       z     vdW  Elec       q    Type
REMARK                         _______ _______ _______ _____ _____    ______ ____
ROOT
ATOM      1  S   LIG    1       25.680 -29.502  11.466  0.00  0.00    +0.062 S 
ATOM      2  O   LIG    1       26.232 -28.712  10.378  0.00  0.00    -0.153 OA
ATOM      3  O   LIG    1       26.575 -30.286  12.281  0.00  0.00    -0.153 OA
ENDROOT
BRANCH   1   4
ATOM      4  C   LIG    1       24.795 -28.326  12.513  0.00  0.00    +0.116 A 
ATOM      5  C   LIG    1       25.374 -27.118  13.017  0.00  0.00    +0.047 A 
ATOM      6  C   LIG    1       24.477 -26.149  13.549  0.00  0.00    +0.005 A 
ATOM      7  C   LIG    1       24.981 -24.923  14.002  0.00  0.00    +0.119 A 
ATOM      8  N   LIG    1       26.284 -24.579  14.004  0.00  0.00    -0.260 NA
ATOM      9  C   LIG    1       27.135 -25.517  13.545  0.00  0.00    +0.149 A 
ATOM     10  C   LIG    1       23.099 -26.397  13.629  0.00  0.00    +0.010 A 
ATOM     11  C   LIG    1       22.567 -27.598  13.183  0.00  0.00    +0.003 A 
ATOM     12  C   LIG    1       26.742 -26.764  13.072  0.00  0.00    +0.151 A 
ATOM     13  F   LIG    1       27.710 -27.634  12.765  0.00  0.00    -0.203 F 
ATOM     14  C   LIG    1       23.405 -28.549  12.617  0.00  0.00    +0.029 A 
ENDBRANCH   1   4
BRANCH   1  17
ATOM     15  C   LIG    1       22.739 -32.107  11.607  0.00  0.00    +0.027 C 
ATOM     16  C   LIG    1       24.234 -31.846  11.396  0.00  0.00    +0.090 C 
ATOM     17  N   LIG    1       24.439 -30.482  10.821  0.00  0.00    -0.172 NA
ATOM     18  C   LIG    1       24.087 -30.287   9.392  0.00  0.00    +0.111 C 
ATOM     19  C   LIG    1       25.092 -30.968   8.464  0.00  0.00    +0.032 C 
ATOM     20  C   LIG    1       24.783 -32.432   8.159  0.00  0.00    +0.082 C 
ATOM     21  N   LIG    1       24.329 -33.274   9.257  0.00  0.00    -0.314 NA
ATOM     22  H   LIG    1       23.313 -33.262   9.314  0.00  0.00    +0.122 HD
ATOM     23  C   LIG    1       24.924 -32.964  10.565  0.00  0.00    +0.101 C 
ENDBRANCH   1  17
TORSDOF 2
ENDMDL
