MODEL 1
REMARK VINA RESULT:      -5.9      0.000      0.000
REMARK  Name = *****
REMARK                            x       y       z     vdW  Elec       q    Type
REMARK                         _______ _______ _______ _____ _____    ______ ____
ROOT
ATOM      1  C   LIG    1       25.051 -31.361   7.563  0.00  0.00    +0.032 C 
ATOM      2  C   LIG    1       26.360 -31.982   7.047  0.00  0.00    +0.019 C 
ATOM      3  C   LIG    1       24.499 -32.008   8.889  0.00  0.00    -0.017 C 
ATOM      4  C   LIG    1       23.684 -33.290   8.629  0.00  0.00    +0.012 C 
ATOM      5  C   LIG    1       23.597 -30.881   9.456  0.00  0.00    +0.003 C 
ATOM      6  C   LIG    1       23.172 -31.074  10.925  0.00  0.00    +0.019 C 
ATOM      7  C   LIG    1       24.272 -31.500  11.920  0.00  0.00    +0.006 C 
ATOM      8  C   LIG    1       25.160 -32.607  11.325  0.00  0.00    +0.005 C 
ATOM      9  C   LIG    1       24.993 -30.332  12.721  0.00  0.00    -0.003 C 
ATOM     10  C   LIG    1       24.999 -30.769  14.218  0.00  0.00    +0.016 C 
ATOM     11  C   LIG    1       24.252 -28.985  12.654  0.00  0.00    -0.035 C 
ATOM     12  C   LIG    1       24.889 -27.814  12.858  0.00  0.00    +0.050 C 
ATOM     13  C   LIG    1       26.341 -27.736  13.135  0.00  0.00    +0.156 C 
ATOM     14  O   LIG    1       26.834 -26.653  13.446  0.00  0.00    -0.293 OA
ATOM     15  C   LIG    1       27.171 -28.989  13.057  0.00  0.00    +0.080 C 
ATOM     16  C   LIG    1       22.835 -28.992  12.292  0.00  0.00    -0.050 C 
ATOM     17  C   LIG    1       21.924 -27.912  12.820  0.00  0.00    +0.044 C 
ATOM     18  C   LIG    1       26.464 -30.100  12.283  0.00  0.00    +0.019 C 
ATOM     19  C   LIG    1       22.356 -29.938  11.468  0.00  0.00    -0.019 C 
ATOM     20  C   LIG    1       24.327 -29.574   9.112  0.00  0.00    +0.006 C 
ATOM     21  C   LIG    1       25.638 -32.339   9.897  0.00  0.00    +0.008 C 
ATOM     22  C   LIG    1       25.315 -29.894   7.985  0.00  0.00    +0.015 C 
ENDROOT
BRANCH   1  24
ATOM     23  C   LIG    1       23.682 -32.633   5.689  0.00  0.00    +0.086 C 
ATOM     24  C   LIG    1       23.993 -31.346   6.419  0.00  0.00    +0.137 C 
ATOM     25  O   LIG    1       23.387 -30.318   6.105  0.00  0.00    -0.297 OA
ENDBRANCH   1  24
TORSDOF 1
ENDMDL
MODEL 2
REMARK VINA RESULT:      -5.8      1.709      6.399
REMARK  Name = *****
REMARK                            x       y       z     vdW  Elec       q    Type
REMARK                         _______ _______ _______ _____ _____    ______ ____
ROOT
ATOM      1  C   LIG    1       26.473 -28.889  12.017  0.00  0.00    +0.032 C 
ATOM      2  C   LIG    1       25.569 -27.793  12.604  0.00  0.00    +0.019 C 
ATOM      3  C   LIG    1       25.729 -30.234  11.673  0.00  0.00    -0.017 C 
ATOM      4  C   LIG    1       25.564 -31.151  12.900  0.00  0.00    +0.012 C 
ATOM      5  C   LIG    1       26.674 -30.874  10.623  0.00  0.00    +0.003 C 
ATOM      6  C   LIG    1       26.060 -32.048   9.835  0.00  0.00    +0.019 C 
ATOM      7  C   LIG    1       24.628 -31.853   9.293  0.00  0.00    +0.006 C 
ATOM      8  C   LIG    1       23.719 -31.202  10.350  0.00  0.00    +0.005 C 
ATOM      9  C   LIG    1       24.502 -31.333   7.797  0.00  0.00    -0.003 C 
ATOM     10  C   LIG    1       23.466 -32.264   7.097  0.00  0.00    +0.016 C 
ATOM     11  C   LIG    1       25.810 -31.440   6.991  0.00  0.00    -0.035 C 
ATOM     12  C   LIG    1       26.041 -30.668   5.910  0.00  0.00    +0.050 C 
ATOM     13  C   LIG    1       25.076 -29.652   5.436  0.00  0.00    +0.156 C 
ATOM     14  O   LIG    1       25.285 -29.078   4.368  0.00  0.00    -0.293 OA
ATOM     15  C   LIG    1       23.847 -29.368   6.258  0.00  0.00    +0.080 C 
ATOM     16  C   LIG    1       26.843 -32.360   7.467  0.00  0.00    -0.050 C 
ATOM     17  C   LIG    1       27.783 -33.001   6.479  0.00  0.00    +0.044 C 
ATOM     18  C   LIG    1       23.985 -29.873   7.692  0.00  0.00    +0.019 C 
ATOM     19  C   LIG    1       26.970 -32.605   8.782  0.00  0.00    -0.019 C 
ATOM     20  C   LIG    1       27.214 -29.695   9.800  0.00  0.00    +0.006 C 
ATOM     21  C   LIG    1       24.326 -29.984  11.048  0.00  0.00    +0.008 C 
ATOM     22  C   LIG    1       26.999 -28.428  10.635  0.00  0.00    +0.015 C 
ENDROOT
BRANCH   1  24
ATOM     23  C   LIG    1       27.634 -28.625  14.381  0.00  0.00    +0.086 C 
ATOM     24  C   LIG    1       27.703 -29.106  12.949  0.00  0.00    +0.137 C 
ATOM     25  O   LIG    1       28.724 -29.677  12.557  0.00  0.00    -0.297 OA
ENDBRANCH   1  24
TORSDOF 1
ENDMDL
MODEL 3
REMARK VINA RESULT:      -5.6      1.421      1.910
REMARK  Name = *****
REMARK                            x       y       z     vdW  Elec       q    Type
REMARK                         _______ _______ _______ _____ _____    ______ ____
ROOT
ATOM      1  C   LIG    1       25.236 -31.307   9.358  0.00  0.00    +0.032 C 
ATOM      2  C   LIG    1       26.688 -31.797   9.231  0.00  0.00    +0.019 C 
ATOM      3  C   LIG    1       24.544 -31.663  10.727  0.00  0.00    -0.017 C 
ATOM      4  C   LIG    1       23.969 -33.093  10.747  0.00  0.00    +0.012 C 
ATOM      5  C   LIG    1       23.411 -30.608  10.809  0.00  0.00    +0.003 C 
ATOM      6  C   LIG    1       22.756 -30.472  12.198  0.00  0.00    +0.019 C 
ATOM      7  C   LIG    1       23.703 -30.411  13.414  0.00  0.00    +0.006 C 
ATOM      8  C   LIG    1       24.824 -31.458  13.298  0.00  0.00    +0.005 C 
ATOM      9  C   LIG    1       24.104 -28.961  13.928  0.00  0.00    -0.003 C 
ATOM     10  C   LIG    1       23.895 -28.973  15.473  0.00  0.00    +0.016 C 
ATOM     11  C   LIG    1       23.213 -27.837  13.367  0.00  0.00    -0.035 C 
ATOM     12  C   LIG    1       23.641 -26.560  13.303  0.00  0.00    +0.050 C 
ATOM     13  C   LIG    1       24.994 -26.151  13.740  0.00  0.00    +0.156 C 
ATOM     14  O   LIG    1       25.273 -24.954  13.784  0.00  0.00    -0.293 OA
ATOM     15  C   LIG    1       25.984 -27.209  14.148  0.00  0.00    +0.080 C 
ATOM     16  C   LIG    1       21.900 -28.196  12.833  0.00  0.00    -0.050 C 
ATOM     17  C   LIG    1       20.773 -27.197  12.891  0.00  0.00    +0.044 C 
ATOM     18  C   LIG    1       25.586 -28.594  13.646  0.00  0.00    +0.019 C 
ATOM     19  C   LIG    1       21.710 -29.399  12.266  0.00  0.00    -0.019 C 
ATOM     20  C   LIG    1       24.010 -29.331  10.199  0.00  0.00    +0.006 C 
ATOM     21  C   LIG    1       25.514 -31.502  11.933  0.00  0.00    +0.008 C 
ATOM     22  C   LIG    1       25.221 -29.758   9.362  0.00  0.00    +0.015 C 
ENDROOT
BRANCH   1  24
ATOM     23  C   LIG    1       24.953 -32.917   7.276  0.00  0.00    +0.086 C 
ATOM     24  C   LIG    1       24.412 -31.790   8.127  0.00  0.00    +0.137 C 
ATOM     25  O   LIG    1       23.321 -31.292   7.837  0.00  0.00    -0.297 OA
ENDBRANCH   1  24
TORSDOF 1
ENDMDL
MODEL 4
REMARK VINA RESULT:      -5.4      2.370      5.555
REMARK  Name = *****
REMARK                            x       y       z     vdW  Elec       q    Type
REMARK                         _______ _______ _______ _____ _____    ______ ____
ROOT
ATOM      1  C   LIG    1       21.013 -32.107  11.507  0.00  0.00    +0.032 C 
ATOM      2  C   LIG    1       19.938 -33.076  10.988  0.00  0.00    +0.019 C 
ATOM      3  C   LIG    1       22.488 -32.648  11.395  0.00  0.00    -0.017 C 
ATOM      4  C   LIG    1       22.874 -33.566  12.571  0.00  0.00    +0.012 C 
ATOM      5  C   LIG    1       23.322 -31.340  11.415  0.00  0.00    +0.003 C 
ATOM      6  C   LIG    1       24.792 -31.507  10.981  0.00  0.00    +0.019 C 
ATOM      7  C   LIG    1       25.056 -32.351   9.717  0.00  0.00    +0.006 C 
ATOM      8  C   LIG    1       24.205 -33.633   9.718  0.00  0.00    +0.005 C 
ATOM      9  C   LIG    1       25.182 -31.556   8.347  0.00  0.00    -0.003 C 
ATOM     10  C   LIG    1       26.466 -32.095   7.646  0.00  0.00    +0.016 C 
ATOM     11  C   LIG    1       25.378 -30.039   8.527  0.00  0.00    -0.035 C 
ATOM     12  C   LIG    1       25.056 -29.164   7.553  0.00  0.00    +0.050 C 
ATOM     13  C   LIG    1       24.474 -29.587   6.261  0.00  0.00    +0.156 C 
ATOM     14  O   LIG    1       24.331 -28.756   5.366  0.00  0.00    -0.293 OA
ATOM     15  C   LIG    1       24.099 -31.032   6.065  0.00  0.00    +0.080 C 
ATOM     16  C   LIG    1       25.862 -29.552   9.818  0.00  0.00    -0.050 C 
ATOM     17  C   LIG    1       26.673 -28.283   9.880  0.00  0.00    +0.044 C 
ATOM     18  C   LIG    1       23.981 -31.781   7.390  0.00  0.00    +0.019 C 
ATOM     19  C   LIG    1       25.557 -30.217  10.945  0.00  0.00    -0.019 C 
ATOM     20  C   LIG    1       22.481 -30.319  10.633  0.00  0.00    +0.006 C 
ATOM     21  C   LIG    1       22.731 -33.417  10.065  0.00  0.00    +0.008 C 
ATOM     22  C   LIG    1       21.043 -30.848  10.605  0.00  0.00    +0.015 C 
ENDROOT
BRANCH   1  24
ATOM     23  C   LIG    1       19.746 -32.522  13.793  0.00  0.00    +0.086 C 
ATOM     24  C   LIG    1       20.651 -31.650  12.953  0.00  0.00    +0.137 C 
ATOM     25  O   LIG    1       21.098 -30.608  13.438  0.00  0.00    -0.297 OA
ENDBRANCH   1  24
TORSDOF 1
ENDMDL
MODEL 5
REMARK VINA RESULT:      -5.3      2.053      3.468
REMARK  Name = *****
REMARK                            x       y       z     vdW  Elec       q    Type
REMARK                         _______ _______ _______ _____ _____    ______ ____
ROOT
ATOM      1  C   LIG    1       25.002 -30.173   8.765  0.00  0.00    +0.032 C 
ATOM      2  C   LIG    1       25.227 -29.026   7.766  0.00  0.00    +0.019 C 
ATOM      3  C   LIG    1       25.902 -30.100  10.056  0.00  0.00    -0.017 C 
ATOM      4  C   LIG    1       27.310 -30.688   9.832  0.00  0.00    +0.012 C 
ATOM      5  C   LIG    1       25.097 -30.955  11.069  0.00  0.00    +0.003 C 
ATOM      6  C   LIG    1       25.543 -30.804  12.537  0.00  0.00    +0.019 C 
ATOM      7  C   LIG    1       25.791 -29.369  13.048  0.00  0.00    +0.006 C 
ATOM      8  C   LIG    1       26.578 -28.541  12.016  0.00  0.00    +0.005 C 
ATOM      9  C   LIG    1       24.575 -28.659  13.785  0.00  0.00    -0.003 C 
ATOM     10  C   LIG    1       25.154 -28.056  15.101  0.00  0.00    +0.016 C 
ATOM     11  C   LIG    1       23.450 -29.627  14.196  0.00  0.00    -0.035 C 
ATOM     12  C   LIG    1       22.189 -29.199  14.402  0.00  0.00    +0.050 C 
ATOM     13  C   LIG    1       21.788 -27.785  14.225  0.00  0.00    +0.156 C 
ATOM     14  O   LIG    1       20.657 -27.436  14.559  0.00  0.00    -0.293 OA
ATOM     15  C   LIG    1       22.785 -26.805  13.668  0.00  0.00    +0.080 C 
ATOM     16  C   LIG    1       23.765 -31.052  14.295  0.00  0.00    -0.050 C 
ATOM     17  C   LIG    1       23.003 -31.918  15.266  0.00  0.00    +0.044 C 
ATOM     18  C   LIG    1       23.946 -27.503  12.963  0.00  0.00    +0.019 C 
ATOM     19  C   LIG    1       24.706 -31.589  13.502  0.00  0.00    -0.019 C 
ATOM     20  C   LIG    1       23.623 -30.657  10.759  0.00  0.00    +0.006 C 
ATOM     21  C   LIG    1       26.051 -28.644  10.584  0.00  0.00    +0.008 C 
ATOM     22  C   LIG    1       23.569 -30.072   9.344  0.00  0.00    +0.015 C 
ENDROOT
BRANCH   1  24
ATOM     23  C   LIG    1       25.808 -31.590   6.679  0.00  0.00    +0.086 C 
ATOM     24  C   LIG    1       25.124 -31.540   8.027  0.00  0.00    +0.137 C 
ATOM     25  O   LIG    1       24.697 -32.587   8.520  0.00  0.00    -0.297 OA
ENDBRANCH   1  24
TORSDOF 1
ENDMDL
MODEL 6
REMARK VINA RESULT:      -5.3      2.374      5.488
REMARK  Name = *****
REMARK                            x       y       z     vdW  Elec       q    Type
REMARK                         _______ _______ _______ _____ _____    ______ ____
ROOT
ATOM      1  C   LIG    1       21.419 -30.295  12.730  0.00  0.00    +0.032 C 
ATOM      2  C   LIG    1       20.033 -30.484  12.092  0.00  0.00    +0.019 C 
ATOM      3  C   LIG    1       22.482 -31.382  12.317  0.00  0.00    -0.017 C 
ATOM      4  C   LIG    1       22.370 -32.670  13.156  0.00  0.00    +0.012 C 
ATOM      5  C   LIG    1       23.823 -30.654  12.593  0.00  0.00    +0.003 C 
ATOM      6  C   LIG    1       25.062 -31.329  11.973  0.00  0.00    +0.019 C 
ATOM      7  C   LIG    1       24.942 -31.800  10.508  0.00  0.00    +0.006 C 
ATOM      8  C   LIG    1       23.596 -32.504  10.261  0.00  0.00    +0.005 C 
ATOM      9  C   LIG    1       25.457 -30.790   9.395  0.00  0.00    -0.003 C 
ATOM     10  C   LIG    1       26.366 -31.620   8.439  0.00  0.00    +0.016 C 
ATOM     11  C   LIG    1       26.324 -29.645   9.950  0.00  0.00    -0.035 C 
ATOM     12  C   LIG    1       26.468 -28.480   9.287  0.00  0.00    +0.050 C 
ATOM     13  C   LIG    1       25.792 -28.207   8.000  0.00  0.00    +0.156 C 
ATOM     14  O   LIG    1       26.072 -27.182   7.381  0.00  0.00    -0.293 OA
ATOM     15  C   LIG    1       24.798 -29.205   7.468  0.00  0.00    +0.080 C 
ATOM     16  C   LIG    1       26.943 -29.820  11.264  0.00  0.00    -0.050 C 
ATOM     17  C   LIG    1       28.245 -29.128  11.573  0.00  0.00    +0.044 C 
ATOM     18  C   LIG    1       24.313 -30.167   8.550  0.00  0.00    +0.019 C 
ATOM     19  C   LIG    1       26.335 -30.570  12.199  0.00  0.00    -0.019 C 
ATOM     20  C   LIG    1       23.568 -29.189  12.209  0.00  0.00    +0.006 C 
ATOM     21  C   LIG    1       22.378 -31.760  10.811  0.00  0.00    +0.008 C 
ATOM     22  C   LIG    1       22.050 -28.984  12.198  0.00  0.00    +0.015 C 
ENDROOT
BRANCH   1  24
ATOM     23  C   LIG    1       21.807 -28.926  14.962  0.00  0.00    +0.086 C 
ATOM     24  C   LIG    1       21.269 -30.161  14.275  0.00  0.00    +0.137 C 
ATOM     25  O   LIG    1       20.705 -31.025  14.952  0.00  0.00    -0.297 OA
ENDBRANCH   1  24
TORSDOF 1
ENDMDL
MODEL 7
REMARK VINA RESULT:      -5.1      2.440      6.125
REMARK  Name = *****
REMARK                            x       y       z     vdW  Elec       q    Type
REMARK                         _______ _______ _______ _____ _____    ______ ____
ROOT
ATOM      1  C   LIG    1       21.027 -27.244  13.457  0.00  0.00    +0.032 C 
ATOM      2  C   LIG    1       20.007 -26.691  12.447  0.00  0.00    +0.019 C 
ATOM      3  C   LIG    1       21.149 -28.814  13.468  0.00  0.00    -0.017 C 
ATOM      4  C   LIG    1       20.063 -29.488  14.329  0.00  0.00    +0.012 C 
ATOM      5  C   LIG    1       22.558 -29.031  14.079  0.00  0.00    +0.003 C 
ATOM      6  C   LIG    1       23.119 -30.458  13.914  0.00  0.00    +0.019 C 
ATOM      7  C   LIG    1       22.978 -31.107  12.522  0.00  0.00    +0.006 C 
ATOM      8  C   LIG    1       21.577 -30.863  11.935  0.00  0.00    +0.005 C 
ATOM      9  C   LIG    1       24.220 -30.959  11.543  0.00  0.00    -0.003 C 
ATOM     10  C   LIG    1       24.498 -32.383  10.972  0.00  0.00    +0.016 C 
ATOM     11  C   LIG    1       25.512 -30.502  12.245  0.00  0.00    -0.035 C 
ATOM     12  C   LIG    1       26.508 -29.895  11.569  0.00  0.00    +0.050 C 
ATOM     13  C   LIG    1       26.426 -29.603  10.121  0.00  0.00    +0.156 C 
ATOM     14  O   LIG    1       27.420 -29.172   9.539  0.00  0.00    -0.293 OA
ATOM     15  C   LIG    1       25.136 -29.867   9.392  0.00  0.00    +0.080 C 
ATOM     16  C   LIG    1       25.613 -30.679  13.693  0.00  0.00    -0.050 C 
ATOM     17  C   LIG    1       26.964 -30.890  14.327  0.00  0.00    +0.044 C 
ATOM     18  C   LIG    1       23.953 -30.006  10.347  0.00  0.00    +0.019 C 
ATOM     19  C   LIG    1       24.508 -30.622  14.456  0.00  0.00    -0.019 C 
ATOM     20  C   LIG    1       23.414 -27.882  13.526  0.00  0.00    +0.006 C 
ATOM     21  C   LIG    1       21.090 -29.416  12.034  0.00  0.00    +0.008 C 
ATOM     22  C   LIG    1       22.450 -26.795  13.042  0.00  0.00    +0.015 C 
ENDROOT
BRANCH   1  24
ATOM     23  C   LIG    1       19.378 -26.895  15.498  0.00  0.00    +0.086 C 
ATOM     24  C   LIG    1       20.733 -26.656  14.870  0.00  0.00    +0.137 C 
ATOM     25  O   LIG    1       21.581 -26.019  15.500  0.00  0.00    -0.297 OA
ENDBRANCH   1  24
TORSDOF 1
ENDMDL
MODEL 8
REMARK VINA RESULT:      -5.1      2.315      6.843
REMARK  Name = *****
REMARK                            x       y       z     vdW  Elec       q    Type
REMARK                         _______ _______ _______ _____ _____    ______ ____
ROOT
ATOM      1  C   LIG    1       26.253 -25.859  14.373  0.00  0.00    +0.032 C 
ATOM      2  C   LIG    1       25.347 -25.333  15.500  0.00  0.00    +0.019 C 
ATOM      3  C   LIG    1       26.752 -27.339  14.575  0.00  0.00    -0.017 C 
ATOM      4  C   LIG    1       27.988 -27.429  15.491  0.00  0.00    +0.012 C 
ATOM      5  C   LIG    1       27.101 -27.769  13.126  0.00  0.00    +0.003 C 
ATOM      6  C   LIG    1       27.302 -29.286  12.936  0.00  0.00    +0.019 C 
ATOM      7  C   LIG    1       26.259 -30.217  13.588  0.00  0.00    +0.006 C 
ATOM      8  C   LIG    1       25.922 -29.757  15.017  0.00  0.00    +0.005 C 
ATOM      9  C   LIG    1       25.054 -30.687  12.665  0.00  0.00    -0.003 C 
ATOM     10  C   LIG    1       24.937 -32.231  12.853  0.00  0.00    +0.016 C 
ATOM     11  C   LIG    1       25.289 -30.439  11.164  0.00  0.00    -0.035 C 
ATOM     12  C   LIG    1       24.264 -30.336  10.294  0.00  0.00    +0.050 C 
ATOM     13  C   LIG    1       22.849 -30.429  10.716  0.00  0.00    +0.156 C 
ATOM     14  O   LIG    1       21.969 -30.463   9.858  0.00  0.00    -0.293 OA
ATOM     15  C   LIG    1       22.525 -30.507  12.184  0.00  0.00    +0.080 C 
ATOM     16  C   LIG    1       26.663 -30.245  10.702  0.00  0.00    -0.050 C 
ATOM     17  C   LIG    1       27.042 -30.648   9.300  0.00  0.00    +0.044 C 
ATOM     18  C   LIG    1       23.692 -30.051  13.056  0.00  0.00    +0.019 C 
ATOM     19  C   LIG    1       27.573 -29.682  11.515  0.00  0.00    -0.019 C 
ATOM     20  C   LIG    1       26.040 -27.096  12.243  0.00  0.00    +0.006 C 
ATOM     21  C   LIG    1       25.638 -28.259  15.153  0.00  0.00    +0.008 C 
ATOM     22  C   LIG    1       25.433 -25.952  13.062  0.00  0.00    +0.015 C 
ENDROOT
BRANCH   1  24
ATOM     23  C   LIG    1       27.987 -24.093  15.311  0.00  0.00    +0.086 C 
ATOM     24  C   LIG    1       27.424 -24.859  14.136  0.00  0.00    +0.137 C 
ATOM     25  O   LIG    1       27.919 -24.689  13.018  0.00  0.00    -0.297 OA
ENDBRANCH   1  24
TORSDOF 1
ENDMDL
MODEL 9
REMARK VINA RESULT:      -5.1      2.161      3.268
REMARK  Name = *****
REMARK                            x       y       z     vdW  Elec       q    Type
REMARK                         _______ _______ _______ _____ _____    ______ ____
ROOT
ATOM      1  C   LIG    1       24.867 -31.050   9.108  0.00  0.00    +0.032 C 
ATOM      2  C   LIG    1       26.140 -30.279   8.721  0.00  0.00    +0.019 C 
ATOM      3  C   LIG    1       24.809 -31.498  10.617  0.00  0.00    -0.017 C 
ATOM      4  C   LIG    1       25.575 -32.810  10.877  0.00  0.00    +0.012 C 
ATOM      5  C   LIG    1       23.287 -31.688  10.846  0.00  0.00    +0.003 C 
ATOM      6  C   LIG    1       22.868 -31.801  12.326  0.00  0.00    +0.019 C 
ATOM      7  C   LIG    1       23.485 -30.783  13.306  0.00  0.00    +0.006 C 
ATOM      8  C   LIG    1       24.991 -30.604  13.045  0.00  0.00    +0.005 C 
ATOM      9  C   LIG    1       22.630 -29.476  13.601  0.00  0.00    -0.003 C 
ATOM     10  C   LIG    1       22.612 -29.307  15.151  0.00  0.00    +0.016 C 
ATOM     11  C   LIG    1       21.163 -29.580  13.148  0.00  0.00    -0.035 C 
ATOM     12  C   LIG    1       20.422 -28.483  12.889  0.00  0.00    +0.050 C 
ATOM     13  C   LIG    1       20.966 -27.112  12.996  0.00  0.00    +0.156 C 
ATOM     14  O   LIG    1       20.204 -26.153  12.880  0.00  0.00    -0.293 OA
ATOM     15  C   LIG    1       22.434 -26.924  13.274  0.00  0.00    +0.080 C 
ATOM     16  C   LIG    1       20.597 -30.911  12.934  0.00  0.00    -0.050 C 
ATOM     17  C   LIG    1       19.122 -31.138  13.143  0.00  0.00    +0.044 C 
ATOM     18  C   LIG    1       23.240 -28.188  12.985  0.00  0.00    +0.019 C 
ATOM     19  C   LIG    1       21.385 -31.918  12.522  0.00  0.00    -0.019 C 
ATOM     20  C   LIG    1       22.617 -30.581  10.020  0.00  0.00    +0.006 C 
ATOM     21  C   LIG    1       25.361 -30.403  11.575  0.00  0.00    +0.008 C 
ATOM     22  C   LIG    1       23.644 -30.107   8.986  0.00  0.00    +0.015 C 
ENDROOT
BRANCH   1  24
ATOM     23  C   LIG    1       25.837 -32.764   7.340  0.00  0.00    +0.086 C 
ATOM     24  C   LIG    1       24.655 -32.238   8.122  0.00  0.00    +0.137 C 
ATOM     25  O   LIG    1       23.554 -32.775   7.976  0.00  0.00    -0.297 OA
ENDBRANCH   1  24
TORSDOF 1
ENDMDL
