MODEL 1
REMARK VINA RESULT:      11.3      0.000      0.000
REMARK  Name = *****
REMARK                            x       y       z     vdW  Elec       q    Type
REMARK                         _______ _______ _______ _____ _____    ______ ____
ROOT
ATOM      1  O   LIG    1       22.323 -15.377   6.003  0.00  0.00    -0.270 OA
ATOM      2  C   LIG    1       22.958 -15.343   4.940  0.00  0.00    +0.248 C 
ATOM      3  N   LIG    1       22.666 -16.059   3.789  0.00  0.00    -0.279 N 
ATOM      4  H   LIG    1       23.191 -15.839   2.951  0.00  0.00    +0.155 HD
ENDROOT
BRANCH   3   5
ATOM      5  C   LIG    1       21.624 -17.005   3.607  0.00  0.00    +0.077 A 
ATOM      6  C   LIG    1       21.838 -18.346   3.974  0.00  0.00    +0.161 A 
ATOM      7  C   LIG    1       20.818 -19.287   3.802  0.00  0.00    +0.066 A 
ATOM      8  C   LIG    1       21.046 -20.689   4.195  0.00  0.00    +0.193 C 
ATOM      9  C   LIG    1       22.312 -20.968   4.884  0.00  0.00    +0.101 C 
ATOM     10  C   LIG    1       23.218 -19.992   4.995  0.00  0.00    +0.177 C 
ATOM     11  O   LIG    1       20.230 -21.570   3.991  0.00  0.00    -0.287 OA
ATOM     12  C   LIG    1       19.574 -18.911   3.293  0.00  0.00    +0.015 A 
ATOM     13  C   LIG    1       19.351 -17.583   2.953  0.00  0.00    +0.003 A 
ATOM     14  O   LIG    1       23.069 -18.701   4.497  0.00  0.00    -0.450 OA
ATOM     15  C   LIG    1       20.371 -16.638   3.101  0.00  0.00    +0.027 A 
BRANCH  10  16
ATOM     16  C   LIG    1       24.412 -20.240   5.710  0.00  0.00    +0.215 A 
ATOM     17  N   LIG    1       25.381 -21.049   5.186  0.00  0.00    -0.236 N 
ATOM     18  H   LIG    1       25.392 -21.570   4.319  0.00  0.00    +0.192 HD
ATOM     19  N   LIG    1       26.427 -21.120   6.018  0.00  0.00    -0.046 NA
ATOM     20  N   LIG    1       26.088 -20.378   7.062  0.00  0.00    -0.023 NA
ATOM     21  N   LIG    1       24.836 -19.838   6.893  0.00  0.00    -0.105 NA
ENDBRANCH  10  16
ENDBRANCH   3   5
BRANCH   2  22
ATOM     22  C   LIG    1       24.122 -14.418   4.856  0.00  0.00    +0.037 A 
ATOM     23  C   LIG    1       25.244 -14.606   5.674  0.00  0.00    +0.016 A 
ATOM     24  C   LIG    1       26.332 -13.725   5.593  0.00  0.00    +0.046 A 
ATOM     25  C   LIG    1       26.356 -12.720   4.623  0.00  0.00    +0.120 A 
ATOM     26  C   LIG    1       25.246 -12.547   3.799  0.00  0.00    +0.046 A 
ATOM     27  C   LIG    1       24.122 -13.363   3.934  0.00  0.00    +0.016 A 
BRANCH  25  28
ATOM     28  O   LIG    1       27.499 -11.968   4.562  0.00  0.00    -0.492 OA
BRANCH  28  29
ATOM     29  C   LIG    1       28.747 -12.672   4.450  0.00  0.00    +0.229 C 
BRANCH  29  30
ATOM     30  C   LIG    1       28.575 -13.967   3.643  0.00  0.00    +0.041 C 
BRANCH  30  31
ATOM     31  C   LIG    1       27.599 -13.809   2.480  0.00  0.00    +0.008 C 
BRANCH  31  32
ATOM     32  C   LIG    1       26.526 -14.909   2.443  0.00  0.00    +0.035 C 
BRANCH  32  33
ATOM     33  C   LIG    1       26.972 -16.134   3.211  0.00  0.00    -0.047 A 
ATOM     34  C   LIG    1       26.321 -17.366   3.061  0.00  0.00    +0.003 A 
ATOM     35  C   LIG    1       26.740 -18.479   3.795  0.00  0.00    +0.000 A 
ATOM     36  C   LIG    1       27.813 -18.375   4.680  0.00  0.00    +0.000 A 
ATOM     37  C   LIG    1       28.475 -17.160   4.825  0.00  0.00    +0.000 A 
ATOM     38  C   LIG    1       28.062 -16.051   4.091  0.00  0.00    +0.003 A 
ENDBRANCH  32  33
ENDBRANCH  31  32
ENDBRANCH  30  31
ENDBRANCH  29  30
ENDBRANCH  28  29
ENDBRANCH  25  28
ENDBRANCH   2  22
TORSDOF 9
ENDMDL
MODEL 2
REMARK VINA RESULT:      13.9      1.495      3.168
REMARK  Name = *****
REMARK                            x       y       z     vdW  Elec       q    Type
REMARK                         _______ _______ _______ _____ _____    ______ ____
ROOT
ATOM      1  O   LIG    1       23.788 -16.015   5.194  0.00  0.00    -0.270 OA
ATOM      2  C   LIG    1       24.070 -16.085   3.990  0.00  0.00    +0.248 C 
ATOM      3  N   LIG    1       23.343 -16.753   3.016  0.00  0.00    -0.279 N 
ATOM      4  H   LIG    1       23.616 -16.622   2.050  0.00  0.00    +0.155 HD
ENDROOT
BRANCH   3   5
ATOM      5  C   LIG    1       22.170 -17.529   3.201  0.00  0.00    +0.077 A 
ATOM      6  C   LIG    1       22.254 -18.755   3.887  0.00  0.00    +0.161 A 
ATOM      7  C   LIG    1       21.103 -19.527   4.079  0.00  0.00    +0.066 A 
ATOM      8  C   LIG    1       21.197 -20.806   4.803  0.00  0.00    +0.193 C 
ATOM      9  C   LIG    1       22.501 -21.113   5.406  0.00  0.00    +0.101 C 
ATOM     10  C   LIG    1       23.535 -20.303   5.158  0.00  0.00    +0.177 C 
ATOM     11  O   LIG    1       20.251 -21.562   4.927  0.00  0.00    -0.287 OA
ATOM     12  C   LIG    1       19.860 -19.087   3.621  0.00  0.00    +0.015 A 
ATOM     13  C   LIG    1       19.769 -17.865   2.966  0.00  0.00    +0.003 A 
ATOM     14  O   LIG    1       23.489 -19.169   4.355  0.00  0.00    -0.450 OA
ATOM     15  C   LIG    1       20.917 -17.096   2.750  0.00  0.00    +0.027 A 
BRANCH  10  16
ATOM     16  C   LIG    1       24.776 -20.562   5.785  0.00  0.00    +0.215 A 
ATOM     17  N   LIG    1       25.940 -20.098   5.241  0.00  0.00    -0.236 N 
ATOM     18  H   LIG    1       26.095 -19.584   4.384  0.00  0.00    +0.192 HD
ATOM     19  N   LIG    1       26.981 -20.437   6.011  0.00  0.00    -0.046 NA
ATOM     20  N   LIG    1       26.457 -21.130   7.012  0.00  0.00    -0.023 NA
ATOM     21  N   LIG    1       25.093 -21.230   6.878  0.00  0.00    -0.105 NA
ENDBRANCH  10  16
ENDBRANCH   3   5
BRANCH   2  22
ATOM     22  C   LIG    1       25.275 -15.350   3.515  0.00  0.00    +0.037 A 
ATOM     23  C   LIG    1       26.512 -15.520   4.152  0.00  0.00    +0.016 A 
ATOM     24  C   LIG    1       27.639 -14.817   3.704  0.00  0.00    +0.046 A 
ATOM     25  C   LIG    1       27.568 -14.030   2.552  0.00  0.00    +0.120 A 
ATOM     26  C   LIG    1       26.341 -13.877   1.910  0.00  0.00    +0.046 A 
ATOM     27  C   LIG    1       25.194 -14.501   2.403  0.00  0.00    +0.016 A 
BRANCH  25  28
ATOM     28  O   LIG    1       28.741 -13.456   2.140  0.00  0.00    -0.492 OA
BRANCH  28  29
ATOM     29  C   LIG    1       29.374 -12.530   3.038  0.00  0.00    +0.229 C 
BRANCH  29  30
ATOM     30  C   LIG    1       29.008 -12.845   4.496  0.00  0.00    +0.041 C 
BRANCH  30  31
ATOM     31  C   LIG    1       28.110 -11.779   5.119  0.00  0.00    +0.008 C 
BRANCH  31  32
ATOM     32  C   LIG    1       26.876 -12.369   5.821  0.00  0.00    +0.035 C 
BRANCH  32  33
ATOM     33  C   LIG    1       25.610 -12.066   5.048  0.00  0.00    -0.047 A 
ATOM     34  C   LIG    1       25.636 -11.846   3.664  0.00  0.00    +0.003 A 
ATOM     35  C   LIG    1       24.456 -11.548   2.976  0.00  0.00    +0.000 A 
ATOM     36  C   LIG    1       23.243 -11.472   3.659  0.00  0.00    +0.000 A 
ATOM     37  C   LIG    1       23.205 -11.703   5.031  0.00  0.00    +0.000 A 
ATOM     38  C   LIG    1       24.378 -12.005   5.718  0.00  0.00    +0.003 A 
ENDBRANCH  32  33
ENDBRANCH  31  32
ENDBRANCH  30  31
ENDBRANCH  29  30
ENDBRANCH  28  29
ENDBRANCH  25  28
ENDBRANCH   2  22
TORSDOF 9
ENDMDL
