MODEL 1
REMARK VINA RESULT:      -0.9      0.000      0.000
REMARK  Name = *****
REMARK                            x       y       z     vdW  Elec       q    Type
REMARK                         _______ _______ _______ _____ _____    ______ ____
ROOT
ATOM      1  C   LIG    1       25.237 -14.535   2.343  0.00  0.00    +0.179 C 
ATOM      2  C   LIG    1       24.289 -13.651   3.162  0.00  0.00    +0.179 C 
ATOM      3  C   LIG    1       24.448 -14.231   4.562  0.00  0.00    +0.202 C 
ATOM      4  C   LIG    1       24.528 -15.726   4.236  0.00  0.00    +0.293 C 
ATOM      5  O   LIG    1       25.368 -15.787   3.073  0.00  0.00    -0.340 OA
ENDROOT
BRANCH   2   6
ATOM      6  O   LIG    1       22.923 -13.810   2.744  0.00  0.00    -0.386 OA
ATOM      7  H   LIG    1       22.356 -13.775   3.539  0.00  0.00    +0.210 HD
ENDBRANCH   2   6
BRANCH   3   8
ATOM      8  O   LIG    1       23.405 -13.859   5.460  0.00  0.00    -0.384 OA
ATOM      9  H   LIG    1       23.602 -12.928   5.735  0.00  0.00    +0.210 HD
ENDBRANCH   3   8
BRANCH   1  10
ATOM     10  C   LIG    1       26.635 -13.931   2.204  0.00  0.00    +0.206 C 
BRANCH  10  11
ATOM     11  O   LIG    1       26.852 -13.001   3.258  0.00  0.00    -0.284 OA
BRANCH  11  13
ATOM     12  O   LIG    1       29.339 -12.646   4.039  0.00  0.00    -0.228 OA
ATOM     13  P   LIG    1       28.037 -13.331   4.279  0.00  0.00    +0.472 P 
BRANCH  13  14
ATOM     14  O   LIG    1       27.407 -13.013   5.708  0.00  0.00    -0.303 OA
ATOM     15  H   LIG    1       28.094 -12.739   6.342  0.00  0.00    +0.222 HD
ENDBRANCH  13  14
BRANCH  13  16
ATOM     16  O   LIG    1       28.124 -14.918   4.296  0.00  0.00    -0.303 OA
ATOM     17  H   LIG    1       27.314 -15.305   4.671  0.00  0.00    +0.222 HD
ENDBRANCH  13  16
ENDBRANCH  11  13
ENDBRANCH  10  11
ENDBRANCH   1  10
BRANCH   4  18
ATOM     18  O   LIG    1       23.289 -16.296   3.871  0.00  0.00    -0.254 OA
BRANCH  18  19
ATOM     19  P   LIG    1       23.001 -17.842   4.147  0.00  0.00    +0.486 P 
ATOM     20  O   LIG    1       22.405 -18.125   5.492  0.00  0.00    -0.227 OA
BRANCH  19  21
ATOM     21  O   LIG    1       21.906 -18.129   3.014  0.00  0.00    -0.302 OA
ATOM     22  H   LIG    1       21.060 -17.703   3.241  0.00  0.00    +0.222 HD
ENDBRANCH  19  21
BRANCH  19  23
ATOM     23  O   LIG    1       24.242 -18.696   3.687  0.00  0.00    -0.186 OA
BRANCH  23  24
ATOM     24  P   LIG    1       24.586 -20.190   4.096  0.00  0.00    +0.481 P 
ATOM     25  O   LIG    1       23.941 -21.272   3.311  0.00  0.00    -0.227 OA
BRANCH  24  26
ATOM     26  O   LIG    1       24.183 -20.239   5.643  0.00  0.00    -0.302 OA
ATOM     27  H   LIG    1       24.974 -20.268   6.208  0.00  0.00    +0.222 HD
ENDBRANCH  24  26
BRANCH  24  28
ATOM     28  O   LIG    1       26.173 -20.292   4.167  0.00  0.00    -0.302 OA
ATOM     29  H   LIG    1       26.485 -21.164   3.834  0.00  0.00    +0.222 HD
ENDBRANCH  24  28
ENDBRANCH  23  24
ENDBRANCH  19  23
ENDBRANCH  18  19
ENDBRANCH   4  18
TORSDOF 14
ENDMDL
MODEL 2
REMARK VINA RESULT:      -0.6      1.230      2.050
REMARK  Name = *****
REMARK                            x       y       z     vdW  Elec       q    Type
REMARK                         _______ _______ _______ _____ _____    ______ ____
ROOT
ATOM      1  C   LIG    1       24.825 -14.256   2.649  0.00  0.00    +0.179 C 
ATOM      2  C   LIG    1       23.518 -14.095   3.436  0.00  0.00    +0.179 C 
ATOM      3  C   LIG    1       23.849 -14.806   4.743  0.00  0.00    +0.202 C 
ATOM      4  C   LIG    1       24.659 -15.995   4.215  0.00  0.00    +0.293 C 
ATOM      5  O   LIG    1       25.495 -15.424   3.197  0.00  0.00    -0.340 OA
ENDROOT
BRANCH   2   6
ATOM      6  O   LIG    1       22.428 -14.778   2.797  0.00  0.00    -0.386 OA
ATOM      7  H   LIG    1       21.743 -14.117   2.573  0.00  0.00    +0.210 HD
ENDBRANCH   2   6
BRANCH   3   8
ATOM      8  O   LIG    1       22.701 -15.148   5.517  0.00  0.00    -0.384 OA
ATOM      9  H   LIG    1       23.003 -15.836   6.161  0.00  0.00    +0.210 HD
ENDBRANCH   3   8
BRANCH   1  10
ATOM     10  C   LIG    1       25.764 -13.060   2.816  0.00  0.00    +0.206 C 
BRANCH  10  11
ATOM     11  O   LIG    1       27.106 -13.484   2.615  0.00  0.00    -0.284 OA
BRANCH  11  13
ATOM     12  O   LIG    1       27.545 -12.979   5.158  0.00  0.00    -0.228 OA
ATOM     13  P   LIG    1       28.009 -13.667   3.921  0.00  0.00    +0.472 P 
BRANCH  13  14
ATOM     14  O   LIG    1       28.127 -15.249   4.082  0.00  0.00    -0.303 OA
ATOM     15  H   LIG    1       28.538 -15.652   3.296  0.00  0.00    +0.222 HD
ENDBRANCH  13  14
BRANCH  13  16
ATOM     16  O   LIG    1       29.475 -13.266   3.457  0.00  0.00    -0.303 OA
ATOM     17  H   LIG    1       30.075 -14.031   3.506  0.00  0.00    +0.222 HD
ENDBRANCH  13  16
ENDBRANCH  11  13
ENDBRANCH  10  11
ENDBRANCH   1  10
BRANCH   4  18
ATOM     18  O   LIG    1       23.874 -16.984   3.586  0.00  0.00    -0.254 OA
BRANCH  18  19
ATOM     19  P   LIG    1       24.332 -18.514   3.614  0.00  0.00    +0.486 P 
ATOM     20  O   LIG    1       23.894 -19.308   2.421  0.00  0.00    -0.227 OA
BRANCH  19  21
ATOM     21  O   LIG    1       25.922 -18.330   3.570  0.00  0.00    -0.302 OA
ATOM     22  H   LIG    1       26.219 -17.754   4.298  0.00  0.00    +0.222 HD
ENDBRANCH  19  21
BRANCH  19  23
ATOM     23  O   LIG    1       24.068 -19.114   5.046  0.00  0.00    -0.186 OA
BRANCH  23  24
ATOM     24  P   LIG    1       24.131 -20.639   5.475  0.00  0.00    +0.481 P 
ATOM     25  O   LIG    1       24.244 -20.929   6.927  0.00  0.00    -0.227 OA
BRANCH  24  26
ATOM     26  O   LIG    1       25.382 -21.193   4.647  0.00  0.00    -0.302 OA
ATOM     27  H   LIG    1       25.794 -20.484   4.124  0.00  0.00    +0.222 HD
ENDBRANCH  24  26
BRANCH  24  28
ATOM     28  O   LIG    1       22.912 -21.369   4.757  0.00  0.00    -0.302 OA
ATOM     29  H   LIG    1       22.132 -21.425   5.356  0.00  0.00    +0.222 HD
ENDBRANCH  24  28
ENDBRANCH  23  24
ENDBRANCH  19  23
ENDBRANCH  18  19
ENDBRANCH   4  18
TORSDOF 14
ENDMDL
MODEL 3
REMARK VINA RESULT:      -0.4      3.246      6.187
REMARK  Name = *****
REMARK                            x       y       z     vdW  Elec       q    Type
REMARK                         _______ _______ _______ _____ _____    ______ ____
ROOT
ATOM      1  C   LIG    1       24.765 -20.877   5.969  0.00  0.00    +0.179 C 
ATOM      2  C   LIG    1       24.160 -21.566   4.739  0.00  0.00    +0.179 C 
ATOM      3  C   LIG    1       24.615 -20.650   3.610  0.00  0.00    +0.202 C 
ATOM      4  C   LIG    1       24.450 -19.281   4.279  0.00  0.00    +0.293 C 
ATOM      5  O   LIG    1       24.948 -19.479   5.610  0.00  0.00    -0.340 OA
ENDROOT
BRANCH   2   6
ATOM      6  O   LIG    1       22.724 -21.568   4.788  0.00  0.00    -0.386 OA
ATOM      7  H   LIG    1       22.448 -21.948   5.646  0.00  0.00    +0.210 HD
ENDBRANCH   2   6
BRANCH   3   8
ATOM      8  O   LIG    1       23.885 -20.826   2.398  0.00  0.00    -0.384 OA
ATOM      9  H   LIG    1       24.561 -21.009   1.698  0.00  0.00    +0.210 HD
ENDBRANCH   3   8
BRANCH   1  10
ATOM     10  C   LIG    1       26.135 -21.443   6.347  0.00  0.00    +0.206 C 
BRANCH  10  11
ATOM     11  O   LIG    1       26.887 -20.443   7.021  0.00  0.00    -0.284 OA
BRANCH  11  13
ATOM     12  O   LIG    1       29.065 -18.968   7.062  0.00  0.00    -0.228 OA
ATOM     13  P   LIG    1       28.307 -20.062   6.392  0.00  0.00    +0.472 P 
BRANCH  13  14
ATOM     14  O   LIG    1       29.092 -21.449   6.360  0.00  0.00    -0.303 OA
ATOM     15  H   LIG    1       29.766 -21.455   5.657  0.00  0.00    +0.222 HD
ENDBRANCH  13  14
BRANCH  13  16
ATOM     16  O   LIG    1       28.010 -19.808   4.852  0.00  0.00    -0.303 OA
ATOM     17  H   LIG    1       27.066 -19.935   4.655  0.00  0.00    +0.222 HD
ENDBRANCH  13  16
ENDBRANCH  11  13
ENDBRANCH  10  11
ENDBRANCH   1  10
BRANCH   4  18
ATOM     18  O   LIG    1       23.106 -18.868   4.407  0.00  0.00    -0.254 OA
BRANCH  18  19
ATOM     19  P   LIG    1       22.711 -17.335   4.195  0.00  0.00    +0.486 P 
ATOM     20  O   LIG    1       21.550 -17.122   3.274  0.00  0.00    -0.227 OA
BRANCH  19  21
ATOM     21  O   LIG    1       22.277 -16.951   5.689  0.00  0.00    -0.302 OA
ATOM     22  H   LIG    1       22.413 -17.706   6.289  0.00  0.00    +0.222 HD
ENDBRANCH  19  21
BRANCH  19  23
ATOM     23  O   LIG    1       24.016 -16.485   3.960  0.00  0.00    -0.186 OA
BRANCH  23  24
ATOM     24  P   LIG    1       24.154 -14.906   3.999  0.00  0.00    +0.481 P 
ATOM     25  O   LIG    1       23.812 -14.165   2.759  0.00  0.00    -0.227 OA
BRANCH  24  26
ATOM     26  O   LIG    1       25.679 -14.692   4.433  0.00  0.00    -0.302 OA
ATOM     27  H   LIG    1       25.963 -13.776   4.266  0.00  0.00    +0.222 HD
ENDBRANCH  24  26
BRANCH  24  28
ATOM     28  O   LIG    1       23.371 -14.409   5.293  0.00  0.00    -0.302 OA
ATOM     29  H   LIG    1       22.785 -15.119   5.645  0.00  0.00    +0.222 HD
ENDBRANCH  24  28
ENDBRANCH  23  24
ENDBRANCH  19  23
ENDBRANCH  18  19
ENDBRANCH   4  18
TORSDOF 14
ENDMDL
MODEL 4
REMARK VINA RESULT:      -0.3      2.269      3.986
REMARK  Name = *****
REMARK                            x       y       z     vdW  Elec       q    Type
REMARK                         _______ _______ _______ _____ _____    ______ ____
ROOT
ATOM      1  C   LIG    1       24.768 -16.562   4.027  0.00  0.00    +0.179 C 
ATOM      2  C   LIG    1       25.826 -17.405   3.306  0.00  0.00    +0.179 C 
ATOM      3  C   LIG    1       25.025 -18.636   2.899  0.00  0.00    +0.202 C 
ATOM      4  C   LIG    1       24.151 -18.822   4.144  0.00  0.00    +0.293 C 
ATOM      5  O   LIG    1       23.748 -17.490   4.493  0.00  0.00    -0.340 OA
ENDROOT
BRANCH   2   6
ATOM      6  O   LIG    1       26.879 -17.808   4.197  0.00  0.00    -0.386 OA
ATOM      7  H   LIG    1       26.509 -17.861   5.100  0.00  0.00    +0.210 HD
ENDBRANCH   2   6
BRANCH   3   8
ATOM      8  O   LIG    1       25.832 -19.757   2.548  0.00  0.00    -0.384 OA
ATOM      9  H   LIG    1       25.440 -20.125   1.718  0.00  0.00    +0.210 HD
ENDBRANCH   3   8
BRANCH   1  10
ATOM     10  C   LIG    1       24.088 -15.551   3.102  0.00  0.00    +0.206 C 
BRANCH  10  11
ATOM     11  O   LIG    1       24.263 -14.241   3.626  0.00  0.00    -0.284 OA
BRANCH  11  13
ATOM     12  O   LIG    1       26.381 -14.074   2.075  0.00  0.00    -0.228 OA
ATOM     13  P   LIG    1       25.552 -13.434   3.135  0.00  0.00    +0.472 P 
BRANCH  13  14
ATOM     14  O   LIG    1       24.971 -12.011   2.712  0.00  0.00    -0.303 OA
ATOM     15  H   LIG    1       25.439 -11.657   1.935  0.00  0.00    +0.222 HD
ENDBRANCH  13  14
BRANCH  13  16
ATOM     16  O   LIG    1       26.344 -13.090   4.470  0.00  0.00    -0.303 OA
ATOM     17  H   LIG    1       27.176 -13.593   4.518  0.00  0.00    +0.222 HD
ENDBRANCH  13  16
ENDBRANCH  11  13
ENDBRANCH  10  11
ENDBRANCH   1  10
BRANCH   4  18
ATOM     18  O   LIG    1       24.850 -19.338   5.257  0.00  0.00    -0.254 OA
BRANCH  18  19
ATOM     19  P   LIG    1       24.670 -20.867   5.684  0.00  0.00    +0.486 P 
ATOM     20  O   LIG    1       23.336 -21.182   6.287  0.00  0.00    -0.227 OA
BRANCH  19  21
ATOM     21  O   LIG    1       24.780 -21.571   4.249  0.00  0.00    -0.302 OA
ATOM     22  H   LIG    1       25.652 -21.992   4.141  0.00  0.00    +0.222 HD
ENDBRANCH  19  21
BRANCH  19  23
ATOM     23  O   LIG    1       25.963 -21.357   6.436  0.00  0.00    -0.186 OA
BRANCH  23  24
ATOM     24  P   LIG    1       27.427 -20.756   6.324  0.00  0.00    +0.481 P 
ATOM     25  O   LIG    1       28.537 -21.571   6.877  0.00  0.00    -0.227 OA
BRANCH  24  26
ATOM     26  O   LIG    1       27.289 -19.340   7.056  0.00  0.00    -0.302 OA
ATOM     27  H   LIG    1       28.164 -18.960   7.246  0.00  0.00    +0.222 HD
ENDBRANCH  24  26
BRANCH  24  28
ATOM     28  O   LIG    1       27.629 -20.322   4.805  0.00  0.00    -0.302 OA
ATOM     29  H   LIG    1       27.905 -19.379   4.742  0.00  0.00    +0.222 HD
ENDBRANCH  24  28
ENDBRANCH  23  24
ENDBRANCH  19  23
ENDBRANCH  18  19
ENDBRANCH   4  18
TORSDOF 14
ENDMDL
MODEL 5
REMARK VINA RESULT:      -0.2      1.508      6.246
REMARK  Name = *****
REMARK                            x       y       z     vdW  Elec       q    Type
REMARK                         _______ _______ _______ _____ _____    ______ ____
ROOT
ATOM      1  C   LIG    1       24.004 -14.777   4.431  0.00  0.00    +0.179 C 
ATOM      2  C   LIG    1       23.391 -13.391   4.196  0.00  0.00    +0.179 C 
ATOM      3  C   LIG    1       23.559 -13.225   2.690  0.00  0.00    +0.202 C 
ATOM      4  C   LIG    1       24.946 -13.847   2.494  0.00  0.00    +0.293 C 
ATOM      5  O   LIG    1       24.929 -15.011   3.333  0.00  0.00    -0.340 OA
ENDROOT
BRANCH   2   6
ATOM      6  O   LIG    1       24.138 -12.361   4.864  0.00  0.00    -0.386 OA
ATOM      7  H   LIG    1       24.664 -11.883   4.192  0.00  0.00    +0.210 HD
ENDBRANCH   2   6
BRANCH   3   8
ATOM      8  O   LIG    1       23.427 -11.878   2.242  0.00  0.00    -0.384 OA
ATOM      9  H   LIG    1       22.474 -11.643   2.365  0.00  0.00    +0.210 HD
ENDBRANCH   3   8
BRANCH   1  10
ATOM     10  C   LIG    1       22.961 -15.895   4.406  0.00  0.00    +0.206 C 
BRANCH  10  11
ATOM     11  O   LIG    1       23.599 -17.127   4.095  0.00  0.00    -0.284 OA
BRANCH  11  13
ATOM     12  O   LIG    1       22.580 -18.968   5.673  0.00  0.00    -0.228 OA
ATOM     13  P   LIG    1       22.732 -18.457   4.282  0.00  0.00    +0.472 P 
BRANCH  13  14
ATOM     14  O   LIG    1       21.344 -18.107   3.580  0.00  0.00    -0.303 OA
ATOM     15  H   LIG    1       20.781 -17.567   4.163  0.00  0.00    +0.222 HD
ENDBRANCH  13  14
BRANCH  13  16
ATOM     16  O   LIG    1       23.370 -19.500   3.266  0.00  0.00    -0.303 OA
ATOM     17  H   LIG    1       24.098 -19.093   2.764  0.00  0.00    +0.222 HD
ENDBRANCH  13  16
ENDBRANCH  11  13
ENDBRANCH  10  11
ENDBRANCH   1  10
BRANCH   4  18
ATOM     18  O   LIG    1       26.004 -13.032   2.953  0.00  0.00    -0.254 OA
BRANCH  18  19
ATOM     19  P   LIG    1       27.496 -13.600   2.998  0.00  0.00    +0.486 P 
ATOM     20  O   LIG    1       27.837 -14.519   1.866  0.00  0.00    -0.227 OA
BRANCH  19  21
ATOM     21  O   LIG    1       28.318 -12.234   2.836  0.00  0.00    -0.302 OA
ATOM     22  H   LIG    1       29.269 -12.389   2.984  0.00  0.00    +0.222 HD
ENDBRANCH  19  21
BRANCH  19  23
ATOM     23  O   LIG    1       27.836 -14.064   4.464  0.00  0.00    -0.186 OA
BRANCH  23  24
ATOM     24  P   LIG    1       27.674 -13.225   5.800  0.00  0.00    +0.481 P 
ATOM     25  O   LIG    1       27.468 -13.988   7.057  0.00  0.00    -0.227 OA
BRANCH  24  26
ATOM     26  O   LIG    1       26.446 -12.257   5.468  0.00  0.00    -0.302 OA
ATOM     27  H   LIG    1       26.240 -12.269   4.517  0.00  0.00    +0.222 HD
ENDBRANCH  24  26
BRANCH  24  28
ATOM     28  O   LIG    1       28.894 -12.203   5.850  0.00  0.00    -0.302 OA
ATOM     29  H   LIG    1       29.667 -12.552   5.350  0.00  0.00    +0.222 HD
ENDBRANCH  24  28
ENDBRANCH  23  24
ENDBRANCH  19  23
ENDBRANCH  18  19
ENDBRANCH   4  18
TORSDOF 14
ENDMDL
MODEL 6
REMARK VINA RESULT:       0.1      1.549      6.333
REMARK  Name = *****
REMARK                            x       y       z     vdW  Elec       q    Type
REMARK                         _______ _______ _______ _____ _____    ______ ____
ROOT
ATOM      1  C   LIG    1       23.207 -16.756   4.774  0.00  0.00    +0.179 C 
ATOM      2  C   LIG    1       22.780 -15.283   4.744  0.00  0.00    +0.179 C 
ATOM      3  C   LIG    1       23.210 -14.860   3.344  0.00  0.00    +0.202 C 
ATOM      4  C   LIG    1       24.543 -15.607   3.224  0.00  0.00    +0.293 C 
ATOM      5  O   LIG    1       24.274 -16.896   3.795  0.00  0.00    -0.340 OA
ENDROOT
BRANCH   2   6
ATOM      6  O   LIG    1       23.504 -14.503   5.709  0.00  0.00    -0.386 OA
ATOM      7  H   LIG    1       23.623 -13.603   5.345  0.00  0.00    +0.210 HD
ENDBRANCH   2   6
BRANCH   3   8
ATOM      8  O   LIG    1       23.287 -13.447   3.169  0.00  0.00    -0.384 OA
ATOM      9  H   LIG    1       23.367 -13.064   4.078  0.00  0.00    +0.210 HD
ENDBRANCH   3   8
BRANCH   1  10
ATOM     10  C   LIG    1       22.078 -17.705   4.370  0.00  0.00    +0.206 C 
BRANCH  10  11
ATOM     11  O   LIG    1       22.634 -18.876   3.786  0.00  0.00    -0.284 OA
BRANCH  11  13
ATOM     12  O   LIG    1       22.763 -19.920   6.197  0.00  0.00    -0.228 OA
ATOM     13  P   LIG    1       23.244 -19.963   4.788  0.00  0.00    +0.472 P 
BRANCH  13  14
ATOM     14  O   LIG    1       22.956 -21.352   4.062  0.00  0.00    -0.303 OA
ATOM     15  H   LIG    1       22.566 -21.997   4.679  0.00  0.00    +0.222 HD
ENDBRANCH  13  14
BRANCH  13  16
ATOM     16  O   LIG    1       24.819 -19.820   4.627  0.00  0.00    -0.303 OA
ATOM     17  H   LIG    1       25.129 -20.284   3.830  0.00  0.00    +0.222 HD
ENDBRANCH  13  16
ENDBRANCH  11  13
ENDBRANCH  10  11
ENDBRANCH   1  10
BRANCH   4  18
ATOM     18  O   LIG    1       25.585 -15.037   3.987  0.00  0.00    -0.254 OA
BRANCH  18  19
ATOM     19  P   LIG    1       27.110 -15.312   3.600  0.00  0.00    +0.486 P 
ATOM     20  O   LIG    1       27.477 -16.763   3.547  0.00  0.00    -0.227 OA
BRANCH  19  21
ATOM     21  O   LIG    1       27.136 -14.706   2.118  0.00  0.00    -0.302 OA
ATOM     22  H   LIG    1       27.967 -14.940   1.668  0.00  0.00    +0.222 HD
ENDBRANCH  19  21
BRANCH  19  23
ATOM     23  O   LIG    1       28.042 -14.338   4.415  0.00  0.00    -0.186 OA
BRANCH  23  24
ATOM     24  P   LIG    1       27.926 -12.759   4.516  0.00  0.00    +0.481 P 
ATOM     25  O   LIG    1       29.007 -12.047   5.244  0.00  0.00    -0.227 OA
BRANCH  24  26
ATOM     26  O   LIG    1       26.494 -12.549   5.197  0.00  0.00    -0.302 OA
ATOM     27  H   LIG    1       25.994 -11.846   4.746  0.00  0.00    +0.222 HD
ENDBRANCH  24  26
BRANCH  24  28
ATOM     28  O   LIG    1       27.671 -12.222   3.040  0.00  0.00    -0.302 OA
ATOM     29  H   LIG    1       27.766 -11.242   2.999  0.00  0.00    +0.222 HD
ENDBRANCH  24  28
ENDBRANCH  23  24
ENDBRANCH  19  23
ENDBRANCH  18  19
ENDBRANCH   4  18
TORSDOF 14
ENDMDL
MODEL 7
REMARK VINA RESULT:       0.1      1.965      5.166
REMARK  Name = *****
REMARK                            x       y       z     vdW  Elec       q    Type
REMARK                         _______ _______ _______ _____ _____    ______ ____
ROOT
ATOM      1  C   LIG    1       26.378 -15.563   3.277  0.00  0.00    +0.179 C 
ATOM      2  C   LIG    1       27.468 -14.661   2.686  0.00  0.00    +0.179 C 
ATOM      3  C   LIG    1       28.020 -13.977   3.932  0.00  0.00    +0.202 C 
ATOM      4  C   LIG    1       26.725 -13.744   4.717  0.00  0.00    +0.293 C 
ATOM      5  O   LIG    1       25.984 -14.961   4.541  0.00  0.00    -0.340 OA
ENDROOT
BRANCH   2   6
ATOM      6  O   LIG    1       26.914 -13.663   1.814  0.00  0.00    -0.386 OA
ATOM      7  H   LIG    1       27.649 -13.249   1.319  0.00  0.00    +0.210 HD
ENDBRANCH   2   6
BRANCH   3   8
ATOM      8  O   LIG    1       28.783 -12.805   3.653  0.00  0.00    -0.384 OA
ATOM      9  H   LIG    1       28.129 -12.065   3.586  0.00  0.00    +0.210 HD
ENDBRANCH   3   8
BRANCH   1  10
ATOM     10  C   LIG    1       26.879 -16.978   3.573  0.00  0.00    +0.206 C 
BRANCH  10  11
ATOM     11  O   LIG    1       25.984 -17.923   3.002  0.00  0.00    -0.284 OA
BRANCH  11  13
ATOM     12  O   LIG    1       24.497 -19.259   4.711  0.00  0.00    -0.228 OA
ATOM     13  P   LIG    1       25.707 -19.254   3.843  0.00  0.00    +0.472 P 
BRANCH  13  14
ATOM     14  O   LIG    1       25.701 -20.405   2.739  0.00  0.00    -0.303 OA
ATOM     15  H   LIG    1       25.530 -21.276   3.141  0.00  0.00    +0.222 HD
ENDBRANCH  13  14
BRANCH  13  16
ATOM     16  O   LIG    1       27.069 -19.535   4.613  0.00  0.00    -0.303 OA
ATOM     17  H   LIG    1       27.101 -19.042   5.451  0.00  0.00    +0.222 HD
ENDBRANCH  13  16
ENDBRANCH  11  13
ENDBRANCH  10  11
ENDBRANCH   1  10
BRANCH   4  18
ATOM     18  O   LIG    1       25.924 -12.704   4.197  0.00  0.00    -0.254 OA
BRANCH  18  19
ATOM     19  P   LIG    1       24.331 -12.804   4.264  0.00  0.00    +0.486 P 
ATOM     20  O   LIG    1       23.654 -11.536   4.683  0.00  0.00    -0.227 OA
BRANCH  19  21
ATOM     21  O   LIG    1       24.005 -13.092   2.723  0.00  0.00    -0.302 OA
ATOM     22  H   LIG    1       23.316 -13.776   2.642  0.00  0.00    +0.222 HD
ENDBRANCH  19  21
BRANCH  19  23
ATOM     23  O   LIG    1       23.920 -14.142   4.986  0.00  0.00    -0.186 OA
BRANCH  23  24
ATOM     24  P   LIG    1       22.902 -15.241   4.466  0.00  0.00    +0.481 P 
ATOM     25  O   LIG    1       22.115 -14.912   3.250  0.00  0.00    -0.227 OA
BRANCH  24  26
ATOM     26  O   LIG    1       21.971 -15.498   5.741  0.00  0.00    -0.302 OA
ATOM     27  H   LIG    1       21.691 -14.657   6.142  0.00  0.00    +0.222 HD
ENDBRANCH  24  26
BRANCH  24  28
ATOM     28  O   LIG    1       23.712 -16.608   4.369  0.00  0.00    -0.302 OA
ATOM     29  H   LIG    1       23.569 -17.042   3.497  0.00  0.00    +0.222 HD
ENDBRANCH  24  28
ENDBRANCH  23  24
ENDBRANCH  19  23
ENDBRANCH  18  19
ENDBRANCH   4  18
TORSDOF 14
ENDMDL
MODEL 8
REMARK VINA RESULT:       0.3      1.580      6.202
REMARK  Name = *****
REMARK                            x       y       z     vdW  Elec       q    Type
REMARK                         _______ _______ _______ _____ _____    ______ ____
ROOT
ATOM      1  C   LIG    1       23.464 -17.260   4.517  0.00  0.00    +0.179 C 
ATOM      2  C   LIG    1       22.521 -16.056   4.402  0.00  0.00    +0.179 C 
ATOM      3  C   LIG    1       23.203 -15.225   3.322  0.00  0.00    +0.202 C 
ATOM      4  C   LIG    1       24.673 -15.420   3.707  0.00  0.00    +0.293 C 
ATOM      5  O   LIG    1       24.765 -16.812   4.044  0.00  0.00    -0.340 OA
ENDROOT
BRANCH   2   6
ATOM      6  O   LIG    1       22.484 -15.296   5.621  0.00  0.00    -0.386 OA
ATOM      7  H   LIG    1       23.404 -15.088   5.878  0.00  0.00    +0.210 HD
ENDBRANCH   2   6
BRANCH   3   8
ATOM      8  O   LIG    1       22.760 -13.870   3.275  0.00  0.00    -0.384 OA
ATOM      9  H   LIG    1       21.780 -13.900   3.403  0.00  0.00    +0.210 HD
ENDBRANCH   3   8
BRANCH   1  10
ATOM     10  C   LIG    1       23.030 -18.435   3.638  0.00  0.00    +0.206 C 
BRANCH  10  11
ATOM     11  O   LIG    1       23.077 -19.634   4.399  0.00  0.00    -0.284 OA
BRANCH  11  13
ATOM     12  O   LIG    1       24.851 -21.351   5.306  0.00  0.00    -0.228 OA
ATOM     13  P   LIG    1       24.311 -20.614   4.129  0.00  0.00    +0.472 P 
BRANCH  13  14
ATOM     14  O   LIG    1       23.787 -21.571   2.967  0.00  0.00    -0.303 OA
ATOM     15  H   LIG    1       24.494 -21.761   2.323  0.00  0.00    +0.222 HD
ENDBRANCH  13  14
BRANCH  13  16
ATOM     16  O   LIG    1       25.379 -19.716   3.370  0.00  0.00    -0.303 OA
ATOM     17  H   LIG    1       26.271 -19.857   3.733  0.00  0.00    +0.222 HD
ENDBRANCH  13  16
ENDBRANCH  11  13
ENDBRANCH  10  11
ENDBRANCH   1  10
BRANCH   4  18
ATOM     18  O   LIG    1       25.061 -14.698   4.856  0.00  0.00    -0.254 OA
BRANCH  18  19
ATOM     19  P   LIG    1       25.460 -13.156   4.742  0.00  0.00    +0.486 P 
ATOM     20  O   LIG    1       24.305 -12.211   4.868  0.00  0.00    -0.227 OA
BRANCH  19  21
ATOM     21  O   LIG    1       26.401 -13.015   6.031  0.00  0.00    -0.302 OA
ATOM     22  H   LIG    1       27.335 -12.939   5.766  0.00  0.00    +0.222 HD
ENDBRANCH  19  21
BRANCH  19  23
ATOM     23  O   LIG    1       26.455 -12.960   3.536  0.00  0.00    -0.186 OA
BRANCH  23  24
ATOM     24  P   LIG    1       27.859 -13.666   3.325  0.00  0.00    +0.481 P 
ATOM     25  O   LIG    1       29.072 -12.849   3.579  0.00  0.00    -0.227 OA
BRANCH  24  26
ATOM     26  O   LIG    1       27.777 -14.178   1.812  0.00  0.00    -0.302 OA
ATOM     27  H   LIG    1       28.160 -13.524   1.202  0.00  0.00    +0.222 HD
ENDBRANCH  24  26
BRANCH  24  28
ATOM     28  O   LIG    1       27.812 -15.034   4.138  0.00  0.00    -0.302 OA
ATOM     29  H   LIG    1       27.571 -14.876   5.080  0.00  0.00    +0.222 HD
ENDBRANCH  24  28
ENDBRANCH  23  24
ENDBRANCH  19  23
ENDBRANCH  18  19
ENDBRANCH   4  18
TORSDOF 14
ENDMDL
MODEL 9
REMARK VINA RESULT:       0.5      2.044      3.674
REMARK  Name = *****
REMARK                            x       y       z     vdW  Elec       q    Type
REMARK                         _______ _______ _______ _____ _____    ______ ____
ROOT
ATOM      1  C   LIG    1       25.943 -14.829   3.246  0.00  0.00    +0.179 C 
ATOM      2  C   LIG    1       27.078 -15.185   4.215  0.00  0.00    +0.179 C 
ATOM      3  C   LIG    1       27.662 -16.435   3.569  0.00  0.00    +0.202 C 
ATOM      4  C   LIG    1       26.380 -17.129   3.096  0.00  0.00    +0.293 C 
ATOM      5  O   LIG    1       25.580 -16.063   2.565  0.00  0.00    -0.340 OA
ENDROOT
BRANCH   2   6
ATOM      6  O   LIG    1       26.574 -15.525   5.517  0.00  0.00    -0.386 OA
ATOM      7  H   LIG    1       25.834 -14.921   5.724  0.00  0.00    +0.210 HD
ENDBRANCH   2   6
BRANCH   3   8
ATOM      8  O   LIG    1       28.483 -17.205   4.445  0.00  0.00    -0.384 OA
ATOM      9  H   LIG    1       29.411 -16.900   4.285  0.00  0.00    +0.210 HD
ENDBRANCH   3   8
BRANCH   1  10
ATOM     10  C   LIG    1       26.373 -13.820   2.180  0.00  0.00    +0.206 C 
BRANCH  10  11
ATOM     11  O   LIG    1       25.703 -12.586   2.403  0.00  0.00    -0.284 OA
BRANCH  11  13
ATOM     12  O   LIG    1       24.418 -12.599   4.699  0.00  0.00    -0.228 OA
ATOM     13  P   LIG    1       24.325 -12.648   3.213  0.00  0.00    +0.472 P 
BRANCH  13  14
ATOM     14  O   LIG    1       23.466 -11.458   2.591  0.00  0.00    -0.303 OA
ATOM     15  H   LIG    1       23.885 -10.595   2.763  0.00  0.00    +0.222 HD
ENDBRANCH  13  14
BRANCH  13  16
ATOM     16  O   LIG    1       23.582 -13.932   2.643  0.00  0.00    -0.303 OA
ATOM     17  H   LIG    1       22.720 -13.692   2.261  0.00  0.00    +0.222 HD
ENDBRANCH  13  16
ENDBRANCH  11  13
ENDBRANCH  10  11
ENDBRANCH   1  10
BRANCH   4  18
ATOM     18  O   LIG    1       25.633 -17.716   4.140  0.00  0.00    -0.254 OA
BRANCH  18  19
ATOM     19  P   LIG    1       25.363 -19.290   4.151  0.00  0.00    +0.486 P 
ATOM     20  O   LIG    1       24.913 -19.845   2.835  0.00  0.00    -0.227 OA
BRANCH  19  21
ATOM     21  O   LIG    1       26.839 -19.824   4.472  0.00  0.00    -0.302 OA
ATOM     22  H   LIG    1       27.269 -20.146   3.660  0.00  0.00    +0.222 HD
ENDBRANCH  19  21
BRANCH  19  23
ATOM     23  O   LIG    1       24.543 -19.672   5.440  0.00  0.00    -0.186 OA
BRANCH  23  24
ATOM     24  P   LIG    1       23.181 -20.480   5.509  0.00  0.00    +0.481 P 
ATOM     25  O   LIG    1       22.822 -21.092   6.813  0.00  0.00    -0.227 OA
BRANCH  24  26
ATOM     26  O   LIG    1       23.354 -21.572   4.353  0.00  0.00    -0.302 OA
ATOM     27  H   LIG    1       22.541 -22.096   4.244  0.00  0.00    +0.222 HD
ENDBRANCH  24  26
BRANCH  24  28
ATOM     28  O   LIG    1       22.055 -19.533   4.901  0.00  0.00    -0.302 OA
ATOM     29  H   LIG    1       22.377 -19.079   4.088  0.00  0.00    +0.222 HD
ENDBRANCH  24  28
ENDBRANCH  23  24
ENDBRANCH  19  23
ENDBRANCH  18  19
ENDBRANCH   4  18
TORSDOF 14
ENDMDL
