MODEL 1
REMARK VINA RESULT:       7.5      0.000      0.000
REMARK  Name = *****
REMARK                            x       y       z     vdW  Elec       q    Type
REMARK                         _______ _______ _______ _____ _____    ______ ____
ROOT
ATOM      1  C   LIG    1       24.732 -12.130   5.943  0.00  0.00    +0.011 C 
ATOM      2  C   LIG    1       24.787 -13.607   5.565  0.00  0.00    +0.026 C 
ATOM      3  C   LIG    1       26.110 -14.165   4.948  0.00  0.00    +0.134 C 
ATOM      4  C   LIG    1       25.738 -14.523   3.464  0.00  0.00    +0.010 C 
ATOM      5  C   LIG    1       24.255 -14.959   3.567  0.00  0.00    +0.005 C 
ATOM      6  C   LIG    1       23.992 -16.425   4.016  0.00  0.00    +0.036 C 
ATOM      7  C   LIG    1       24.882 -17.463   3.285  0.00  0.00    +0.153 C 
ATOM      8  C   LIG    1       26.370 -17.046   3.294  0.00  0.00    +0.154 C 
ATOM      9  F   LIG    1       24.490 -17.396   1.958  0.00  0.00    -0.238 F 
ATOM     10  C   LIG    1       24.595 -18.956   3.788  0.00  0.00    +0.047 C 
ATOM     11  C   LIG    1       23.126 -19.078   4.225  0.00  0.00    -0.020 C 
ATOM     12  C   LIG    1       22.710 -19.806   5.276  0.00  0.00    +0.054 C 
ATOM     13  C   LIG    1       23.672 -20.482   6.169  0.00  0.00    +0.179 C 
ATOM     14  C   LIG    1       25.100 -20.148   5.977  0.00  0.00    +0.047 C 
ATOM     15  O   LIG    1       23.306 -21.230   7.062  0.00  0.00    -0.288 OA
ATOM     16  C   LIG    1       22.177 -18.204   3.464  0.00  0.00    +0.194 C 
ATOM     17  F   LIG    1       20.878 -18.452   3.794  0.00  0.00    -0.241 F 
ATOM     18  C   LIG    1       24.808 -19.961   2.627  0.00  0.00    +0.023 C 
ATOM     19  C   LIG    1       25.508 -19.437   4.914  0.00  0.00    -0.009 C 
ATOM     20  C   LIG    1       22.481 -16.747   3.805  0.00  0.00    +0.048 C 
ATOM     21  C   LIG    1       25.825 -13.269   2.546  0.00  0.00    +0.015 C 
ATOM     22  C   LIG    1       26.583 -15.619   2.788  0.00  0.00    +0.044 C 
ATOM     23  C   LIG    1       23.667 -13.940   4.555  0.00  0.00    +0.011 C 
ENDROOT
BRANCH   3  24
ATOM     24  O   LIG    1       26.358 -15.386   5.663  0.00  0.00    -0.380 OA
ATOM     25  H   LIG    1       26.243 -16.131   5.038  0.00  0.00    +0.211 HD
ENDBRANCH   3  24
BRANCH   3  26
ATOM     26  C   LIG    1       27.376 -13.264   5.047  0.00  0.00    +0.190 C 
ATOM     27  O   LIG    1       27.903 -12.949   6.117  0.00  0.00    -0.292 OA
BRANCH  26  28
ATOM     28  C   LIG    1       27.986 -12.766   3.743  0.00  0.00    +0.233 C 
BRANCH  28  29
ATOM     29  O   LIG    1       29.284 -13.312   3.567  0.00  0.00    -0.387 OA
ATOM     30  H   LIG    1       29.282 -14.180   4.015  0.00  0.00    +0.210 HD
ENDBRANCH  28  29
ENDBRANCH  26  28
ENDBRANCH   3  26
BRANCH   8  31
ATOM     31  O   LIG    1       27.150 -17.908   2.455  0.00  0.00    -0.389 OA
ATOM     32  H   LIG    1       27.408 -18.677   2.999  0.00  0.00    +0.210 HD
ENDBRANCH   8  31
TORSDOF 5
ENDMDL
