MODEL 1
REMARK VINA RESULT:     -11.0      0.000      0.000
REMARK  Name = *****
REMARK                            x       y       z     vdW  Elec       q    Type
REMARK                         _______ _______ _______ _____ _____    ______ ____
ROOT
ATOM      1  O   LIG    1       26.457 -20.127   7.144  0.00  0.00    -0.458 OA
ENDROOT
BRANCH   1   2
ATOM      2  C   LIG    1       27.683 -20.778   6.753  0.00  0.00    +0.180 C 
ATOM      3  C   LIG    1       28.600 -19.650   6.055  0.00  0.00    +0.063 C 
ATOM      4  C   LIG    1       29.583 -18.872   7.018  0.00  0.00    +0.061 C 
ATOM      5  N   LIG    1       29.256 -19.411   8.330  0.00  0.00    -0.289 NA
ATOM      6  C   LIG    1       29.660 -20.832   8.156  0.00  0.00    +0.061 C 
ATOM      7  C   LIG    1       31.052 -21.051   8.692  0.00  0.00    +0.030 C 
ATOM      8  C   LIG    1       31.787 -19.750   8.175  0.00  0.00    +0.060 C 
ATOM      9  C   LIG    1       31.419 -18.739   9.230  0.00  0.00    +0.150 C 
ATOM     10  O   LIG    1       32.236 -18.074   9.856  0.00  0.00    -0.296 OA
ATOM     11  C   LIG    1       29.915 -18.669   9.431  0.00  0.00    +0.159 C 
ATOM     12  C   LIG    1       31.146 -19.129   6.845  0.00  0.00    +0.030 C 
ATOM     13  C   LIG    1       28.346 -21.531   7.995  0.00  0.00    +0.063 C 
ENDBRANCH   1   2
BRANCH   1  15
ATOM     14  O   LIG    1       25.869 -20.561   9.313  0.00  0.00    -0.245 OA
ATOM     15  C   LIG    1       25.722 -20.744   8.116  0.00  0.00    +0.342 C 
BRANCH  15  16
ATOM     16  C   LIG    1       24.719 -21.634   7.544  0.00  0.00    +0.084 C 
ATOM     17  C   LIG    1       24.893 -22.996   7.135  0.00  0.00    +0.014 C 
ATOM     18  C   LIG    1       23.648 -23.470   6.717  0.00  0.00    +0.047 C 
ATOM     19  C   LIG    1       23.437 -24.793   6.310  0.00  0.00    +0.026 C 
ATOM     20  C   LIG    1       24.533 -25.660   6.334  0.00  0.00    +0.002 C 
ATOM     21  C   LIG    1       25.792 -25.215   6.729  0.00  0.00    +0.001 C 
ATOM     22  N   LIG    1       22.763 -22.422   6.805  0.00  0.00    -0.360 NA
ATOM     23  H   LIG    1       21.786 -22.474   6.553  0.00  0.00    +0.165 HD
ATOM     24  C   LIG    1       25.986 -23.887   7.127  0.00  0.00    +0.011 C 
ATOM     25  C   LIG    1       23.389 -21.319   7.318  0.00  0.00    +0.098 C 
ENDBRANCH  15  16
ENDBRANCH   1  15
TORSDOF 3
ENDMDL
MODEL 2
REMARK VINA RESULT:     -10.0      4.492      6.673
REMARK  Name = *****
REMARK                            x       y       z     vdW  Elec       q    Type
REMARK                         _______ _______ _______ _____ _____    ______ ____
ROOT
ATOM      1  O   LIG    1       25.835 -25.428   5.443  0.00  0.00    -0.458 OA
ENDROOT
BRANCH   1   2
ATOM      2  C   LIG    1       25.316 -24.840   6.654  0.00  0.00    +0.180 C 
ATOM      3  C   LIG    1       26.177 -23.503   6.921  0.00  0.00    +0.063 C 
ATOM      4  C   LIG    1       25.596 -22.175   6.292  0.00  0.00    +0.061 C 
ATOM      5  N   LIG    1       24.431 -22.640   5.554  0.00  0.00    -0.289 NA
ATOM      6  C   LIG    1       23.581 -23.146   6.666  0.00  0.00    +0.061 C 
ATOM      7  C   LIG    1       22.583 -22.096   7.083  0.00  0.00    +0.030 C 
ATOM      8  C   LIG    1       23.477 -20.791   7.044  0.00  0.00    +0.060 C 
ATOM      9  C   LIG    1       23.429 -20.419   5.585  0.00  0.00    +0.150 C 
ATOM     10  O   LIG    1       23.084 -19.319   5.170  0.00  0.00    -0.296 OA
ATOM     11  C   LIG    1       23.838 -21.583   4.700  0.00  0.00    +0.159 C 
ATOM     12  C   LIG    1       25.035 -21.067   7.292  0.00  0.00    +0.030 C 
ATOM     13  C   LIG    1       23.736 -24.630   6.550  0.00  0.00    +0.063 C 
ENDBRANCH   1   2
BRANCH   1  15
ATOM     14  O   LIG    1       27.645 -26.828   5.369  0.00  0.00    -0.245 OA
ATOM     15  C   LIG    1       26.457 -26.638   5.571  0.00  0.00    +0.342 C 
BRANCH  15  16
ATOM     16  C   LIG    1       25.527 -27.674   6.005  0.00  0.00    +0.084 C 
ATOM     17  C   LIG    1       25.507 -28.356   7.264  0.00  0.00    +0.014 C 
ATOM     18  C   LIG    1       24.402 -29.209   7.262  0.00  0.00    +0.047 C 
ATOM     19  C   LIG    1       24.039 -29.985   8.369  0.00  0.00    +0.026 C 
ATOM     20  C   LIG    1       24.831 -29.884   9.517  0.00  0.00    +0.002 C 
ATOM     21  C   LIG    1       25.950 -29.057   9.548  0.00  0.00    +0.001 C 
ATOM     22  N   LIG    1       23.808 -29.101   6.027  0.00  0.00    -0.360 NA
ATOM     23  H   LIG    1       22.989 -29.617   5.738  0.00  0.00    +0.165 HD
ATOM     24  C   LIG    1       26.301 -28.292   8.429  0.00  0.00    +0.011 C 
ATOM     25  C   LIG    1       24.462 -28.169   5.269  0.00  0.00    +0.098 C 
ENDBRANCH  15  16
ENDBRANCH   1  15
TORSDOF 3
ENDMDL
MODEL 3
REMARK VINA RESULT:     -10.0      2.025      7.568
REMARK  Name = *****
REMARK                            x       y       z     vdW  Elec       q    Type
REMARK                         _______ _______ _______ _____ _____    ______ ____
ROOT
ATOM      1  O   LIG    1       28.487 -20.769   6.744  0.00  0.00    -0.458 OA
ENDROOT
BRANCH   1   2
ATOM      2  C   LIG    1       27.244 -20.042   6.828  0.00  0.00    +0.180 C 
ATOM      3  C   LIG    1       26.445 -20.337   5.458  0.00  0.00    +0.063 C 
ATOM      4  C   LIG    1       25.464 -21.576   5.489  0.00  0.00    +0.061 C 
ATOM      5  N   LIG    1       25.679 -22.136   6.815  0.00  0.00    -0.289 NA
ATOM      6  C   LIG    1       25.191 -21.020   7.671  0.00  0.00    +0.061 C 
ATOM      7  C   LIG    1       23.760 -21.259   8.078  0.00  0.00    +0.030 C 
ATOM      8  C   LIG    1       23.144 -21.804   6.727  0.00  0.00    +0.060 C 
ATOM      9  C   LIG    1       23.519 -23.262   6.775  0.00  0.00    +0.150 C 
ATOM     10  O   LIG    1       22.714 -24.180   6.665  0.00  0.00    -0.296 OA
ATOM     11  C   LIG    1       25.010 -23.446   6.996  0.00  0.00    +0.159 C 
ATOM     12  C   LIG    1       23.899 -21.283   5.415  0.00  0.00    +0.030 C 
ATOM     13  C   LIG    1       26.462 -20.409   8.171  0.00  0.00    +0.063 C 
ENDBRANCH   1   2
BRANCH   1  15
ATOM     14  O   LIG    1       29.125 -21.630   8.767  0.00  0.00    -0.245 OA
ATOM     15  C   LIG    1       29.249 -20.805   7.877  0.00  0.00    +0.342 C 
BRANCH  15  16
ATOM     16  C   LIG    1       30.252 -19.747   7.880  0.00  0.00    +0.084 C 
ATOM     17  C   LIG    1       30.433 -18.720   8.862  0.00  0.00    +0.014 C 
ATOM     18  C   LIG    1       31.556 -17.978   8.491  0.00  0.00    +0.047 C 
ATOM     19  C   LIG    1       32.064 -16.929   9.267  0.00  0.00    +0.026 C 
ATOM     20  C   LIG    1       31.404 -16.630  10.463  0.00  0.00    +0.002 C 
ATOM     21  C   LIG    1       30.271 -17.339  10.854  0.00  0.00    +0.001 C 
ATOM     22  N   LIG    1       32.004 -18.489   7.296  0.00  0.00    -0.360 NA
ATOM     23  H   LIG    1       32.801 -18.135   6.785  0.00  0.00    +0.165 HD
ATOM     24  C   LIG    1       29.774 -18.381  10.063  0.00  0.00    +0.011 C 
ATOM     25  C   LIG    1       31.242 -19.562   6.928  0.00  0.00    +0.098 C 
ENDBRANCH  15  16
ENDBRANCH   1  15
TORSDOF 3
ENDMDL
MODEL 4
REMARK VINA RESULT:      -9.5      1.958      2.876
REMARK  Name = *****
REMARK                            x       y       z     vdW  Elec       q    Type
REMARK                         _______ _______ _______ _____ _____    ______ ____
ROOT
ATOM      1  O   LIG    1       27.106 -21.503   7.729  0.00  0.00    -0.458 OA
ENDROOT
BRANCH   1   2
ATOM      2  C   LIG    1       28.465 -21.626   7.261  0.00  0.00    +0.180 C 
ATOM      3  C   LIG    1       28.727 -20.376   6.276  0.00  0.00    +0.063 C 
ATOM      4  C   LIG    1       29.316 -19.078   6.956  0.00  0.00    +0.061 C 
ATOM      5  N   LIG    1       29.355 -19.432   8.368  0.00  0.00    -0.289 NA
ATOM      6  C   LIG    1       30.344 -20.545   8.347  0.00  0.00    +0.061 C 
ATOM      7  C   LIG    1       31.717 -20.032   8.697  0.00  0.00    +0.030 C 
ATOM      8  C   LIG    1       31.752 -18.672   7.891  0.00  0.00    +0.060 C 
ATOM      9  C   LIG    1       31.039 -17.732   8.827  0.00  0.00    +0.150 C 
ATOM     10  O   LIG    1       31.509 -16.670   9.220  0.00  0.00    -0.296 OA
ATOM     11  C   LIG    1       29.682 -18.276   9.237  0.00  0.00    +0.159 C 
ATOM     12  C   LIG    1       30.813 -18.666   6.594  0.00  0.00    +0.030 C 
ATOM     13  C   LIG    1       29.477 -21.757   8.489  0.00  0.00    +0.063 C 
ENDBRANCH   1   2
BRANCH   1  15
ATOM     14  O   LIG    1       26.356 -23.532   6.980  0.00  0.00    -0.245 OA
ATOM     15  C   LIG    1       26.187 -22.337   7.159  0.00  0.00    +0.342 C 
BRANCH  15  16
ATOM     16  C   LIG    1       24.962 -21.626   6.812  0.00  0.00    +0.084 C 
ATOM     17  C   LIG    1       24.756 -20.728   5.715  0.00  0.00    +0.014 C 
ATOM     18  C   LIG    1       23.414 -20.344   5.734  0.00  0.00    +0.047 C 
ATOM     19  C   LIG    1       22.847 -19.516   4.757  0.00  0.00    +0.026 C 
ATOM     20  C   LIG    1       23.679 -19.069   3.726  0.00  0.00    +0.002 C 
ATOM     21  C   LIG    1       25.026 -19.419   3.687  0.00  0.00    +0.001 C 
ATOM     22  N   LIG    1       22.838 -20.931   6.835  0.00  0.00    -0.360 NA
ATOM     23  H   LIG    1       21.872 -20.816   7.106  0.00  0.00    +0.165 HD
ATOM     24  C   LIG    1       25.577 -20.242   4.675  0.00  0.00    +0.011 C 
ATOM     25  C   LIG    1       23.752 -21.718   7.481  0.00  0.00    +0.098 C 
ENDBRANCH  15  16
ENDBRANCH   1  15
TORSDOF 3
ENDMDL
MODEL 5
REMARK VINA RESULT:      -9.5      2.170      7.677
REMARK  Name = *****
REMARK                            x       y       z     vdW  Elec       q    Type
REMARK                         _______ _______ _______ _____ _____    ______ ____
ROOT
ATOM      1  O   LIG    1       28.333 -20.567   8.017  0.00  0.00    -0.458 OA
ENDROOT
BRANCH   1   2
ATOM      2  C   LIG    1       27.305 -21.535   8.311  0.00  0.00    +0.180 C 
ATOM      3  C   LIG    1       25.983 -20.698   8.701  0.00  0.00    +0.063 C 
ATOM      4  C   LIG    1       25.008 -20.357   7.505  0.00  0.00    +0.061 C 
ATOM      5  N   LIG    1       25.714 -20.877   6.343  0.00  0.00    -0.289 NA
ATOM      6  C   LIG    1       25.725 -22.333   6.653  0.00  0.00    +0.061 C 
ATOM      7  C   LIG    1       24.583 -23.025   5.954  0.00  0.00    +0.030 C 
ATOM      8  C   LIG    1       23.414 -21.983   6.169  0.00  0.00    +0.060 C 
ATOM      9  C   LIG    1       23.653 -21.004   5.050  0.00  0.00    +0.150 C 
ATOM     10  O   LIG    1       22.805 -20.687   4.224  0.00  0.00    -0.296 OA
ATOM     11  C   LIG    1       25.079 -20.480   5.064  0.00  0.00    +0.159 C 
ATOM     12  C   LIG    1       23.587 -21.078   7.479  0.00  0.00    +0.030 C 
ATOM     13  C   LIG    1       27.134 -22.564   7.101  0.00  0.00    +0.063 C 
ENDBRANCH   1   2
BRANCH   1  15
ATOM     14  O   LIG    1       29.891 -21.852   9.095  0.00  0.00    -0.245 OA
ATOM     15  C   LIG    1       29.569 -20.812   8.546  0.00  0.00    +0.342 C 
BRANCH  15  16
ATOM     16  C   LIG    1       30.468 -19.681   8.348  0.00  0.00    +0.084 C 
ATOM     17  C   LIG    1       30.695 -18.582   9.238  0.00  0.00    +0.014 C 
ATOM     18  C   LIG    1       31.688 -17.781   8.670  0.00  0.00    +0.047 C 
ATOM     19  C   LIG    1       32.206 -16.648   9.308  0.00  0.00    +0.026 C 
ATOM     20  C   LIG    1       31.694 -16.323  10.568  0.00  0.00    +0.002 C 
ATOM     21  C   LIG    1       30.692 -17.090  11.155  0.00  0.00    +0.001 C 
ATOM     22  N   LIG    1       32.009 -18.333   7.453  0.00  0.00    -0.360 NA
ATOM     23  H   LIG    1       32.693 -17.953   6.814  0.00  0.00    +0.165 HD
ATOM     24  C   LIG    1       30.181 -18.217  10.500  0.00  0.00    +0.011 C 
ATOM     25  C   LIG    1       31.297 -19.484   7.255  0.00  0.00    +0.098 C 
ENDBRANCH  15  16
ENDBRANCH   1  15
TORSDOF 3
ENDMDL
MODEL 6
REMARK VINA RESULT:      -9.1      2.413      7.989
REMARK  Name = *****
REMARK                            x       y       z     vdW  Elec       q    Type
REMARK                         _______ _______ _______ _____ _____    ______ ____
ROOT
ATOM      1  O   LIG    1       29.230 -19.555   8.373  0.00  0.00    -0.458 OA
ENDROOT
BRANCH   1   2
ATOM      2  C   LIG    1       28.977 -20.359   7.202  0.00  0.00    +0.180 C 
ATOM      3  C   LIG    1       28.480 -21.799   7.732  0.00  0.00    +0.063 C 
ATOM      4  C   LIG    1       26.918 -21.964   7.908  0.00  0.00    +0.061 C 
ATOM      5  N   LIG    1       26.407 -20.639   7.589  0.00  0.00    -0.289 NA
ATOM      6  C   LIG    1       26.795 -20.527   6.157  0.00  0.00    +0.061 C 
ATOM      7  C   LIG    1       25.639 -20.910   5.269  0.00  0.00    +0.030 C 
ATOM      8  C   LIG    1       25.066 -22.168   6.038  0.00  0.00    +0.060 C 
ATOM      9  C   LIG    1       24.195 -21.527   7.087  0.00  0.00    +0.150 C 
ATOM     10  O   LIG    1       23.011 -21.796   7.251  0.00  0.00    -0.296 OA
ATOM     11  C   LIG    1       24.963 -20.496   7.894  0.00  0.00    +0.159 C 
ATOM     12  C   LIG    1       26.160 -22.948   6.908  0.00  0.00    +0.030 C 
ATOM     13  C   LIG    1       27.978 -19.611   6.206  0.00  0.00    +0.063 C 
ENDBRANCH   1   2
BRANCH   1  15
ATOM     14  O   LIG    1       30.809 -20.825   9.439  0.00  0.00    -0.245 OA
ATOM     15  C   LIG    1       30.428 -19.752   9.000  0.00  0.00    +0.342 C 
BRANCH  15  16
ATOM     16  C   LIG    1       31.209 -18.523   9.059  0.00  0.00    +0.084 C 
ATOM     17  C   LIG    1       31.473 -17.712  10.210  0.00  0.00    +0.014 C 
ATOM     18  C   LIG    1       32.321 -16.677   9.809  0.00  0.00    +0.047 C 
ATOM     19  C   LIG    1       32.837 -15.730  10.701  0.00  0.00    +0.026 C 
ATOM     20  C   LIG    1       32.476 -15.843  12.047  0.00  0.00    +0.002 C 
ATOM     21  C   LIG    1       31.619 -16.852  12.477  0.00  0.00    +0.001 C 
ATOM     22  N   LIG    1       32.515 -16.813   8.455  0.00  0.00    -0.360 NA
ATOM     23  H   LIG    1       33.079 -16.192   7.892  0.00  0.00    +0.165 HD
ATOM     24  C   LIG    1       31.107 -17.788  11.571  0.00  0.00    +0.011 C 
ATOM     25  C   LIG    1       31.868 -17.927   7.996  0.00  0.00    +0.098 C 
ENDBRANCH  15  16
ENDBRANCH   1  15
TORSDOF 3
ENDMDL
MODEL 7
REMARK VINA RESULT:      -8.8      3.027      7.183
REMARK  Name = *****
REMARK                            x       y       z     vdW  Elec       q    Type
REMARK                         _______ _______ _______ _____ _____    ______ ____
ROOT
ATOM      1  O   LIG    1       24.165 -22.891   6.793  0.00  0.00    -0.458 OA
ENDROOT
BRANCH   1   2
ATOM      2  C   LIG    1       25.253 -23.371   5.976  0.00  0.00    +0.180 C 
ATOM      3  C   LIG    1       26.188 -24.267   6.937  0.00  0.00    +0.063 C 
ATOM      4  C   LIG    1       25.842 -25.808   6.990  0.00  0.00    +0.061 C 
ATOM      5  N   LIG    1       24.653 -25.909   6.156  0.00  0.00    -0.289 NA
ATOM      6  C   LIG    1       25.207 -25.509   4.833  0.00  0.00    +0.061 C 
ATOM      7  C   LIG    1       25.569 -26.730   4.026  0.00  0.00    +0.030 C 
ATOM      8  C   LIG    1       26.231 -27.644   5.133  0.00  0.00    +0.060 C 
ATOM      9  C   LIG    1       25.028 -28.286   5.773  0.00  0.00    +0.150 C 
ATOM     10  O   LIG    1       24.881 -29.497   5.894  0.00  0.00    -0.296 OA
ATOM     11  C   LIG    1       24.018 -27.247   6.227  0.00  0.00    +0.159 C 
ATOM     12  C   LIG    1       26.886 -26.824   6.342  0.00  0.00    +0.030 C 
ATOM     13  C   LIG    1       24.699 -24.110   4.673  0.00  0.00    +0.063 C 
ENDBRANCH   1   2
BRANCH   1  15
ATOM     14  O   LIG    1       23.212 -20.974   7.606  0.00  0.00    -0.245 OA
ATOM     15  C   LIG    1       24.057 -21.535   6.927  0.00  0.00    +0.342 C 
BRANCH  15  16
ATOM     16  C   LIG    1       25.094 -20.839   6.176  0.00  0.00    +0.084 C 
ATOM     17  C   LIG    1       26.395 -20.455   6.637  0.00  0.00    +0.014 C 
ATOM     18  C   LIG    1       27.069 -19.880   5.558  0.00  0.00    +0.047 C 
ATOM     19  C   LIG    1       28.399 -19.449   5.636  0.00  0.00    +0.026 C 
ATOM     20  C   LIG    1       29.061 -19.612   6.856  0.00  0.00    +0.002 C 
ATOM     21  C   LIG    1       28.413 -20.164   7.957  0.00  0.00    +0.001 C 
ATOM     22  N   LIG    1       26.194 -19.856   4.498  0.00  0.00    -0.360 NA
ATOM     23  H   LIG    1       26.410 -19.481   3.585  0.00  0.00    +0.165 HD
ATOM     24  C   LIG    1       27.081 -20.585   7.863  0.00  0.00    +0.011 C 
ATOM     25  C   LIG    1       25.011 -20.445   4.850  0.00  0.00    +0.098 C 
ENDBRANCH  15  16
ENDBRANCH   1  15
TORSDOF 3
ENDMDL
MODEL 8
REMARK VINA RESULT:      -8.7      4.433      6.740
REMARK  Name = *****
REMARK                            x       y       z     vdW  Elec       q    Type
REMARK                         _______ _______ _______ _____ _____    ______ ____
ROOT
ATOM      1  O   LIG    1       26.272 -25.221   5.940  0.00  0.00    -0.458 OA
ENDROOT
BRANCH   1   2
ATOM      2  C   LIG    1       25.416 -24.598   6.919  0.00  0.00    +0.180 C 
ATOM      3  C   LIG    1       26.120 -23.205   7.325  0.00  0.00    +0.063 C 
ATOM      4  C   LIG    1       25.690 -21.944   6.475  0.00  0.00    +0.061 C 
ATOM      5  N   LIG    1       24.794 -22.509   5.476  0.00  0.00    -0.289 NA
ATOM      6  C   LIG    1       23.687 -22.999   6.341  0.00  0.00    +0.061 C 
ATOM      7  C   LIG    1       22.576 -21.982   6.396  0.00  0.00    +0.030 C 
ATOM      8  C   LIG    1       23.397 -20.637   6.519  0.00  0.00    +0.060 C 
ATOM      9  C   LIG    1       23.744 -20.346   5.082  0.00  0.00    +0.150 C 
ATOM     10  O   LIG    1       23.489 -19.289   4.517  0.00  0.00    -0.296 OA
ATOM     11  C   LIG    1       24.426 -21.532   4.423  0.00  0.00    +0.159 C 
ATOM     12  C   LIG    1       24.833 -20.816   7.205  0.00  0.00    +0.030 C 
ATOM     13  C   LIG    1       23.921 -24.477   6.370  0.00  0.00    +0.063 C 
ENDBRANCH   1   2
BRANCH   1  15
ATOM     14  O   LIG    1       25.702 -26.792   4.376  0.00  0.00    -0.245 OA
ATOM     15  C   LIG    1       25.920 -26.477   5.534  0.00  0.00    +0.342 C 
BRANCH  15  16
ATOM     16  C   LIG    1       25.860 -27.405   6.657  0.00  0.00    +0.084 C 
ATOM     17  C   LIG    1       25.142 -28.643   6.728  0.00  0.00    +0.014 C 
ATOM     18  C   LIG    1       25.434 -29.226   7.963  0.00  0.00    +0.047 C 
ATOM     19  C   LIG    1       24.950 -30.484   8.341  0.00  0.00    +0.026 C 
ATOM     20  C   LIG    1       24.143 -31.169   7.428  0.00  0.00    +0.002 C 
ATOM     21  C   LIG    1       23.819 -30.608   6.195  0.00  0.00    +0.001 C 
ATOM     22  N   LIG    1       26.245 -28.351   8.644  0.00  0.00    -0.360 NA
ATOM     23  H   LIG    1       26.603 -28.508   9.576  0.00  0.00    +0.165 HD
ATOM     24  C   LIG    1       24.307 -29.347   5.836  0.00  0.00    +0.011 C 
ATOM     25  C   LIG    1       26.524 -27.262   7.865  0.00  0.00    +0.098 C 
ENDBRANCH  15  16
ENDBRANCH   1  15
TORSDOF 3
ENDMDL
MODEL 9
REMARK VINA RESULT:      -8.5      1.275      1.994
REMARK  Name = *****
REMARK                            x       y       z     vdW  Elec       q    Type
REMARK                         _______ _______ _______ _____ _____    ______ ____
ROOT
ATOM      1  O   LIG    1       26.377 -21.897   6.862  0.00  0.00    -0.458 OA
ENDROOT
BRANCH   1   2
ATOM      2  C   LIG    1       26.855 -20.553   6.651  0.00  0.00    +0.180 C 
ATOM      3  C   LIG    1       27.015 -19.888   8.111  0.00  0.00    +0.063 C 
ATOM      4  C   LIG    1       28.435 -20.048   8.787  0.00  0.00    +0.061 C 
ATOM      5  N   LIG    1       29.163 -20.875   7.836  0.00  0.00    -0.289 NA
ATOM      6  C   LIG    1       29.209 -19.968   6.656  0.00  0.00    +0.061 C 
ATOM      7  C   LIG    1       30.516 -19.219   6.621  0.00  0.00    +0.030 C 
ATOM      8  C   LIG    1       30.702 -18.855   8.149  0.00  0.00    +0.060 C 
ATOM      9  C   LIG    1       31.310 -20.118   8.702  0.00  0.00    +0.150 C 
ATOM     10  O   LIG    1       32.362 -20.152   9.331  0.00  0.00    -0.296 OA
ATOM     11  C   LIG    1       30.469 -21.336   8.363  0.00  0.00    +0.159 C 
ATOM     12  C   LIG    1       29.325 -18.737   8.958  0.00  0.00    +0.030 C 
ATOM     13  C   LIG    1       28.173 -20.555   5.749  0.00  0.00    +0.063 C 
ENDBRANCH   1   2
BRANCH   1  15
ATOM     14  O   LIG    1       24.711 -21.247   8.292  0.00  0.00    -0.245 OA
ATOM     15  C   LIG    1       25.156 -22.022   7.462  0.00  0.00    +0.342 C 
BRANCH  15  16
ATOM     16  C   LIG    1       24.435 -23.189   6.967  0.00  0.00    +0.084 C 
ATOM     17  C   LIG    1       24.986 -24.447   6.559  0.00  0.00    +0.014 C 
ATOM     18  C   LIG    1       23.919 -25.286   6.231  0.00  0.00    +0.047 C 
ATOM     19  C   LIG    1       24.093 -26.622   5.851  0.00  0.00    +0.026 C 
ATOM     20  C   LIG    1       25.400 -27.118   5.808  0.00  0.00    +0.002 C 
ATOM     21  C   LIG    1       26.487 -26.304   6.112  0.00  0.00    +0.001 C 
ATOM     22  N   LIG    1       22.766 -24.551   6.370  0.00  0.00    -0.360 NA
ATOM     23  H   LIG    1       21.837 -24.902   6.186  0.00  0.00    +0.165 HD
ATOM     24  C   LIG    1       26.295 -24.968   6.484  0.00  0.00    +0.011 C 
ATOM     25  C   LIG    1       23.060 -23.296   6.829  0.00  0.00    +0.098 C 
ENDBRANCH  15  16
ENDBRANCH   1  15
TORSDOF 3
ENDMDL
