MODEL 1
REMARK VINA RESULT:      -4.5      0.000      0.000
REMARK  Name = *****
REMARK                            x       y       z     vdW  Elec       q    Type
REMARK                         _______ _______ _______ _____ _____    ______ ____
ROOT
ATOM      1  C   LIG    1       25.567 -20.067   4.682  0.00  0.00    +0.159 A 
ATOM      2  C   LIG    1       24.917 -19.069   3.791  0.00  0.00    +0.179 A 
ATOM      3  F   LIG    1       25.698 -18.272   3.043  0.00  0.00    -0.200 F 
ATOM      4  C   LIG    1       23.589 -19.042   3.783  0.00  0.00    +0.129 A 
ATOM      5  N   LIG    1       22.901 -19.912   4.579  0.00  0.00    -0.310 N 
ATOM      6  H   LIG    1       21.890 -19.918   4.605  0.00  0.00    +0.170 HD
ATOM      7  C   LIG    1       23.509 -20.834   5.405  0.00  0.00    +0.348 A 
ATOM      8  O   LIG    1       22.802 -21.572   6.085  0.00  0.00    -0.245 OA
ATOM      9  N   LIG    1       24.883 -20.891   5.425  0.00  0.00    -0.176 NA
ENDROOT
BRANCH   1  10
ATOM     10  N   LIG    1       26.933 -20.160   4.742  0.00  0.00    -0.341 N 
ATOM     11  H   LIG    1       27.369 -20.922   4.235  0.00  0.00    +0.144 HD
ATOM     12  H   LIG    1       27.309 -19.997   5.670  0.00  0.00    +0.144 HD
ENDBRANCH   1  10
TORSDOF 1
ENDMDL
MODEL 2
REMARK VINA RESULT:      -4.4      7.147      7.824
REMARK  Name = *****
REMARK                            x       y       z     vdW  Elec       q    Type
REMARK                         _______ _______ _______ _____ _____    ______ ____
ROOT
ATOM      1  C   LIG    1       24.469 -12.352   2.930  0.00  0.00    +0.159 A 
ATOM      2  C   LIG    1       24.490 -12.639   4.389  0.00  0.00    +0.179 A 
ATOM      3  F   LIG    1       23.613 -12.001   5.181  0.00  0.00    -0.200 F 
ATOM      4  C   LIG    1       25.378 -13.531   4.816  0.00  0.00    +0.129 A 
ATOM      5  N   LIG    1       26.211 -14.125   3.912  0.00  0.00    -0.310 N 
ATOM      6  H   LIG    1       26.904 -14.805   4.198  0.00  0.00    +0.170 HD
ATOM      7  C   LIG    1       26.189 -13.854   2.559  0.00  0.00    +0.348 A 
ATOM      8  O   LIG    1       26.981 -14.439   1.828  0.00  0.00    -0.245 OA
ATOM      9  N   LIG    1       25.272 -12.942   2.090  0.00  0.00    -0.176 NA
ENDROOT
BRANCH   1  10
ATOM     10  N   LIG    1       23.579 -11.448   2.412  0.00  0.00    -0.341 N 
ATOM     11  H   LIG    1       23.798 -11.048   1.507  0.00  0.00    +0.144 HD
ATOM     12  H   LIG    1       23.231 -10.787   3.097  0.00  0.00    +0.144 HD
ENDBRANCH   1  10
TORSDOF 1
ENDMDL
MODEL 3
REMARK VINA RESULT:      -4.4      6.778      6.945
REMARK  Name = *****
REMARK                            x       y       z     vdW  Elec       q    Type
REMARK                         _______ _______ _______ _____ _____    ______ ____
ROOT
ATOM      1  C   LIG    1       26.620 -13.507   4.792  0.00  0.00    +0.159 A 
ATOM      2  C   LIG    1       27.546 -13.694   3.644  0.00  0.00    +0.179 A 
ATOM      3  F   LIG    1       28.868 -13.708   3.881  0.00  0.00    -0.200 F 
ATOM      4  C   LIG    1       26.997 -13.851   2.444  0.00  0.00    +0.129 A 
ATOM      5  N   LIG    1       25.636 -13.830   2.329  0.00  0.00    -0.310 N 
ATOM      6  H   LIG    1       25.180 -13.941   1.433  0.00  0.00    +0.170 HD
ATOM      7  C   LIG    1       24.782 -13.654   3.398  0.00  0.00    +0.348 A 
ATOM      8  O   LIG    1       23.573 -13.648   3.190  0.00  0.00    -0.245 OA
ATOM      9  N   LIG    1       25.325 -13.500   4.652  0.00  0.00    -0.176 NA
ENDROOT
BRANCH   1  10
ATOM     10  N   LIG    1       27.111 -13.343   6.061  0.00  0.00    -0.341 N 
ATOM     11  H   LIG    1       28.037 -12.941   6.152  0.00  0.00    +0.144 HD
ATOM     12  H   LIG    1       26.928 -14.133   6.670  0.00  0.00    +0.144 HD
ENDBRANCH   1  10
TORSDOF 1
ENDMDL
MODEL 4
REMARK VINA RESULT:      -4.3      2.292      2.695
REMARK  Name = *****
REMARK                            x       y       z     vdW  Elec       q    Type
REMARK                         _______ _______ _______ _____ _____    ______ ____
ROOT
ATOM      1  C   LIG    1       24.874 -20.051   4.621  0.00  0.00    +0.159 A 
ATOM      2  C   LIG    1       24.584 -20.844   5.846  0.00  0.00    +0.179 A 
ATOM      3  F   LIG    1       25.574 -21.572   6.389  0.00  0.00    -0.200 F 
ATOM      4  C   LIG    1       23.352 -20.767   6.336  0.00  0.00    +0.129 A 
ATOM      5  N   LIG    1       22.432 -19.983   5.702  0.00  0.00    -0.310 N 
ATOM      6  H   LIG    1       21.482 -19.903   6.041  0.00  0.00    +0.170 HD
ATOM      7  C   LIG    1       22.706 -19.251   4.566  0.00  0.00    +0.348 A 
ATOM      8  O   LIG    1       21.808 -18.577   4.069  0.00  0.00    -0.245 OA
ATOM      9  N   LIG    1       23.977 -19.304   4.043  0.00  0.00    -0.176 NA
ENDROOT
BRANCH   1  10
ATOM     10  N   LIG    1       26.124 -20.074   4.058  0.00  0.00    -0.341 N 
ATOM     11  H   LIG    1       26.809 -20.692   4.476  0.00  0.00    +0.144 HD
ATOM     12  H   LIG    1       26.473 -19.154   3.812  0.00  0.00    +0.144 HD
ENDBRANCH   1  10
TORSDOF 1
ENDMDL
MODEL 5
REMARK VINA RESULT:      -4.3      2.538      3.320
REMARK  Name = *****
REMARK                            x       y       z     vdW  Elec       q    Type
REMARK                         _______ _______ _______ _____ _____    ______ ____
ROOT
ATOM      1  C   LIG    1       24.456 -20.821   6.291  0.00  0.00    +0.159 A 
ATOM      2  C   LIG    1       24.260 -20.431   4.869  0.00  0.00    +0.179 A 
ATOM      3  F   LIG    1       23.015 -20.449   4.365  0.00  0.00    -0.200 F 
ATOM      4  C   LIG    1       25.342 -20.072   4.186  0.00  0.00    +0.129 A 
ATOM      5  N   LIG    1       26.555 -20.082   4.812  0.00  0.00    -0.310 N 
ATOM      6  H   LIG    1       27.403 -19.821   4.325  0.00  0.00    +0.170 HD
ATOM      7  C   LIG    1       26.733 -20.447   6.130  0.00  0.00    +0.348 A 
ATOM      8  O   LIG    1       27.866 -20.425   6.600  0.00  0.00    -0.245 OA
ATOM      9  N   LIG    1       25.627 -20.812   6.862  0.00  0.00    -0.176 NA
ENDROOT
BRANCH   1  10
ATOM     10  N   LIG    1       23.388 -21.199   7.062  0.00  0.00    -0.341 N 
ATOM     11  H   LIG    1       22.466 -21.116   6.650  0.00  0.00    +0.144 HD
ATOM     12  H   LIG    1       23.454 -20.886   8.024  0.00  0.00    +0.144 HD
ENDBRANCH   1  10
TORSDOF 1
ENDMDL
MODEL 6
REMARK VINA RESULT:      -4.3      2.076      2.569
REMARK  Name = *****
REMARK                            x       y       z     vdW  Elec       q    Type
REMARK                         _______ _______ _______ _____ _____    ______ ____
ROOT
ATOM      1  C   LIG    1       25.088 -20.449   4.896  0.00  0.00    +0.159 A 
ATOM      2  C   LIG    1       25.379 -20.822   6.306  0.00  0.00    +0.179 A 
ATOM      3  F   LIG    1       26.651 -20.765   6.736  0.00  0.00    -0.200 F 
ATOM      4  C   LIG    1       24.346 -21.179   7.062  0.00  0.00    +0.129 A 
ATOM      5  N   LIG    1       23.095 -21.189   6.515  0.00  0.00    -0.310 N 
ATOM      6  H   LIG    1       22.284 -21.460   7.056  0.00  0.00    +0.170 HD
ATOM      7  C   LIG    1       22.831 -20.844   5.206  0.00  0.00    +0.348 A 
ATOM      8  O   LIG    1       21.671 -20.886   4.809  0.00  0.00    -0.245 OA
ATOM      9  N   LIG    1       23.881 -20.460   4.406  0.00  0.00    -0.176 NA
ENDROOT
BRANCH   1  10
ATOM     10  N   LIG    1       26.100 -20.065   4.056  0.00  0.00    -0.341 N 
ATOM     11  H   LIG    1       26.326 -19.078   4.022  0.00  0.00    +0.144 HD
ATOM     12  H   LIG    1       26.072 -20.527   3.153  0.00  0.00    +0.144 HD
ENDBRANCH   1  10
TORSDOF 1
ENDMDL
MODEL 7
REMARK VINA RESULT:      -4.2      2.455      2.941
REMARK  Name = *****
REMARK                            x       y       z     vdW  Elec       q    Type
REMARK                         _______ _______ _______ _____ _____    ______ ____
ROOT
ATOM      1  C   LIG    1       23.529 -20.481   5.921  0.00  0.00    +0.159 A 
ATOM      2  C   LIG    1       24.783 -20.543   5.124  0.00  0.00    +0.179 A 
ATOM      3  F   LIG    1       25.770 -21.352   5.542  0.00  0.00    -0.200 F 
ATOM      4  C   LIG    1       24.839 -19.793   4.028  0.00  0.00    +0.129 A 
ATOM      5  N   LIG    1       23.765 -19.017   3.698  0.00  0.00    -0.310 N 
ATOM      6  H   LIG    1       23.772 -18.429   2.875  0.00  0.00    +0.170 HD
ATOM      7  C   LIG    1       22.605 -18.962   4.442  0.00  0.00    +0.348 A 
ATOM      8  O   LIG    1       21.697 -18.231   4.062  0.00  0.00    -0.245 OA
ATOM      9  N   LIG    1       22.517 -19.736   5.575  0.00  0.00    -0.176 NA
ENDROOT
BRANCH   1  10
ATOM     10  N   LIG    1       23.392 -21.228   7.062  0.00  0.00    -0.341 N 
ATOM     11  H   LIG    1       22.486 -21.647   7.236  0.00  0.00    +0.144 HD
ATOM     12  H   LIG    1       23.831 -20.809   7.874  0.00  0.00    +0.144 HD
ENDBRANCH   1  10
TORSDOF 1
ENDMDL
MODEL 8
REMARK VINA RESULT:      -4.2      2.467      3.205
REMARK  Name = *****
REMARK                            x       y       z     vdW  Elec       q    Type
REMARK                         _______ _______ _______ _____ _____    ______ ____
ROOT
ATOM      1  C   LIG    1       24.350 -20.086   4.597  0.00  0.00    +0.159 A 
ATOM      2  C   LIG    1       23.261 -20.377   5.567  0.00  0.00    +0.179 A 
ATOM      3  F   LIG    1       21.988 -20.220   5.168  0.00  0.00    -0.200 F 
ATOM      4  C   LIG    1       23.624 -20.792   6.776  0.00  0.00    +0.129 A 
ATOM      5  N   LIG    1       24.953 -20.924   7.061  0.00  0.00    -0.310 N 
ATOM      6  H   LIG    1       25.270 -21.232   7.972  0.00  0.00    +0.170 HD
ATOM      7  C   LIG    1       25.959 -20.652   6.158  0.00  0.00    +0.348 A 
ATOM      8  O   LIG    1       27.124 -20.800   6.513  0.00  0.00    -0.245 OA
ATOM      9  N   LIG    1       25.610 -20.231   4.897  0.00  0.00    -0.176 NA
ENDROOT
BRANCH   1  10
ATOM     10  N   LIG    1       24.056 -19.658   3.328  0.00  0.00    -0.341 N 
ATOM     11  H   LIG    1       23.078 -19.631   3.064  0.00  0.00    +0.144 HD
ATOM     12  H   LIG    1       24.678 -20.034   2.621  0.00  0.00    +0.144 HD
ENDBRANCH   1  10
TORSDOF 1
ENDMDL
MODEL 9
REMARK VINA RESULT:      -4.1      7.294      7.731
REMARK  Name = *****
REMARK                            x       y       z     vdW  Elec       q    Type
REMARK                         _______ _______ _______ _____ _____    ______ ____
ROOT
ATOM      1  C   LIG    1       25.716 -13.236   2.921  0.00  0.00    +0.159 A 
ATOM      2  C   LIG    1       25.184 -13.364   4.303  0.00  0.00    +0.179 A 
ATOM      3  F   LIG    1       23.852 -13.368   4.481  0.00  0.00    -0.200 F 
ATOM      4  C   LIG    1       26.072 -13.483   5.284  0.00  0.00    +0.129 A 
ATOM      5  N   LIG    1       27.403 -13.478   4.979  0.00  0.00    -0.310 N 
ATOM      6  H   LIG    1       28.111 -13.561   5.697  0.00  0.00    +0.170 HD
ATOM      7  C   LIG    1       27.892 -13.357   3.695  0.00  0.00    +0.348 A 
ATOM      8  O   LIG    1       29.107 -13.361   3.524  0.00  0.00    -0.245 OA
ATOM      9  N   LIG    1       26.993 -13.244   2.660  0.00  0.00    -0.176 NA
ENDROOT
BRANCH   1  10
ATOM     10  N   LIG    1       24.862 -13.115   1.855  0.00  0.00    -0.341 N 
ATOM     11  H   LIG    1       25.262 -13.202   0.928  0.00  0.00    +0.144 HD
ATOM     12  H   LIG    1       24.190 -12.363   1.961  0.00  0.00    +0.144 HD
ENDBRANCH   1  10
TORSDOF 1
ENDMDL
