MODEL 1
REMARK VINA RESULT:      -8.1      0.000      0.000
REMARK  Name = *****
REMARK                            x       y       z     vdW  Elec       q    Type
REMARK                         _______ _______ _______ _____ _____    ______ ____
ROOT
ATOM      1  C   LIG    1       28.809 -19.674   5.930  0.00  0.00    +0.138 C 
ATOM      2  N   LIG    1       27.544 -20.157   6.467  0.00  0.00    -0.270 N 
ATOM      3  C   LIG    1       27.452 -20.270   7.861  0.00  0.00    +0.271 C 
ATOM      4  O   LIG    1       28.430 -20.103   8.601  0.00  0.00    -0.270 OA
ATOM      5  C   LIG    1       26.045 -20.562   8.457  0.00  0.00    +0.320 C 
ATOM      6  N   LIG    1       25.745 -21.956   8.168  0.00  0.00    -0.243 NA
ATOM      7  C   LIG    1       25.482 -22.277   6.946  0.00  0.00    +0.078 C 
ATOM      8  C   LIG    1       25.418 -21.299   5.819  0.00  0.00    +0.023 A 
ATOM      9  C   LIG    1       24.313 -21.394   4.952  0.00  0.00    +0.032 A 
ATOM     10  C   LIG    1       24.244 -20.593   3.819  0.00  0.00    +0.042 A 
ATOM     11 CL   LIG    1       22.900 -20.727   2.755  0.00  0.00    -0.084 Cl
ATOM     12  C   LIG    1       25.263 -19.694   3.537  0.00  0.00    +0.022 A 
ATOM     13  C   LIG    1       26.351 -19.578   4.409  0.00  0.00    +0.025 A 
ATOM     14  C   LIG    1       26.438 -20.354   5.581  0.00  0.00    +0.045 A 
ENDROOT
BRANCH   7  15
ATOM     15  C   LIG    1       25.226 -23.725   6.659  0.00  0.00    +0.001 A 
ATOM     16  C   LIG    1       23.922 -24.225   6.533  0.00  0.00    +0.010 A 
ATOM     17  C   LIG    1       23.717 -25.580   6.262  0.00  0.00    +0.001 A 
ATOM     18  C   LIG    1       24.808 -26.434   6.104  0.00  0.00    +0.000 A 
ATOM     19  C   LIG    1       26.107 -25.938   6.208  0.00  0.00    +0.001 A 
ATOM     20  C   LIG    1       26.316 -24.585   6.481  0.00  0.00    +0.010 A 
ENDBRANCH   7  15
BRANCH   5  21
ATOM     21  O   LIG    1       26.033 -20.292   9.851  0.00  0.00    -0.364 OA
ATOM     22  H   LIG    1       26.942 -19.994  10.033  0.00  0.00    +0.212 HD
ENDBRANCH   5  21
TORSDOF 2
ENDMDL
MODEL 2
REMARK VINA RESULT:      -6.8      7.071      9.921
REMARK  Name = *****
REMARK                            x       y       z     vdW  Elec       q    Type
REMARK                         _______ _______ _______ _____ _____    ______ ____
ROOT
ATOM      1  C   LIG    1       27.550 -33.018   6.507  0.00  0.00    +0.138 C 
ATOM      2  N   LIG    1       26.337 -32.227   6.666  0.00  0.00    -0.270 N 
ATOM      3  C   LIG    1       25.265 -32.536   5.816  0.00  0.00    +0.271 C 
ATOM      4  O   LIG    1       25.376 -33.343   4.884  0.00  0.00    -0.270 OA
ATOM      5  C   LIG    1       23.898 -31.862   6.125  0.00  0.00    +0.320 C 
ATOM      6  N   LIG    1       24.016 -30.467   5.727  0.00  0.00    -0.243 NA
ATOM      7  C   LIG    1       24.755 -29.692   6.448  0.00  0.00    +0.078 C 
ATOM      8  C   LIG    1       25.457 -30.126   7.693  0.00  0.00    +0.023 A 
ATOM      9  C   LIG    1       25.347 -29.283   8.815  0.00  0.00    +0.032 A 
ATOM     10  C   LIG    1       26.064 -29.564   9.972  0.00  0.00    +0.042 A 
ATOM     11 CL   LIG    1       25.938 -28.521  11.332  0.00  0.00    -0.084 Cl
ATOM     12  C   LIG    1       26.890 -30.678  10.027  0.00  0.00    +0.022 A 
ATOM     13  C   LIG    1       26.983 -31.532   8.923  0.00  0.00    +0.025 A 
ATOM     14  C   LIG    1       26.249 -31.292   7.746  0.00  0.00    +0.045 A 
ENDROOT
BRANCH   7  15
ATOM     15  C   LIG    1       24.904 -28.272   5.994  0.00  0.00    +0.001 A 
ATOM     16  C   LIG    1       24.095 -27.251   6.511  0.00  0.00    +0.010 A 
ATOM     17  C   LIG    1       24.262 -25.937   6.068  0.00  0.00    +0.001 A 
ATOM     18  C   LIG    1       25.242 -25.637   5.122  0.00  0.00    +0.000 A 
ATOM     19  C   LIG    1       26.062 -26.646   4.619  0.00  0.00    +0.001 A 
ATOM     20  C   LIG    1       25.897 -27.961   5.057  0.00  0.00    +0.010 A 
ENDBRANCH   7  15
BRANCH   5  21
ATOM     21  O   LIG    1       22.852 -32.527   5.435  0.00  0.00    -0.364 OA
ATOM     22  H   LIG    1       22.046 -32.204   5.877  0.00  0.00    +0.212 HD
ENDBRANCH   5  21
TORSDOF 2
ENDMDL
MODEL 3
REMARK VINA RESULT:      -6.5      2.619      4.946
REMARK  Name = *****
REMARK                            x       y       z     vdW  Elec       q    Type
REMARK                         _______ _______ _______ _____ _____    ______ ____
ROOT
ATOM      1  C   LIG    1       21.923 -22.605   6.806  0.00  0.00    +0.138 C 
ATOM      2  N   LIG    1       23.264 -22.677   6.242  0.00  0.00    -0.270 N 
ATOM      3  C   LIG    1       23.908 -23.921   6.302  0.00  0.00    +0.271 C 
ATOM      4  O   LIG    1       23.430 -24.881   6.918  0.00  0.00    -0.270 OA
ATOM      5  C   LIG    1       25.237 -24.070   5.506  0.00  0.00    +0.320 C 
ATOM      6  N   LIG    1       26.253 -23.334   6.241  0.00  0.00    -0.243 NA
ATOM      7  C   LIG    1       26.193 -22.044   6.230  0.00  0.00    +0.078 C 
ATOM      8  C   LIG    1       25.172 -21.260   5.471  0.00  0.00    +0.023 A 
ATOM      9  C   LIG    1       25.640 -20.174   4.708  0.00  0.00    +0.032 A 
ATOM     10  C   LIG    1       24.739 -19.332   4.066  0.00  0.00    +0.042 A 
ATOM     11 CL   LIG    1       25.316 -17.997   3.151  0.00  0.00    -0.084 Cl
ATOM     12  C   LIG    1       23.374 -19.561   4.174  0.00  0.00    +0.022 A 
ATOM     13  C   LIG    1       22.906 -20.655   4.910  0.00  0.00    +0.025 A 
ATOM     14  C   LIG    1       23.793 -21.543   5.549  0.00  0.00    +0.045 A 
ENDROOT
BRANCH   7  15
ATOM     15  C   LIG    1       27.218 -21.304   7.034  0.00  0.00    +0.001 A 
ATOM     16  C   LIG    1       28.583 -21.380   6.723  0.00  0.00    +0.010 A 
ATOM     17  C   LIG    1       29.514 -20.675   7.490  0.00  0.00    +0.001 A 
ATOM     18  C   LIG    1       29.085 -19.886   8.558  0.00  0.00    +0.000 A 
ATOM     19  C   LIG    1       27.727 -19.792   8.859  0.00  0.00    +0.001 A 
ATOM     20  C   LIG    1       26.794 -20.496   8.096  0.00  0.00    +0.010 A 
ENDBRANCH   7  15
BRANCH   5  21
ATOM     21  O   LIG    1       25.573 -25.441   5.358  0.00  0.00    -0.364 OA
ATOM     22  H   LIG    1       24.730 -25.901   5.518  0.00  0.00    +0.212 HD
ENDBRANCH   5  21
TORSDOF 2
ENDMDL
MODEL 4
REMARK VINA RESULT:      -6.4      7.678      9.740
REMARK  Name = *****
REMARK                            x       y       z     vdW  Elec       q    Type
REMARK                         _______ _______ _______ _____ _____    ______ ____
ROOT
ATOM      1  C   LIG    1       23.308 -32.349   7.424  0.00  0.00    +0.138 C 
ATOM      2  N   LIG    1       24.540 -31.746   7.915  0.00  0.00    -0.270 N 
ATOM      3  C   LIG    1       25.449 -32.599   8.557  0.00  0.00    +0.271 C 
ATOM      4  O   LIG    1       25.173 -33.776   8.820  0.00  0.00    -0.270 OA
ATOM      5  C   LIG    1       26.857 -32.021   8.878  0.00  0.00    +0.320 C 
ATOM      6  N   LIG    1       26.690 -31.103   9.994  0.00  0.00    -0.243 NA
ATOM      7  C   LIG    1       26.093 -29.981   9.771  0.00  0.00    +0.078 C 
ATOM      8  C   LIG    1       25.605 -29.545   8.428  0.00  0.00    +0.023 A 
ATOM      9  C   LIG    1       25.913 -28.229   8.033  0.00  0.00    +0.032 A 
ATOM     10  C   LIG    1       25.398 -27.718   6.847  0.00  0.00    +0.042 A 
ATOM     11 CL   LIG    1       25.764 -26.105   6.379  0.00  0.00    -0.084 Cl
ATOM     12  C   LIG    1       24.579 -28.503   6.048  0.00  0.00    +0.022 A 
ATOM     13  C   LIG    1       24.291 -29.819   6.424  0.00  0.00    +0.025 A 
ATOM     14  C   LIG    1       24.820 -30.377   7.604  0.00  0.00    +0.045 A 
ENDROOT
BRANCH   7  15
ATOM     15  C   LIG    1       25.886 -29.070  10.943  0.00  0.00    +0.001 A 
ATOM     16  C   LIG    1       26.852 -28.123  11.312  0.00  0.00    +0.010 A 
ATOM     17  C   LIG    1       26.627 -27.287  12.408  0.00  0.00    +0.001 A 
ATOM     18  C   LIG    1       25.437 -27.384  13.129  0.00  0.00    +0.000 A 
ATOM     19  C   LIG    1       24.465 -28.311  12.755  0.00  0.00    +0.001 A 
ATOM     20  C   LIG    1       24.687 -29.150  11.661  0.00  0.00    +0.010 A 
ENDBRANCH   7  15
BRANCH   5  21
ATOM     21  O   LIG    1       27.764 -33.069   9.181  0.00  0.00    -0.364 OA
ATOM     22  H   LIG    1       27.784 -33.079  10.155  0.00  0.00    +0.212 HD
ENDBRANCH   5  21
TORSDOF 2
ENDMDL
MODEL 5
REMARK VINA RESULT:      -6.4      2.775      5.062
REMARK  Name = *****
REMARK                            x       y       z     vdW  Elec       q    Type
REMARK                         _______ _______ _______ _____ _____    ______ ____
ROOT
ATOM      1  C   LIG    1       23.563 -21.448   3.499  0.00  0.00    +0.138 C 
ATOM      2  N   LIG    1       23.986 -21.557   4.888  0.00  0.00    -0.270 N 
ATOM      3  C   LIG    1       23.526 -20.566   5.768  0.00  0.00    +0.271 C 
ATOM      4  O   LIG    1       22.905 -19.572   5.373  0.00  0.00    -0.270 OA
ATOM      5  C   LIG    1       23.777 -20.795   7.286  0.00  0.00    +0.320 C 
ATOM      6  N   LIG    1       25.195 -20.562   7.518  0.00  0.00    -0.243 NA
ATOM      7  C   LIG    1       26.032 -21.438   7.074  0.00  0.00    +0.078 C 
ATOM      8  C   LIG    1       25.634 -22.699   6.379  0.00  0.00    +0.023 A 
ATOM      9  C   LIG    1       26.265 -23.885   6.798  0.00  0.00    +0.032 A 
ATOM     10  C   LIG    1       26.029 -25.078   6.124  0.00  0.00    +0.042 A 
ATOM     11 CL   LIG    1       26.815 -26.519   6.630  0.00  0.00    -0.084 Cl
ATOM     12  C   LIG    1       25.169 -25.103   5.034  0.00  0.00    +0.022 A 
ATOM     13  C   LIG    1       24.521 -23.931   4.630  0.00  0.00    +0.025 A 
ATOM     14  C   LIG    1       24.715 -22.713   5.309  0.00  0.00    +0.045 A 
ENDROOT
BRANCH   7  15
ATOM     15  C   LIG    1       27.490 -21.156   7.278  0.00  0.00    +0.001 A 
ATOM     16  C   LIG    1       28.205 -21.738   8.334  0.00  0.00    +0.010 A 
ATOM     17  C   LIG    1       29.564 -21.457   8.495  0.00  0.00    +0.001 A 
ATOM     18  C   LIG    1       30.213 -20.609   7.598  0.00  0.00    +0.000 A 
ATOM     19  C   LIG    1       29.511 -20.044   6.534  0.00  0.00    +0.001 A 
ATOM     20  C   LIG    1       28.153 -20.320   6.371  0.00  0.00    +0.010 A 
ENDBRANCH   7  15
BRANCH   5  21
ATOM     21  O   LIG    1       22.961 -19.927   8.058  0.00  0.00    -0.364 OA
ATOM     22  H   LIG    1       22.102 -19.956   7.601  0.00  0.00    +0.212 HD
ENDBRANCH   5  21
TORSDOF 2
ENDMDL
MODEL 6
REMARK VINA RESULT:      -6.3      5.990      9.250
REMARK  Name = *****
REMARK                            x       y       z     vdW  Elec       q    Type
REMARK                         _______ _______ _______ _____ _____    ______ ____
ROOT
ATOM      1  C   LIG    1       22.514 -31.372   9.896  0.00  0.00    +0.138 C 
ATOM      2  N   LIG    1       23.791 -30.856   9.422  0.00  0.00    -0.270 N 
ATOM      3  C   LIG    1       24.609 -30.226  10.370  0.00  0.00    +0.271 C 
ATOM      4  O   LIG    1       24.223 -29.993  11.522  0.00  0.00    -0.270 OA
ATOM      5  C   LIG    1       26.061 -29.878   9.934  0.00  0.00    +0.320 C 
ATOM      6  N   LIG    1       25.969 -28.742   9.029  0.00  0.00    -0.243 NA
ATOM      7  C   LIG    1       25.481 -28.944   7.852  0.00  0.00    +0.078 C 
ATOM      8  C   LIG    1       25.050 -30.281   7.342  0.00  0.00    +0.023 A 
ATOM      9  C   LIG    1       25.484 -30.642   6.053  0.00  0.00    +0.032 A 
ATOM     10  C   LIG    1       25.031 -31.820   5.469  0.00  0.00    +0.042 A 
ATOM     11 CL   LIG    1       25.551 -32.246   3.887  0.00  0.00    -0.084 Cl
ATOM     12  C   LIG    1       24.152 -32.645   6.156  0.00  0.00    +0.022 A 
ATOM     13  C   LIG    1       23.739 -32.302   7.448  0.00  0.00    +0.025 A 
ATOM     14  C   LIG    1       24.200 -31.132   8.079  0.00  0.00    +0.045 A 
ENDROOT
BRANCH   7  15
ATOM     15  C   LIG    1       25.346 -27.753   6.953  0.00  0.00    +0.001 A 
ATOM     16  C   LIG    1       24.284 -27.639   6.045  0.00  0.00    +0.010 A 
ATOM     17  C   LIG    1       24.186 -26.514   5.223  0.00  0.00    +0.001 A 
ATOM     18  C   LIG    1       25.137 -25.497   5.313  0.00  0.00    +0.000 A 
ATOM     19  C   LIG    1       26.184 -25.597   6.228  0.00  0.00    +0.001 A 
ATOM     20  C   LIG    1       26.287 -26.720   7.050  0.00  0.00    +0.010 A 
ENDBRANCH   7  15
BRANCH   5  21
ATOM     21  O   LIG    1       26.864 -29.592  11.069  0.00  0.00    -0.364 OA
ATOM     22  H   LIG    1       26.398 -28.851  11.496  0.00  0.00    +0.212 HD
ENDBRANCH   5  21
TORSDOF 2
ENDMDL
MODEL 7
REMARK VINA RESULT:      -6.3      3.313      4.419
REMARK  Name = *****
REMARK                            x       y       z     vdW  Elec       q    Type
REMARK                         _______ _______ _______ _____ _____    ______ ____
ROOT
ATOM      1  C   LIG    1       22.883 -20.191   7.585  0.00  0.00    +0.138 C 
ATOM      2  N   LIG    1       23.766 -20.841   6.627  0.00  0.00    -0.270 N 
ATOM      3  C   LIG    1       23.269 -21.017   5.328  0.00  0.00    +0.271 C 
ATOM      4  O   LIG    1       22.095 -20.762   5.033  0.00  0.00    -0.270 OA
ATOM      5  C   LIG    1       24.275 -21.497   4.243  0.00  0.00    +0.320 C 
ATOM      6  N   LIG    1       24.535 -22.905   4.502  0.00  0.00    -0.243 NA
ATOM      7  C   LIG    1       25.244 -23.209   5.537  0.00  0.00    +0.078 C 
ATOM      8  C   LIG    1       25.854 -22.203   6.458  0.00  0.00    +0.023 A 
ATOM      9  C   LIG    1       27.203 -22.397   6.811  0.00  0.00    +0.032 A 
ATOM     10  C   LIG    1       27.804 -21.567   7.751  0.00  0.00    +0.042 A 
ATOM     11 CL   LIG    1       29.446 -21.820   8.191  0.00  0.00    -0.084 Cl
ATOM     12  C   LIG    1       27.078 -20.543   8.342  0.00  0.00    +0.022 A 
ATOM     13  C   LIG    1       25.745 -20.331   7.975  0.00  0.00    +0.025 A 
ATOM     14  C   LIG    1       25.114 -21.135   7.007  0.00  0.00    +0.045 A 
ENDROOT
BRANCH   7  15
ATOM     15  C   LIG    1       25.459 -24.665   5.816  0.00  0.00    +0.001 A 
ATOM     16  C   LIG    1       25.770 -25.124   7.104  0.00  0.00    +0.010 A 
ATOM     17  C   LIG    1       25.961 -26.489   7.331  0.00  0.00    +0.001 A 
ATOM     18  C   LIG    1       25.831 -27.397   6.281  0.00  0.00    +0.000 A 
ATOM     19  C   LIG    1       25.502 -26.948   5.003  0.00  0.00    +0.001 A 
ATOM     20  C   LIG    1       25.311 -25.585   4.771  0.00  0.00    +0.010 A 
ENDBRANCH   7  15
BRANCH   5  21
ATOM     21  O   LIG    1       23.742 -21.283   2.945  0.00  0.00    -0.364 OA
ATOM     22  H   LIG    1       24.202 -21.944   2.398  0.00  0.00    +0.212 HD
ENDBRANCH   5  21
TORSDOF 2
ENDMDL
MODEL 8
REMARK VINA RESULT:      -6.0      6.299      9.143
REMARK  Name = *****
REMARK                            x       y       z     vdW  Elec       q    Type
REMARK                         _______ _______ _______ _____ _____    ______ ____
ROOT
ATOM      1  C   LIG    1       23.818 -28.962  12.608  0.00  0.00    +0.138 C 
ATOM      2  N   LIG    1       24.772 -29.236  11.541  0.00  0.00    -0.270 N 
ATOM      3  C   LIG    1       26.075 -28.751  11.719  0.00  0.00    +0.271 C 
ATOM      4  O   LIG    1       26.379 -28.011  12.662  0.00  0.00    -0.270 OA
ATOM      5  C   LIG    1       27.154 -29.230  10.705  0.00  0.00    +0.320 C 
ATOM      6  N   LIG    1       26.897 -28.531   9.455  0.00  0.00    -0.243 NA
ATOM      7  C   LIG    1       25.857 -28.875   8.772  0.00  0.00    +0.078 C 
ATOM      8  C   LIG    1       24.928 -29.979   9.160  0.00  0.00    +0.023 A 
ATOM      9  C   LIG    1       24.564 -30.891   8.153  0.00  0.00    +0.032 A 
ATOM     10  C   LIG    1       23.618 -31.876   8.411  0.00  0.00    +0.042 A 
ATOM     11 CL   LIG    1       23.165 -32.977   7.171  0.00  0.00    -0.084 Cl
ATOM     12  C   LIG    1       23.029 -31.964   9.665  0.00  0.00    +0.022 A 
ATOM     13  C   LIG    1       23.406 -31.075  10.677  0.00  0.00    +0.025 A 
ATOM     14  C   LIG    1       24.382 -30.084  10.457  0.00  0.00    +0.045 A 
ENDROOT
BRANCH   7  15
ATOM     15  C   LIG    1       25.581 -28.110   7.513  0.00  0.00    +0.001 A 
ATOM     16  C   LIG    1       24.631 -28.555   6.582  0.00  0.00    +0.010 A 
ATOM     17  C   LIG    1       24.395 -27.817   5.420  0.00  0.00    +0.001 A 
ATOM     18  C   LIG    1       25.094 -26.632   5.190  0.00  0.00    +0.000 A 
ATOM     19  C   LIG    1       26.025 -26.175   6.122  0.00  0.00    +0.001 A 
ATOM     20  C   LIG    1       26.265 -26.910   7.284  0.00  0.00    +0.010 A 
ENDBRANCH   7  15
BRANCH   5  21
ATOM     21  O   LIG    1       28.455 -28.965  11.206  0.00  0.00    -0.364 OA
ATOM     22  H   LIG    1       28.654 -28.075  10.864  0.00  0.00    +0.212 HD
ENDBRANCH   5  21
TORSDOF 2
ENDMDL
MODEL 9
REMARK VINA RESULT:      -5.8      7.586      9.618
REMARK  Name = *****
REMARK                            x       y       z     vdW  Elec       q    Type
REMARK                         _______ _______ _______ _____ _____    ______ ____
ROOT
ATOM      1  C   LIG    1       24.323 -32.087   4.920  0.00  0.00    +0.138 C 
ATOM      2  N   LIG    1       25.086 -31.635   6.075  0.00  0.00    -0.270 N 
ATOM      3  C   LIG    1       25.790 -32.615   6.790  0.00  0.00    +0.271 C 
ATOM      4  O   LIG    1       25.670 -33.821   6.544  0.00  0.00    -0.270 OA
ATOM      5  C   LIG    1       26.786 -32.120   7.878  0.00  0.00    +0.320 C 
ATOM      6  N   LIG    1       25.986 -31.654   9.000  0.00  0.00    -0.243 NA
ATOM      7  C   LIG    1       25.328 -30.554   8.859  0.00  0.00    +0.078 C 
ATOM      8  C   LIG    1       25.374 -29.702   7.632  0.00  0.00    +0.023 A 
ATOM      9  C   LIG    1       25.551 -28.319   7.822  0.00  0.00    +0.032 A 
ATOM     10  C   LIG    1       25.492 -27.452   6.736  0.00  0.00    +0.042 A 
ATOM     11 CL   LIG    1       25.691 -25.762   6.977  0.00  0.00    -0.084 Cl
ATOM     12  C   LIG    1       25.260 -27.948   5.461  0.00  0.00    +0.022 A 
ATOM     13  C   LIG    1       25.109 -29.325   5.265  0.00  0.00    +0.025 A 
ATOM     14  C   LIG    1       25.192 -30.233   6.338  0.00  0.00    +0.045 A 
ENDROOT
BRANCH   7  15
ATOM     15  C   LIG    1       24.470 -30.116  10.007  0.00  0.00    +0.001 A 
ATOM     16  C   LIG    1       23.092 -30.374  10.030  0.00  0.00    +0.010 A 
ATOM     17  C   LIG    1       22.321 -29.956  11.117  0.00  0.00    +0.001 A 
ATOM     18  C   LIG    1       22.923 -29.293  12.186  0.00  0.00    +0.000 A 
ATOM     19  C   LIG    1       24.296 -29.051  12.178  0.00  0.00    +0.001 A 
ATOM     20  C   LIG    1       25.070 -29.466  11.093  0.00  0.00    +0.010 A 
ENDBRANCH   7  15
BRANCH   5  21
ATOM     21  O   LIG    1       27.670 -33.165   8.250  0.00  0.00    -0.364 OA
ATOM     22  H   LIG    1       27.735 -33.708   7.444  0.00  0.00    +0.212 HD
ENDBRANCH   5  21
TORSDOF 2
ENDMDL
