MODEL 1
REMARK VINA RESULT:      -2.9      0.000      0.000
REMARK  Name = *****
REMARK                            x       y       z     vdW  Elec       q    Type
REMARK                         _______ _______ _______ _____ _____    ______ ____
ROOT
ATOM      1  C   LIG    1       22.645 -19.194   4.418  0.00  0.00    +0.024 C 
ATOM      2  C   LIG    1       22.618 -17.803   5.082  0.00  0.00    +0.028 C 
ATOM      3  C   LIG    1       23.101 -20.409   5.359  0.00  0.00    -0.014 C 
ATOM      4  C   LIG    1       22.074 -21.570   5.466  0.00  0.00    +0.013 C 
ATOM      5  C   LIG    1       23.421 -20.006   6.811  0.00  0.00    +0.013 C 
ATOM      6  C   LIG    1       24.354 -20.969   4.592  0.00  0.00    -0.003 C 
ATOM      7  C   LIG    1       23.966 -20.772   3.123  0.00  0.00    +0.009 C 
ATOM      8  C   LIG    1       25.566 -20.026   4.689  0.00  0.00    +0.004 C 
ATOM      9  C   LIG    1       25.156 -18.851   3.799  0.00  0.00    +0.005 C 
ATOM     10  C   LIG    1       23.757 -19.263   3.296  0.00  0.00    +0.010 C 
ENDROOT
BRANCH   1  12
ATOM     11  C   LIG    1       20.570 -18.290   3.357  0.00  0.00    +0.101 C 
ATOM     12  N   LIG    1       21.361 -19.458   3.719  0.00  0.00    -0.313 NA
ATOM     13  H   LIG    1       21.536 -19.996   2.871  0.00  0.00    +0.122 HD
ENDBRANCH   1  12
TORSDOF 1
ENDMDL
MODEL 2
REMARK VINA RESULT:      -2.8      5.781      7.532
REMARK  Name = *****
REMARK                            x       y       z     vdW  Elec       q    Type
REMARK                         _______ _______ _______ _____ _____    ______ ____
ROOT
ATOM      1  C   LIG    1       26.212 -13.341   3.953  0.00  0.00    +0.024 C 
ATOM      2  C   LIG    1       26.647 -13.321   5.432  0.00  0.00    +0.028 C 
ATOM      3  C   LIG    1       24.859 -12.551   3.611  0.00  0.00    -0.014 C 
ATOM      4  C   LIG    1       25.005 -11.447   2.529  0.00  0.00    +0.013 C 
ATOM      5  C   LIG    1       24.203 -11.858   4.820  0.00  0.00    +0.013 C 
ATOM      6  C   LIG    1       23.960 -13.685   2.998  0.00  0.00    -0.003 C 
ATOM      7  C   LIG    1       24.976 -14.549   2.243  0.00  0.00    +0.009 C 
ATOM      8  C   LIG    1       23.478 -14.687   4.061  0.00  0.00    +0.004 C 
ATOM      9  C   LIG    1       24.755 -15.456   4.409  0.00  0.00    +0.005 C 
ATOM     10  C   LIG    1       25.816 -14.803   3.500  0.00  0.00    +0.010 C 
ENDROOT
BRANCH   1  12
ATOM     11  C   LIG    1       28.666 -12.950   3.687  0.00  0.00    +0.101 C 
ATOM     12  N   LIG    1       27.345 -12.947   3.075  0.00  0.00    -0.313 NA
ATOM     13  H   LIG    1       27.374 -13.557   2.258  0.00  0.00    +0.122 HD
ENDBRANCH   1  12
TORSDOF 1
ENDMDL
MODEL 3
REMARK VINA RESULT:      -2.6      5.392      7.007
REMARK  Name = *****
REMARK                            x       y       z     vdW  Elec       q    Type
REMARK                         _______ _______ _______ _____ _____    ______ ____
ROOT
ATOM      1  C   LIG    1       25.260 -14.640   3.750  0.00  0.00    +0.024 C 
ATOM      2  C   LIG    1       23.819 -15.035   4.131  0.00  0.00    +0.028 C 
ATOM      3  C   LIG    1       25.827 -13.310   4.442  0.00  0.00    -0.014 C 
ATOM      4  C   LIG    1       27.144 -13.503   5.242  0.00  0.00    +0.013 C 
ATOM      5  C   LIG    1       24.848 -12.631   5.417  0.00  0.00    +0.013 C 
ATOM      6  C   LIG    1       26.169 -12.410   3.198  0.00  0.00    -0.003 C 
ATOM      7  C   LIG    1       26.655 -13.433   2.166  0.00  0.00    +0.009 C 
ATOM      8  C   LIG    1       24.906 -11.884   2.494  0.00  0.00    +0.004 C 
ATOM      9  C   LIG    1       24.340 -13.138   1.825  0.00  0.00    +0.005 C 
ATOM     10  C   LIG    1       25.349 -14.234   2.224  0.00  0.00    +0.010 C 
ENDROOT
BRANCH   1  12
ATOM     11  C   LIG    1       25.763 -17.036   3.247  0.00  0.00    +0.101 C 
ATOM     12  N   LIG    1       26.172 -15.803   3.904  0.00  0.00    -0.313 NA
ATOM     13  H   LIG    1       27.102 -15.557   3.564  0.00  0.00    +0.122 HD
ENDBRANCH   1  12
TORSDOF 1
ENDMDL
MODEL 4
REMARK VINA RESULT:      -2.1      6.022      7.757
REMARK  Name = *****
REMARK                            x       y       z     vdW  Elec       q    Type
REMARK                         _______ _______ _______ _____ _____    ______ ____
ROOT
ATOM      1  C   LIG    1       26.505 -13.290   3.028  0.00  0.00    +0.024 C 
ATOM      2  C   LIG    1       26.964 -14.240   1.903  0.00  0.00    +0.028 C 
ATOM      3  C   LIG    1       25.707 -13.973   4.239  0.00  0.00    -0.014 C 
ATOM      4  C   LIG    1       26.328 -13.739   5.643  0.00  0.00    +0.013 C 
ATOM      5  C   LIG    1       25.538 -15.498   4.111  0.00  0.00    +0.013 C 
ATOM      6  C   LIG    1       24.335 -13.204   4.205  0.00  0.00    -0.003 C 
ATOM      7  C   LIG    1       24.753 -11.788   3.793  0.00  0.00    +0.009 C 
ATOM      8  C   LIG    1       23.473 -13.602   2.995  0.00  0.00    +0.004 C 
ATOM      9  C   LIG    1       24.216 -12.964   1.820  0.00  0.00    +0.005 C 
ATOM     10  C   LIG    1       25.417 -12.273   2.498  0.00  0.00    +0.010 C 
ENDROOT
BRANCH   1  12
ATOM     11  C   LIG    1       28.926 -13.121   3.630  0.00  0.00    +0.101 C 
ATOM     12  N   LIG    1       27.641 -12.450   3.489  0.00  0.00    -0.313 NA
ATOM     13  H   LIG    1       27.765 -11.661   2.854  0.00  0.00    +0.122 HD
ENDBRANCH   1  12
TORSDOF 1
ENDMDL
MODEL 5
REMARK VINA RESULT:      -2.1      1.201      3.247
REMARK  Name = *****
REMARK                            x       y       z     vdW  Elec       q    Type
REMARK                         _______ _______ _______ _____ _____    ______ ____
ROOT
ATOM      1  C   LIG    1       22.848 -20.345   5.054  0.00  0.00    +0.024 C 
ATOM      2  C   LIG    1       21.755 -21.407   4.826  0.00  0.00    +0.028 C 
ATOM      3  C   LIG    1       22.648 -18.956   4.279  0.00  0.00    -0.014 C 
ATOM      4  C   LIG    1       22.623 -17.699   5.191  0.00  0.00    +0.013 C 
ATOM      5  C   LIG    1       21.362 -18.878   3.434  0.00  0.00    +0.013 C 
ATOM      6  C   LIG    1       23.954 -18.871   3.409  0.00  0.00    -0.003 C 
ATOM      7  C   LIG    1       25.009 -19.504   4.323  0.00  0.00    +0.009 C 
ATOM      8  C   LIG    1       23.949 -19.882   2.249  0.00  0.00    +0.004 C 
ATOM      9  C   LIG    1       24.138 -21.222   2.962  0.00  0.00    +0.005 C 
ATOM     10  C   LIG    1       24.230 -20.818   4.448  0.00  0.00    +0.010 C 
ENDROOT
BRANCH   1  12
ATOM     11  C   LIG    1       24.243 -20.867   7.062  0.00  0.00    +0.101 C 
ATOM     12  N   LIG    1       23.096 -20.162   6.508  0.00  0.00    -0.313 NA
ATOM     13  H   LIG    1       23.205 -19.169   6.715  0.00  0.00    +0.122 HD
ENDBRANCH   1  12
TORSDOF 1
ENDMDL
MODEL 6
REMARK VINA RESULT:      -2.1      5.273      6.942
REMARK  Name = *****
REMARK                            x       y       z     vdW  Elec       q    Type
REMARK                         _______ _______ _______ _____ _____    ______ ____
ROOT
ATOM      1  C   LIG    1       25.004 -14.502   4.093  0.00  0.00    +0.024 C 
ATOM      2  C   LIG    1       24.960 -15.741   3.177  0.00  0.00    +0.028 C 
ATOM      3  C   LIG    1       25.099 -13.085   3.350  0.00  0.00    -0.014 C 
ATOM      4  C   LIG    1       23.966 -12.084   3.706  0.00  0.00    +0.013 C 
ATOM      5  C   LIG    1       25.105 -13.170   1.812  0.00  0.00    +0.013 C 
ATOM      6  C   LIG    1       26.437 -12.496   3.932  0.00  0.00    -0.003 C 
ATOM      7  C   LIG    1       26.429 -13.008   5.376  0.00  0.00    +0.009 C 
ATOM      8  C   LIG    1       27.679 -13.222   3.387  0.00  0.00    +0.004 C 
ATOM      9  C   LIG    1       27.611 -14.584   4.080  0.00  0.00    +0.005 C 
ATOM     10  C   LIG    1       26.337 -14.475   4.943  0.00  0.00    +0.010 C 
ENDROOT
BRANCH   1  12
ATOM     11  C   LIG    1       22.801 -15.461   4.785  0.00  0.00    +0.101 C 
ATOM     12  N   LIG    1       23.901 -14.556   5.088  0.00  0.00    -0.313 NA
ATOM     13  H   LIG    1       24.276 -14.810   6.002  0.00  0.00    +0.122 HD
ENDBRANCH   1  12
TORSDOF 1
ENDMDL
MODEL 7
REMARK VINA RESULT:      -2.1      6.093      7.779
REMARK  Name = *****
REMARK                            x       y       z     vdW  Elec       q    Type
REMARK                         _______ _______ _______ _____ _____    ______ ____
ROOT
ATOM      1  C   LIG    1       26.310 -13.464   4.354  0.00  0.00    +0.024 C 
ATOM      2  C   LIG    1       26.680 -14.931   4.651  0.00  0.00    +0.028 C 
ATOM      3  C   LIG    1       24.742 -13.128   4.333  0.00  0.00    -0.014 C 
ATOM      4  C   LIG    1       24.304 -12.006   5.314  0.00  0.00    +0.013 C 
ATOM      5  C   LIG    1       23.829 -14.328   4.645  0.00  0.00    +0.013 C 
ATOM      6  C   LIG    1       24.542 -12.574   2.876  0.00  0.00    -0.003 C 
ATOM      7  C   LIG    1       25.853 -11.825   2.617  0.00  0.00    +0.009 C 
ATOM      8  C   LIG    1       24.640 -13.681   1.812  0.00  0.00    +0.004 C 
ATOM      9  C   LIG    1       26.131 -14.024   1.812  0.00  0.00    +0.005 C 
ATOM     10  C   LIG    1       26.710 -13.069   2.876  0.00  0.00    +0.010 C 
ENDROOT
BRANCH   1  12
ATOM     11  C   LIG    1       28.515 -12.465   4.977  0.00  0.00    +0.101 C 
ATOM     12  N   LIG    1       27.083 -12.548   5.232  0.00  0.00    -0.313 NA
ATOM     13  H   LIG    1       26.697 -11.606   5.170  0.00  0.00    +0.122 HD
ENDBRANCH   1  12
TORSDOF 1
ENDMDL
MODEL 8
REMARK VINA RESULT:      -2.0      1.521      3.393
REMARK  Name = *****
REMARK                            x       y       z     vdW  Elec       q    Type
REMARK                         _______ _______ _______ _____ _____    ______ ____
ROOT
ATOM      1  C   LIG    1       24.210 -20.425   4.424  0.00  0.00    +0.024 C 
ATOM      2  C   LIG    1       24.224 -21.566   3.388  0.00  0.00    +0.028 C 
ATOM      3  C   LIG    1       22.966 -20.412   5.435  0.00  0.00    -0.014 C 
ATOM      4  C   LIG    1       23.349 -20.446   6.940  0.00  0.00    +0.013 C 
ATOM      5  C   LIG    1       21.972 -21.572   5.236  0.00  0.00    +0.013 C 
ATOM      6  C   LIG    1       22.324 -19.005   5.151  0.00  0.00    -0.003 C 
ATOM      7  C   LIG    1       23.548 -18.128   4.867  0.00  0.00    +0.009 C 
ATOM      8  C   LIG    1       21.620 -18.950   3.785  0.00  0.00    +0.004 C 
ATOM      9  C   LIG    1       22.788 -18.963   2.797  0.00  0.00    +0.005 C 
ATOM     10  C   LIG    1       24.025 -19.023   3.717  0.00  0.00    +0.010 C 
ENDROOT
BRANCH   1  12
ATOM     11  C   LIG    1       26.601 -19.693   4.397  0.00  0.00    +0.101 C 
ATOM     12  N   LIG    1       25.520 -20.345   5.123  0.00  0.00    -0.313 NA
ATOM     13  H   LIG    1       25.404 -19.865   6.015  0.00  0.00    +0.122 HD
ENDBRANCH   1  12
TORSDOF 1
ENDMDL
MODEL 9
REMARK VINA RESULT:      -1.9      5.548      7.072
REMARK  Name = *****
REMARK                            x       y       z     vdW  Elec       q    Type
REMARK                         _______ _______ _______ _____ _____    ______ ____
ROOT
ATOM      1  C   LIG    1       25.060 -13.674   3.687  0.00  0.00    +0.024 C 
ATOM      2  C   LIG    1       23.893 -14.518   4.237  0.00  0.00    +0.028 C 
ATOM      3  C   LIG    1       26.383 -14.486   3.285  0.00  0.00    -0.014 C 
ATOM      4  C   LIG    1       26.847 -14.289   1.816  0.00  0.00    +0.013 C 
ATOM      5  C   LIG    1       26.281 -16.009   3.485  0.00  0.00    +0.013 C 
ATOM      6  C   LIG    1       27.470 -13.823   4.208  0.00  0.00    -0.003 C 
ATOM      7  C   LIG    1       27.024 -12.358   4.255  0.00  0.00    +0.009 C 
ATOM      8  C   LIG    1       27.298 -14.213   5.686  0.00  0.00    +0.004 C 
ATOM      9  C   LIG    1       26.036 -13.452   6.096  0.00  0.00    +0.005 C 
ATOM     10  C   LIG    1       25.636 -12.713   4.802  0.00  0.00    +0.010 C 
ENDROOT
BRANCH   1  12
ATOM     11  C   LIG    1       23.832 -11.602   3.018  0.00  0.00    +0.101 C 
ATOM     12  N   LIG    1       24.583 -12.778   2.601  0.00  0.00    -0.313 NA
ATOM     13  H   LIG    1       25.375 -12.465   2.041  0.00  0.00    +0.122 HD
ENDBRANCH   1  12
TORSDOF 1
ENDMDL
