MODEL 1
REMARK VINA RESULT:      -8.7      0.000      0.000
REMARK  Name = *****
REMARK                            x       y       z     vdW  Elec       q    Type
REMARK                         _______ _______ _______ _____ _____    ______ ____
ROOT
ATOM      1  C   LIG    1       26.017 -22.125   7.478  0.00  0.00    +0.170 C 
ENDROOT
BRANCH   1   2
ATOM      2  C   LIG    1       25.214 -21.264   6.507  0.00  0.00    +0.001 A 
ATOM      3  C   LIG    1       23.843 -20.997   6.668  0.00  0.00    +0.048 A 
ATOM      4 CL   LIG    1       22.942 -21.608   8.009  0.00  0.00    -0.083 Cl
ATOM      5  C   LIG    1       23.155 -20.201   5.744  0.00  0.00    +0.040 A 
ATOM      6  C   LIG    1       23.833 -19.653   4.659  0.00  0.00    +0.042 A 
ATOM      7 CL   LIG    1       22.997 -18.656   3.535  0.00  0.00    -0.084 Cl
ATOM      8  C   LIG    1       25.189 -19.899   4.481  0.00  0.00    +0.020 A 
ATOM      9  C   LIG    1       25.869 -20.703   5.394  0.00  0.00    +0.009 A 
ENDBRANCH   1   2
BRANCH   1  10
ATOM     10  O   LIG    1       27.065 -21.359   8.135  0.00  0.00    -0.365 OA
BRANCH  10  11
ATOM     11  C   LIG    1       28.360 -21.666   7.576  0.00  0.00    +0.197 C 
BRANCH  11  17
ATOM     12 CL   LIG    1       32.125 -17.109   8.826  0.00  0.00    -0.084 Cl
ATOM     13  C   LIG    1       31.121 -18.436   8.386  0.00  0.00    +0.042 A 
ATOM     14  C   LIG    1       31.379 -19.700   8.903  0.00  0.00    +0.040 A 
ATOM     15  C   LIG    1       30.522 -20.762   8.588  0.00  0.00    +0.048 A 
ATOM     16 CL   LIG    1       30.886 -22.296   9.303  0.00  0.00    -0.083 Cl
ATOM     17  C   LIG    1       29.401 -20.576   7.751  0.00  0.00    -0.004 A 
ATOM     18  C   LIG    1       29.184 -19.296   7.220  0.00  0.00    +0.009 A 
ATOM     19  C   LIG    1       30.038 -18.233   7.535  0.00  0.00    +0.020 A 
ENDBRANCH  11  17
ENDBRANCH  10  11
ENDBRANCH   1  10
BRANCH   1  20
ATOM     20  C   LIG    1       26.590 -23.393   6.798  0.00  0.00    +0.159 C 
BRANCH  20  21
ATOM     21  N   LIG    1       25.660 -24.489   6.593  0.00  0.00    -0.334 N 
ATOM     22  C   LIG    1       24.299 -24.393   6.567  0.00  0.00    +0.199 A 
ATOM     23  N   LIG    1       23.743 -25.571   6.340  0.00  0.00    -0.244 NA
ATOM     24  C   LIG    1       24.787 -26.442   6.197  0.00  0.00    +0.130 A 
ATOM     25  C   LIG    1       25.994 -25.794   6.354  0.00  0.00    +0.107 A 
ENDBRANCH  20  21
ENDBRANCH   1  20
TORSDOF 6
ENDMDL
MODEL 2
REMARK VINA RESULT:      -8.5      1.117      1.499
REMARK  Name = *****
REMARK                            x       y       z     vdW  Elec       q    Type
REMARK                         _______ _______ _______ _____ _____    ______ ____
ROOT
ATOM      1  C   LIG    1       25.844 -21.743   7.556  0.00  0.00    +0.170 C 
ENDROOT
BRANCH   1   2
ATOM      2  C   LIG    1       24.921 -20.964   6.624  0.00  0.00    +0.001 A 
ATOM      3  C   LIG    1       25.373 -20.304   5.468  0.00  0.00    +0.048 A 
ATOM      4 CL   LIG    1       27.030 -20.341   4.981  0.00  0.00    -0.083 Cl
ATOM      5  C   LIG    1       24.481 -19.601   4.649  0.00  0.00    +0.040 A 
ATOM      6  C   LIG    1       23.127 -19.562   4.971  0.00  0.00    +0.042 A 
ATOM      7 CL   LIG    1       22.025 -18.719   3.956  0.00  0.00    -0.084 Cl
ATOM      8  C   LIG    1       22.656 -20.208   6.107  0.00  0.00    +0.020 A 
ATOM      9  C   LIG    1       23.547 -20.896   6.928  0.00  0.00    +0.009 A 
ENDBRANCH   1   2
BRANCH   1  10
ATOM     10  O   LIG    1       26.884 -20.894   8.116  0.00  0.00    -0.365 OA
BRANCH  10  11
ATOM     11  C   LIG    1       28.196 -21.417   7.821  0.00  0.00    +0.197 C 
BRANCH  11  17
ATOM     12 CL   LIG    1       32.374 -17.195   8.922  0.00  0.00    -0.084 Cl
ATOM     13  C   LIG    1       31.243 -18.427   8.517  0.00  0.00    +0.042 A 
ATOM     14  C   LIG    1       31.454 -19.730   8.951  0.00  0.00    +0.040 A 
ATOM     15  C   LIG    1       30.499 -20.715   8.669  0.00  0.00    +0.048 A 
ATOM     16 CL   LIG    1       30.813 -22.304   9.277  0.00  0.00    -0.083 Cl
ATOM     17  C   LIG    1       29.324 -20.411   7.948  0.00  0.00    -0.004 A 
ATOM     18  C   LIG    1       29.153 -19.093   7.497  0.00  0.00    +0.009 A 
ATOM     19  C   LIG    1       30.106 -18.108   7.779  0.00  0.00    +0.020 A 
ENDBRANCH  11  17
ENDBRANCH  10  11
ENDBRANCH   1  10
BRANCH   1  20
ATOM     20  C   LIG    1       26.448 -22.993   6.870  0.00  0.00    +0.159 C 
BRANCH  20  21
ATOM     21  N   LIG    1       25.531 -24.087   6.602  0.00  0.00    -0.334 N 
ATOM     22  C   LIG    1       24.177 -24.059   6.769  0.00  0.00    +0.199 A 
ATOM     23  N   LIG    1       23.630 -25.209   6.417  0.00  0.00    -0.244 NA
ATOM     24  C   LIG    1       24.670 -25.989   5.992  0.00  0.00    +0.130 A 
ATOM     25  C   LIG    1       25.867 -25.314   6.101  0.00  0.00    +0.107 A 
ENDBRANCH  20  21
ENDBRANCH   1  20
TORSDOF 6
ENDMDL
MODEL 3
REMARK VINA RESULT:      -8.4      3.374      7.049
REMARK  Name = *****
REMARK                            x       y       z     vdW  Elec       q    Type
REMARK                         _______ _______ _______ _____ _____    ______ ____
ROOT
ATOM      1  C   LIG    1       25.584 -23.308   6.086  0.00  0.00    +0.170 C 
ENDROOT
BRANCH   1   2
ATOM      2  C   LIG    1       24.638 -22.196   5.642  0.00  0.00    +0.001 A 
ATOM      3  C   LIG    1       23.268 -22.179   5.956  0.00  0.00    +0.048 A 
ATOM      4 CL   LIG    1       22.531 -23.418   6.908  0.00  0.00    -0.083 Cl
ATOM      5  C   LIG    1       22.446 -21.133   5.520  0.00  0.00    +0.040 A 
ATOM      6  C   LIG    1       22.987 -20.088   4.776  0.00  0.00    +0.042 A 
ATOM      7 CL   LIG    1       21.986 -18.790   4.259  0.00  0.00    -0.084 Cl
ATOM      8  C   LIG    1       24.339 -20.081   4.456  0.00  0.00    +0.020 A 
ATOM      9  C   LIG    1       25.153 -21.130   4.879  0.00  0.00    +0.009 A 
ENDBRANCH   1   2
BRANCH   1  10
ATOM     10  O   LIG    1       24.983 -24.623   5.919  0.00  0.00    -0.365 OA
BRANCH  10  11
ATOM     11  C   LIG    1       25.758 -25.637   6.591  0.00  0.00    +0.197 C 
BRANCH  11  17
ATOM     12 CL   LIG    1       23.904 -31.355   5.991  0.00  0.00    -0.084 Cl
ATOM     13  C   LIG    1       24.345 -29.709   6.231  0.00  0.00    +0.042 A 
ATOM     14  C   LIG    1       25.144 -29.358   7.312  0.00  0.00    +0.040 A 
ATOM     15  C   LIG    1       25.549 -28.026   7.467  0.00  0.00    +0.048 A 
ATOM     16 CL   LIG    1       26.576 -27.674   8.814  0.00  0.00    -0.083 Cl
ATOM     17  C   LIG    1       25.157 -27.029   6.547  0.00  0.00    -0.004 A 
ATOM     18  C   LIG    1       24.325 -27.409   5.483  0.00  0.00    +0.009 A 
ATOM     19  C   LIG    1       23.921 -28.739   5.326  0.00  0.00    +0.020 A 
ENDBRANCH  11  17
ENDBRANCH  10  11
ENDBRANCH   1  10
BRANCH   1  20
ATOM     20  C   LIG    1       26.089 -23.102   7.535  0.00  0.00    +0.159 C 
BRANCH  20  21
ATOM     21  N   LIG    1       26.890 -21.915   7.774  0.00  0.00    -0.334 N 
ATOM     22  C   LIG    1       26.522 -20.836   8.525  0.00  0.00    +0.199 A 
ATOM     23  N   LIG    1       27.485 -19.931   8.560  0.00  0.00    -0.244 NA
ATOM     24  C   LIG    1       28.508 -20.461   7.825  0.00  0.00    +0.130 A 
ATOM     25  C   LIG    1       28.161 -21.696   7.320  0.00  0.00    +0.107 A 
ENDBRANCH  20  21
ENDBRANCH   1  20
TORSDOF 6
ENDMDL
MODEL 4
REMARK VINA RESULT:      -8.3      3.044      6.644
REMARK  Name = *****
REMARK                            x       y       z     vdW  Elec       q    Type
REMARK                         _______ _______ _______ _____ _____    ______ ____
ROOT
ATOM      1  C   LIG    1       27.129 -21.367   6.671  0.00  0.00    +0.170 C 
ENDROOT
BRANCH   1   2
ATOM      2  C   LIG    1       25.734 -20.967   6.198  0.00  0.00    +0.001 A 
ATOM      3  C   LIG    1       24.686 -20.646   7.078  0.00  0.00    +0.048 A 
ATOM      4 CL   LIG    1       24.895 -20.650   8.793  0.00  0.00    -0.083 Cl
ATOM      5  C   LIG    1       23.424 -20.287   6.589  0.00  0.00    +0.040 A 
ATOM      6  C   LIG    1       23.202 -20.233   5.216  0.00  0.00    +0.042 A 
ATOM      7 CL   LIG    1       21.661 -19.770   4.610  0.00  0.00    -0.084 Cl
ATOM      8  C   LIG    1       24.223 -20.543   4.326  0.00  0.00    +0.020 A 
ATOM      9  C   LIG    1       25.474 -20.913   4.815  0.00  0.00    +0.009 A 
ENDBRANCH   1   2
BRANCH   1  10
ATOM     10  O   LIG    1       27.139 -22.706   7.240  0.00  0.00    -0.365 OA
BRANCH  10  11
ATOM     11  C   LIG    1       25.797 -23.209   7.410  0.00  0.00    +0.197 C 
BRANCH  11  17
ATOM     12 CL   LIG    1       24.557 -28.611   5.007  0.00  0.00    -0.084 Cl
ATOM     13  C   LIG    1       24.912 -27.030   5.587  0.00  0.00    +0.042 A 
ATOM     14  C   LIG    1       23.877 -26.136   5.834  0.00  0.00    +0.040 A 
ATOM     15  C   LIG    1       24.168 -24.873   6.363  0.00  0.00    +0.048 A 
ATOM     16 CL   LIG    1       22.824 -23.830   6.682  0.00  0.00    -0.083 Cl
ATOM     17  C   LIG    1       25.496 -24.485   6.648  0.00  0.00    -0.004 A 
ATOM     18  C   LIG    1       26.521 -25.398   6.360  0.00  0.00    +0.009 A 
ATOM     19  C   LIG    1       26.232 -26.661   5.832  0.00  0.00    +0.020 A 
ENDBRANCH  11  17
ENDBRANCH  10  11
ENDBRANCH   1  10
BRANCH   1  20
ATOM     20  C   LIG    1       27.732 -20.335   7.655  0.00  0.00    +0.159 C 
BRANCH  20  21
ATOM     21  N   LIG    1       29.037 -19.802   7.308  0.00  0.00    -0.334 N 
ATOM     22  C   LIG    1       29.320 -19.000   6.240  0.00  0.00    +0.199 A 
ATOM     23  N   LIG    1       30.600 -18.673   6.216  0.00  0.00    -0.244 NA
ATOM     24  C   LIG    1       31.147 -19.269   7.319  0.00  0.00    +0.130 A 
ATOM     25  C   LIG    1       30.194 -19.983   8.014  0.00  0.00    +0.107 A 
ENDBRANCH  20  21
ENDBRANCH   1  20
TORSDOF 6
ENDMDL
MODEL 5
REMARK VINA RESULT:      -8.3      3.280      6.654
REMARK  Name = *****
REMARK                            x       y       z     vdW  Elec       q    Type
REMARK                         _______ _______ _______ _____ _____    ______ ____
ROOT
ATOM      1  C   LIG    1       25.870 -21.985   6.350  0.00  0.00    +0.170 C 
ENDROOT
BRANCH   1   2
ATOM      2  C   LIG    1       24.818 -21.057   5.751  0.00  0.00    +0.001 A 
ATOM      3  C   LIG    1       23.550 -20.857   6.325  0.00  0.00    +0.048 A 
ATOM      4 CL   LIG    1       23.076 -21.636   7.792  0.00  0.00    -0.083 Cl
ATOM      5  C   LIG    1       22.622 -19.994   5.730  0.00  0.00    +0.040 A 
ATOM      6  C   LIG    1       22.956 -19.312   4.564  0.00  0.00    +0.042 A 
ATOM      7 CL   LIG    1       21.828 -18.233   3.843  0.00  0.00    -0.084 Cl
ATOM      8  C   LIG    1       24.204 -19.490   3.979  0.00  0.00    +0.020 A 
ATOM      9  C   LIG    1       25.121 -20.360   4.565  0.00  0.00    +0.009 A 
ENDBRANCH   1   2
BRANCH   1  10
ATOM     10  O   LIG    1       25.302 -23.274   6.717  0.00  0.00    -0.365 OA
BRANCH  10  11
ATOM     11  C   LIG    1       26.333 -24.273   6.858  0.00  0.00    +0.197 C 
BRANCH  11  17
ATOM     12 CL   LIG    1       23.994 -29.767   5.935  0.00  0.00    -0.084 Cl
ATOM     13  C   LIG    1       24.749 -28.233   6.136  0.00  0.00    +0.042 A 
ATOM     14  C   LIG    1       24.551 -27.235   5.188  0.00  0.00    +0.040 A 
ATOM     15  C   LIG    1       25.118 -25.971   5.389  0.00  0.00    +0.048 A 
ATOM     16 CL   LIG    1       24.793 -24.770   4.186  0.00  0.00    -0.083 Cl
ATOM     17  C   LIG    1       25.893 -25.689   6.534  0.00  0.00    -0.004 A 
ATOM     18  C   LIG    1       26.101 -26.724   7.458  0.00  0.00    +0.009 A 
ATOM     19  C   LIG    1       25.533 -27.988   7.260  0.00  0.00    +0.020 A 
ENDBRANCH  11  17
ENDBRANCH  10  11
ENDBRANCH   1  10
BRANCH   1  20
ATOM     20  C   LIG    1       26.609 -21.336   7.546  0.00  0.00    +0.159 C 
BRANCH  20  21
ATOM     21  N   LIG    1       27.935 -20.810   7.273  0.00  0.00    -0.334 N 
ATOM     22  C   LIG    1       28.245 -19.848   6.356  0.00  0.00    +0.199 A 
ATOM     23  N   LIG    1       29.539 -19.579   6.367  0.00  0.00    -0.244 NA
ATOM     24  C   LIG    1       30.068 -20.383   7.338  0.00  0.00    +0.130 A 
ATOM     25  C   LIG    1       29.090 -21.164   7.916  0.00  0.00    +0.107 A 
ENDBRANCH  20  21
ENDBRANCH   1  20
TORSDOF 6
ENDMDL
MODEL 6
REMARK VINA RESULT:      -8.3      1.618      2.354
REMARK  Name = *****
REMARK                            x       y       z     vdW  Elec       q    Type
REMARK                         _______ _______ _______ _____ _____    ______ ____
ROOT
ATOM      1  C   LIG    1       25.028 -23.225   6.054  0.00  0.00    +0.170 C 
ENDROOT
BRANCH   1   2
ATOM      2  C   LIG    1       24.275 -21.987   5.576  0.00  0.00    +0.001 A 
ATOM      3  C   LIG    1       23.396 -21.257   6.395  0.00  0.00    +0.048 A 
ATOM      4 CL   LIG    1       23.108 -21.688   8.043  0.00  0.00    -0.083 Cl
ATOM      5  C   LIG    1       22.728 -20.129   5.903  0.00  0.00    +0.040 A 
ATOM      6  C   LIG    1       22.943 -19.712   4.593  0.00  0.00    +0.042 A 
ATOM      7 CL   LIG    1       22.144 -18.313   3.992  0.00  0.00    -0.084 Cl
ATOM      8  C   LIG    1       23.810 -20.415   3.765  0.00  0.00    +0.020 A 
ATOM      9  C   LIG    1       24.462 -21.546   4.252  0.00  0.00    +0.009 A 
ENDBRANCH   1   2
BRANCH   1  10
ATOM     10  O   LIG    1       26.396 -22.908   6.434  0.00  0.00    -0.365 OA
BRANCH  10  11
ATOM     11  C   LIG    1       26.432 -21.838   7.401  0.00  0.00    +0.197 C 
BRANCH  11  17
ATOM     12 CL   LIG    1       31.844 -19.175   7.070  0.00  0.00    -0.084 Cl
ATOM     13  C   LIG    1       30.267 -19.846   7.225  0.00  0.00    +0.042 A 
ATOM     14  C   LIG    1       29.274 -19.497   6.317  0.00  0.00    +0.040 A 
ATOM     15  C   LIG    1       28.011 -20.093   6.413  0.00  0.00    +0.048 A 
ATOM     16 CL   LIG    1       26.841 -19.638   5.222  0.00  0.00    -0.083 Cl
ATOM     17  C   LIG    1       27.722 -21.041   7.419  0.00  0.00    -0.004 A 
ATOM     18  C   LIG    1       28.734 -21.350   8.339  0.00  0.00    +0.009 A 
ATOM     19  C   LIG    1       29.998 -20.757   8.243  0.00  0.00    +0.020 A 
ENDBRANCH  11  17
ENDBRANCH  10  11
ENDBRANCH   1  10
BRANCH   1  20
ATOM     20  C   LIG    1       24.985 -24.373   5.015  0.00  0.00    +0.159 C 
BRANCH  20  21
ATOM     21  N   LIG    1       25.124 -25.720   5.539  0.00  0.00    -0.334 N 
ATOM     22  C   LIG    1       24.104 -26.537   5.934  0.00  0.00    +0.199 A 
ATOM     23  N   LIG    1       24.562 -27.707   6.344  0.00  0.00    -0.244 NA
ATOM     24  C   LIG    1       25.919 -27.640   6.185  0.00  0.00    +0.130 A 
ATOM     25  C   LIG    1       26.295 -26.410   5.688  0.00  0.00    +0.107 A 
ENDBRANCH  20  21
ENDBRANCH   1  20
TORSDOF 6
ENDMDL
MODEL 7
REMARK VINA RESULT:      -7.6      2.880      5.005
REMARK  Name = *****
REMARK                            x       y       z     vdW  Elec       q    Type
REMARK                         _______ _______ _______ _____ _____    ______ ____
ROOT
ATOM      1  C   LIG    1       24.996 -21.925   5.387  0.00  0.00    +0.170 C 
ENDROOT
BRANCH   1   2
ATOM      2  C   LIG    1       25.152 -23.406   5.717  0.00  0.00    +0.001 A 
ATOM      3  C   LIG    1       25.525 -23.877   6.988  0.00  0.00    +0.048 A 
ATOM      4 CL   LIG    1       25.816 -22.806   8.312  0.00  0.00    -0.083 Cl
ATOM      5  C   LIG    1       25.656 -25.249   7.235  0.00  0.00    +0.040 A 
ATOM      6  C   LIG    1       25.403 -26.164   6.217  0.00  0.00    +0.042 A 
ATOM      7 CL   LIG    1       25.540 -27.851   6.521  0.00  0.00    -0.084 Cl
ATOM      8  C   LIG    1       25.031 -25.724   4.953  0.00  0.00    +0.020 A 
ATOM      9  C   LIG    1       24.914 -24.357   4.706  0.00  0.00    +0.009 A 
ENDBRANCH   1   2
BRANCH   1  10
ATOM     10  O   LIG    1       25.768 -21.088   6.293  0.00  0.00    -0.365 OA
BRANCH  10  11
ATOM     11  C   LIG    1       26.877 -20.469   5.609  0.00  0.00    +0.197 C 
BRANCH  11  17
ATOM     12 CL   LIG    1       31.982 -19.612   8.724  0.00  0.00    -0.084 Cl
ATOM     13  C   LIG    1       30.478 -19.782   7.905  0.00  0.00    +0.042 A 
ATOM     14  C   LIG    1       30.151 -18.911   6.872  0.00  0.00    +0.040 A 
ATOM     15  C   LIG    1       28.953 -19.093   6.170  0.00  0.00    +0.048 A 
ATOM     16 CL   LIG    1       28.635 -17.994   4.871  0.00  0.00    -0.083 Cl
ATOM     17  C   LIG    1       28.066 -20.142   6.494  0.00  0.00    -0.004 A 
ATOM     18  C   LIG    1       28.409 -20.986   7.561  0.00  0.00    +0.009 A 
ATOM     19  C   LIG    1       29.607 -20.807   8.262  0.00  0.00    +0.020 A 
ENDBRANCH  11  17
ENDBRANCH  10  11
ENDBRANCH   1  10
BRANCH   1  20
ATOM     20  C   LIG    1       23.511 -21.488   5.347  0.00  0.00    +0.159 C 
BRANCH  20  21
ATOM     21  N   LIG    1       23.244 -20.162   4.819  0.00  0.00    -0.334 N 
ATOM     22  C   LIG    1       23.896 -19.565   3.779  0.00  0.00    +0.199 A 
ATOM     23  N   LIG    1       23.402 -18.364   3.533  0.00  0.00    -0.244 NA
ATOM     24  C   LIG    1       22.387 -18.199   4.434  0.00  0.00    +0.130 A 
ATOM     25  C   LIG    1       22.271 -19.304   5.251  0.00  0.00    +0.107 A 
ENDBRANCH  20  21
ENDBRANCH   1  20
TORSDOF 6
ENDMDL
MODEL 8
REMARK VINA RESULT:      -7.5      2.460      4.550
REMARK  Name = *****
REMARK                            x       y       z     vdW  Elec       q    Type
REMARK                         _______ _______ _______ _____ _____    ______ ____
ROOT
ATOM      1  C   LIG    1       25.587 -22.203   6.565  0.00  0.00    +0.170 C 
ENDROOT
BRANCH   1   2
ATOM      2  C   LIG    1       25.241 -23.685   6.449  0.00  0.00    +0.001 A 
ATOM      3  C   LIG    1       23.927 -24.178   6.534  0.00  0.00    +0.048 A 
ATOM      4 CL   LIG    1       22.569 -23.134   6.754  0.00  0.00    -0.083 Cl
ATOM      5  C   LIG    1       23.668 -25.550   6.423  0.00  0.00    +0.040 A 
ATOM      6  C   LIG    1       24.718 -26.439   6.214  0.00  0.00    +0.042 A 
ATOM      7 CL   LIG    1       24.402 -28.122   6.053  0.00  0.00    -0.084 Cl
ATOM      8  C   LIG    1       26.025 -25.976   6.123  0.00  0.00    +0.020 A 
ATOM      9  C   LIG    1       26.282 -24.612   6.247  0.00  0.00    +0.009 A 
ENDBRANCH   1   2
BRANCH   1  10
ATOM     10  O   LIG    1       26.614 -21.967   7.568  0.00  0.00    -0.365 OA
BRANCH  10  11
ATOM     11  C   LIG    1       27.933 -22.049   6.989  0.00  0.00    +0.197 C 
BRANCH  11  17
ATOM     12 CL   LIG    1       32.207 -17.984   8.295  0.00  0.00    -0.084 Cl
ATOM     13  C   LIG    1       30.921 -19.087   7.992  0.00  0.00    +0.042 A 
ATOM     14  C   LIG    1       29.987 -18.806   7.002  0.00  0.00    +0.040 A 
ATOM     15  C   LIG    1       28.979 -19.736   6.720  0.00  0.00    +0.048 A 
ATOM     16 CL   LIG    1       27.879 -19.333   5.446  0.00  0.00    -0.083 Cl
ATOM     17  C   LIG    1       28.888 -20.955   7.427  0.00  0.00    -0.004 A 
ATOM     18  C   LIG    1       29.826 -21.197   8.442  0.00  0.00    +0.009 A 
ATOM     19  C   LIG    1       30.835 -20.269   8.723  0.00  0.00    +0.020 A 
ENDBRANCH  11  17
ENDBRANCH  10  11
ENDBRANCH   1  10
BRANCH   1  20
ATOM     20  C   LIG    1       24.335 -21.330   6.827  0.00  0.00    +0.159 C 
BRANCH  20  21
ATOM     21  N   LIG    1       23.903 -20.479   5.733  0.00  0.00    -0.334 N 
ATOM     22  C   LIG    1       24.591 -20.245   4.577  0.00  0.00    +0.199 A 
ATOM     23  N   LIG    1       23.916 -19.439   3.776  0.00  0.00    -0.244 NA
ATOM     24  C   LIG    1       22.750 -19.167   4.436  0.00  0.00    +0.130 A 
ATOM     25  C   LIG    1       22.718 -19.800   5.660  0.00  0.00    +0.107 A 
ENDBRANCH  20  21
ENDBRANCH   1  20
TORSDOF 6
ENDMDL
MODEL 9
REMARK VINA RESULT:      -7.3      3.200      6.729
REMARK  Name = *****
REMARK                            x       y       z     vdW  Elec       q    Type
REMARK                         _______ _______ _______ _____ _____    ______ ____
ROOT
ATOM      1  C   LIG    1       25.968 -21.488   7.613  0.00  0.00    +0.170 C 
ENDROOT
BRANCH   1   2
ATOM      2  C   LIG    1       25.449 -22.842   7.136  0.00  0.00    +0.001 A 
ATOM      3  C   LIG    1       24.087 -23.191   7.143  0.00  0.00    +0.048 A 
ATOM      4 CL   LIG    1       22.864 -22.093   7.675  0.00  0.00    -0.083 Cl
ATOM      5  C   LIG    1       23.667 -24.449   6.696  0.00  0.00    +0.040 A 
ATOM      6  C   LIG    1       24.603 -25.366   6.226  0.00  0.00    +0.042 A 
ATOM      7 CL   LIG    1       24.090 -26.904   5.653  0.00  0.00    -0.084 Cl
ATOM      8  C   LIG    1       25.954 -25.044   6.206  0.00  0.00    +0.020 A 
ATOM      9  C   LIG    1       26.371 -23.796   6.664  0.00  0.00    +0.009 A 
ENDBRANCH   1   2
BRANCH   1  10
ATOM     10  O   LIG    1       25.862 -20.476   6.574  0.00  0.00    -0.365 OA
BRANCH  10  11
ATOM     11  C   LIG    1       25.431 -21.057   5.325  0.00  0.00    +0.197 C 
BRANCH  11  17
ATOM     12 CL   LIG    1       20.454 -18.147   3.519  0.00  0.00    -0.084 Cl
ATOM     13  C   LIG    1       21.874 -19.026   3.933  0.00  0.00    +0.042 A 
ATOM     14  C   LIG    1       23.124 -18.514   3.606  0.00  0.00    +0.040 A 
ATOM     15  C   LIG    1       24.277 -19.205   3.999  0.00  0.00    +0.048 A 
ATOM     16 CL   LIG    1       25.797 -18.485   3.591  0.00  0.00    -0.083 Cl
ATOM     17  C   LIG    1       24.196 -20.417   4.720  0.00  0.00    -0.004 A 
ATOM     18  C   LIG    1       22.920 -20.924   5.009  0.00  0.00    +0.009 A 
ATOM     19  C   LIG    1       21.767 -20.234   4.618  0.00  0.00    +0.020 A 
ENDBRANCH  11  17
ENDBRANCH  10  11
ENDBRANCH   1  10
BRANCH   1  20
ATOM     20  C   LIG    1       27.411 -21.577   8.166  0.00  0.00    +0.159 C 
BRANCH  20  21
ATOM     21  N   LIG    1       28.362 -20.613   7.639  0.00  0.00    -0.334 N 
ATOM     22  C   LIG    1       28.812 -19.496   8.280  0.00  0.00    +0.199 A 
ATOM     23  N   LIG    1       29.686 -18.839   7.537  0.00  0.00    -0.244 NA
ATOM     24  C   LIG    1       29.812 -19.575   6.392  0.00  0.00    +0.130 A 
ATOM     25  C   LIG    1       28.994 -20.685   6.428  0.00  0.00    +0.107 A 
ENDBRANCH  20  21
ENDBRANCH   1  20
TORSDOF 6
ENDMDL
