MODEL 1
REMARK VINA RESULT:      -8.8      0.000      0.000
REMARK  Name = *****
REMARK                            x       y       z     vdW  Elec       q    Type
REMARK                         _______ _______ _______ _____ _____    ______ ____
ROOT
ATOM      1  C   LIG    1       24.730 -32.881  10.032  0.00  0.00    +0.299 A 
ATOM      2  N   LIG    1       24.426 -31.736   9.318  0.00  0.00    -0.289 N 
ATOM      3  C   LIG    1       25.085 -31.812   8.090  0.00  0.00    +0.086 A 
ATOM      4  C   LIG    1       25.911 -32.936   8.268  0.00  0.00    +0.093 A 
ATOM      5  C   LIG    1       26.865 -33.296   7.304  0.00  0.00    +0.030 A 
ATOM      6  C   LIG    1       26.959 -32.567   6.128  0.00  0.00    +0.003 A 
ATOM      7  C   LIG    1       26.081 -31.517   5.903  0.00  0.00    +0.017 A 
ATOM      8  C   LIG    1       25.113 -31.105   6.855  0.00  0.00    +0.085 A 
ATOM      9  N   LIG    1       25.655 -33.590   9.438  0.00  0.00    -0.195 NA
ENDROOT
BRANCH   8  10
ATOM     10  C   LIG    1       24.240 -29.963   6.479  0.00  0.00    +0.344 C 
ATOM     11  O   LIG    1       23.296 -30.007   5.720  0.00  0.00    -0.245 OA
BRANCH  10  12
ATOM     12  O   LIG    1       24.655 -28.839   7.144  0.00  0.00    -0.421 OA
BRANCH  12  13
ATOM     13  C   LIG    1       24.976 -27.683   6.354  0.00  0.00    +0.371 C 
ATOM     14  C   LIG    1       26.092 -26.921   7.072  0.00  0.00    +0.101 C 
BRANCH  13  15
ATOM     15  O   LIG    1       23.945 -26.710   6.133  0.00  0.00    -0.394 OA
BRANCH  15  16
ATOM     16  C   LIG    1       24.289 -25.469   5.758  0.00  0.00    +0.513 C 
ATOM     17  O   LIG    1       24.903 -25.152   4.740  0.00  0.00    -0.203 OA
BRANCH  16  18
ATOM     18  O   LIG    1       23.841 -24.603   6.677  0.00  0.00    -0.430 OA
BRANCH  18  19
ATOM     19  C   LIG    1       24.326 -23.252   6.619  0.00  0.00    +0.180 C 
ATOM     20  C   LIG    1       25.641 -23.284   7.400  0.00  0.00    +0.045 C 
ATOM     21  C   LIG    1       26.314 -21.921   7.422  0.00  0.00    +0.003 C 
ATOM     22  C   LIG    1       25.388 -20.853   7.993  0.00  0.00    +0.000 C 
ATOM     23  C   LIG    1       24.069 -20.799   7.228  0.00  0.00    +0.003 C 
ATOM     24  C   LIG    1       23.398 -22.175   7.208  0.00  0.00    +0.045 C 
ENDBRANCH  18  19
ENDBRANCH  16  18
ENDBRANCH  15  16
ENDBRANCH  13  15
ENDBRANCH  12  13
ENDBRANCH  10  12
ENDBRANCH   8  10
BRANCH   1  25
ATOM     25  O   LIG    1       24.175 -33.201  11.205  0.00  0.00    -0.464 OA
BRANCH  25  27
ATOM     26  C   LIG    1       24.711 -32.541  13.483  0.00  0.00    +0.048 C 
ATOM     27  C   LIG    1       25.134 -33.344  12.262  0.00  0.00    +0.229 C 
ENDBRANCH  25  27
ENDBRANCH   1  25
BRANCH   2  28
ATOM     28  C   LIG    1       23.700 -30.616   9.916  0.00  0.00    +0.162 C 
BRANCH  28  29
ATOM     29  C   LIG    1       24.530 -29.735  10.820  0.00  0.00    -0.028 A 
ATOM     30  C   LIG    1       25.833 -29.358  10.502  0.00  0.00    +0.006 A 
ATOM     31  C   LIG    1       26.602 -28.566  11.366  0.00  0.00    +0.009 A 
ATOM     32  C   LIG    1       26.096 -28.062  12.578  0.00  0.00    -0.017 A 
ATOM     33  C   LIG    1       24.779 -28.451  12.881  0.00  0.00    +0.009 A 
ATOM     34  C   LIG    1       24.025 -29.301  12.049  0.00  0.00    +0.006 A 
BRANCH  32  35
ATOM     35  C   LIG    1       26.911 -27.123  13.428  0.00  0.00    -0.007 A 
ATOM     36  C   LIG    1       27.872 -27.490  14.409  0.00  0.00    +0.030 A 
ATOM     37  C   LIG    1       28.521 -26.490  15.181  0.00  0.00    +0.012 A 
ATOM     38  C   LIG    1       28.265 -25.138  15.006  0.00  0.00    +0.001 A 
ATOM     39  C   LIG    1       27.346 -24.754  14.049  0.00  0.00    +0.001 A 
ATOM     40  C   LIG    1       26.681 -25.725  13.288  0.00  0.00    +0.009 A 
BRANCH  36  41
ATOM     41  C   LIG    1       28.263 -28.857  14.734  0.00  0.00    +0.205 A 
ATOM     42  N   LIG    1       27.368 -29.825  15.018  0.00  0.00    -0.133 NA
ATOM     43  N   LIG    1       28.190 -30.855  15.232  0.00  0.00    -0.176 N 
ATOM     44  H   LIG    1       27.847 -31.766  15.523  0.00  0.00    +0.214 HD
ATOM     45  N   LIG    1       29.492 -30.610  15.073  0.00  0.00    -0.049 NA
ATOM     46  N   LIG    1       29.557 -29.311  14.817  0.00  0.00    -0.108 NA
ENDBRANCH  36  41
ENDBRANCH  32  35
ENDBRANCH  28  29
ENDBRANCH   2  28
TORSDOF 13
ENDMDL
MODEL 2
REMARK VINA RESULT:      -8.2      3.115      4.411
REMARK  Name = *****
REMARK                            x       y       z     vdW  Elec       q    Type
REMARK                         _______ _______ _______ _____ _____    ______ ____
ROOT
ATOM      1  C   LIG    1       26.397 -32.753   8.943  0.00  0.00    +0.299 A 
ATOM      2  N   LIG    1       26.057 -31.543   8.367  0.00  0.00    -0.289 N 
ATOM      3  C   LIG    1       25.859 -31.761   7.002  0.00  0.00    +0.086 A 
ATOM      4  C   LIG    1       26.312 -33.084   6.847  0.00  0.00    +0.093 A 
ATOM      5  C   LIG    1       26.420 -33.670   5.576  0.00  0.00    +0.030 A 
ATOM      6  C   LIG    1       26.021 -32.956   4.457  0.00  0.00    +0.003 A 
ATOM      7  C   LIG    1       25.481 -31.687   4.611  0.00  0.00    +0.017 A 
ATOM      8  C   LIG    1       25.369 -31.046   5.873  0.00  0.00    +0.085 A 
ATOM      9  N   LIG    1       26.601 -33.678   8.041  0.00  0.00    -0.195 NA
ENDROOT
BRANCH   8  10
ATOM     10  C   LIG    1       24.773 -29.685   5.888  0.00  0.00    +0.344 C 
ATOM     11  O   LIG    1       23.701 -29.383   6.367  0.00  0.00    -0.245 OA
BRANCH  10  12
ATOM     12  O   LIG    1       25.636 -28.807   5.289  0.00  0.00    -0.421 OA
BRANCH  12  13
ATOM     13  C   LIG    1       25.597 -27.438   5.724  0.00  0.00    +0.371 C 
ATOM     14  C   LIG    1       26.000 -27.404   7.200  0.00  0.00    +0.101 C 
BRANCH  13  15
ATOM     15  O   LIG    1       24.339 -26.749   5.666  0.00  0.00    -0.394 OA
BRANCH  15  16
ATOM     16  C   LIG    1       24.328 -25.438   5.381  0.00  0.00    +0.513 C 
ATOM     17  O   LIG    1       25.009 -24.864   4.532  0.00  0.00    -0.203 OA
BRANCH  16  18
ATOM     18  O   LIG    1       23.429 -24.836   6.171  0.00  0.00    -0.430 OA
BRANCH  18  19
ATOM     19  C   LIG    1       23.890 -23.775   7.024  0.00  0.00    +0.180 C 
ATOM     20  C   LIG    1       23.214 -22.519   6.473  0.00  0.00    +0.045 C 
ATOM     21  C   LIG    1       23.576 -21.285   7.283  0.00  0.00    +0.003 C 
ATOM     22  C   LIG    1       25.086 -21.086   7.346  0.00  0.00    +0.000 C 
ATOM     23  C   LIG    1       25.785 -22.326   7.896  0.00  0.00    +0.003 C 
ATOM     24  C   LIG    1       25.413 -23.565   7.078  0.00  0.00    +0.045 C 
ENDBRANCH  18  19
ENDBRANCH  16  18
ENDBRANCH  15  16
ENDBRANCH  13  15
ENDBRANCH  12  13
ENDBRANCH  10  12
ENDBRANCH   8  10
BRANCH   1  25
ATOM     25  O   LIG    1       26.541 -32.941  10.258  0.00  0.00    -0.464 OA
BRANCH  25  27
ATOM     26  C   LIG    1       25.076 -33.007  12.198  0.00  0.00    +0.048 C 
ATOM     27  C   LIG    1       25.429 -33.625  10.854  0.00  0.00    +0.229 C 
ENDBRANCH  25  27
ENDBRANCH   1  25
BRANCH   2  28
ATOM     28  C   LIG    1       26.119 -30.283   9.107  0.00  0.00    +0.162 C 
BRANCH  28  29
ATOM     29  C   LIG    1       24.943 -30.028  10.021  0.00  0.00    -0.028 A 
ATOM     30  C   LIG    1       25.083 -29.420  11.266  0.00  0.00    +0.006 A 
ATOM     31  C   LIG    1       23.988 -29.220  12.116  0.00  0.00    +0.009 A 
ATOM     32  C   LIG    1       22.675 -29.571  11.750  0.00  0.00    -0.017 A 
ATOM     33  C   LIG    1       22.552 -30.182  10.489  0.00  0.00    +0.009 A 
ATOM     34  C   LIG    1       23.660 -30.446   9.659  0.00  0.00    +0.006 A 
BRANCH  32  35
ATOM     35  C   LIG    1       21.506 -29.241  12.640  0.00  0.00    -0.007 A 
ATOM     36  C   LIG    1       20.612 -30.169  13.239  0.00  0.00    +0.030 A 
ATOM     37  C   LIG    1       19.512 -29.704  14.009  0.00  0.00    +0.012 A 
ATOM     38  C   LIG    1       19.275 -28.354  14.221  0.00  0.00    +0.001 A 
ATOM     39  C   LIG    1       20.138 -27.432  13.662  0.00  0.00    +0.001 A 
ATOM     40  C   LIG    1       21.220 -27.868  12.884  0.00  0.00    +0.009 A 
BRANCH  36  41
ATOM     41  C   LIG    1       20.700 -31.619  13.121  0.00  0.00    +0.205 A 
ATOM     42  N   LIG    1       21.719 -32.334  13.641  0.00  0.00    -0.133 NA
ATOM     43  N   LIG    1       21.351 -33.568  13.286  0.00  0.00    -0.176 N 
ATOM     44  H   LIG    1       21.931 -34.378  13.482  0.00  0.00    +0.214 HD
ATOM     45  N   LIG    1       20.193 -33.670  12.632  0.00  0.00    -0.049 NA
ATOM     46  N   LIG    1       19.796 -32.416  12.462  0.00  0.00    -0.108 NA
ENDBRANCH  36  41
ENDBRANCH  32  35
ENDBRANCH  28  29
ENDBRANCH   2  28
TORSDOF 13
ENDMDL
MODEL 3
REMARK VINA RESULT:      -8.2      2.111      2.749
REMARK  Name = *****
REMARK                            x       y       z     vdW  Elec       q    Type
REMARK                         _______ _______ _______ _____ _____    ______ ____
ROOT
ATOM      1  C   LIG    1       24.915 -32.777   9.865  0.00  0.00    +0.299 A 
ATOM      2  N   LIG    1       25.399 -31.912   8.900  0.00  0.00    -0.289 N 
ATOM      3  C   LIG    1       24.628 -32.082   7.750  0.00  0.00    +0.086 A 
ATOM      4  C   LIG    1       23.858 -33.214   8.075  0.00  0.00    +0.093 A 
ATOM      5  C   LIG    1       23.026 -33.825   7.125  0.00  0.00    +0.030 A 
ATOM      6  C   LIG    1       22.913 -33.272   5.858  0.00  0.00    +0.003 A 
ATOM      7  C   LIG    1       23.593 -32.100   5.561  0.00  0.00    +0.017 A 
ATOM      8  C   LIG    1       24.460 -31.456   6.482  0.00  0.00    +0.085 A 
ATOM      9  N   LIG    1       24.024 -33.599   9.374  0.00  0.00    -0.195 NA
ENDROOT
BRANCH   8  10
ATOM     10  C   LIG    1       25.124 -30.208   6.027  0.00  0.00    +0.344 C 
ATOM     11  O   LIG    1       25.846 -30.097   5.060  0.00  0.00    -0.245 OA
BRANCH  10  12
ATOM     12  O   LIG    1       24.778 -29.181   6.865  0.00  0.00    -0.421 OA
BRANCH  12  13
ATOM     13  C   LIG    1       25.079 -27.843   6.434  0.00  0.00    +0.371 C 
ATOM     14  C   LIG    1       26.005 -27.212   7.475  0.00  0.00    +0.101 C 
BRANCH  13  15
ATOM     15  O   LIG    1       23.989 -26.919   6.297  0.00  0.00    -0.394 OA
BRANCH  15  16
ATOM     16  C   LIG    1       24.228 -25.702   5.788  0.00  0.00    +0.513 C 
ATOM     17  O   LIG    1       24.840 -25.445   4.752  0.00  0.00    -0.203 OA
BRANCH  16  18
ATOM     18  O   LIG    1       23.673 -24.785   6.592  0.00  0.00    -0.430 OA
BRANCH  18  19
ATOM     19  C   LIG    1       24.186 -23.444   6.534  0.00  0.00    +0.180 C 
ATOM     20  C   LIG    1       25.484 -23.494   7.341  0.00  0.00    +0.045 C 
ATOM     21  C   LIG    1       26.182 -22.144   7.366  0.00  0.00    +0.003 C 
ATOM     22  C   LIG    1       25.265 -21.054   7.910  0.00  0.00    +0.000 C 
ATOM     23  C   LIG    1       23.963 -20.981   7.119  0.00  0.00    +0.003 C 
ATOM     24  C   LIG    1       23.266 -22.345   7.095  0.00  0.00    +0.045 C 
ENDBRANCH  18  19
ENDBRANCH  16  18
ENDBRANCH  15  16
ENDBRANCH  13  15
ENDBRANCH  12  13
ENDBRANCH  10  12
ENDBRANCH   8  10
BRANCH   1  25
ATOM     25  O   LIG    1       25.339 -32.798  11.132  0.00  0.00    -0.464 OA
BRANCH  25  27
ATOM     26  C   LIG    1       24.777 -31.538  13.135  0.00  0.00    +0.048 C 
ATOM     27  C   LIG    1       24.298 -32.523  12.079  0.00  0.00    +0.229 C 
ENDBRANCH  25  27
ENDBRANCH   1  25
BRANCH   2  28
ATOM     28  C   LIG    1       26.630 -31.146   9.090  0.00  0.00    +0.162 C 
BRANCH  28  29
ATOM     29  C   LIG    1       26.530 -30.029  10.101  0.00  0.00    -0.028 A 
ATOM     30  C   LIG    1       27.592 -29.673  10.930  0.00  0.00    +0.006 A 
ATOM     31  C   LIG    1       27.473 -28.656  11.885  0.00  0.00    +0.009 A 
ATOM     32  C   LIG    1       26.298 -27.897  12.037  0.00  0.00    -0.017 A 
ATOM     33  C   LIG    1       25.237 -28.269  11.192  0.00  0.00    +0.009 A 
ATOM     34  C   LIG    1       25.329 -29.334  10.276  0.00  0.00    +0.006 A 
BRANCH  32  35
ATOM     35  C   LIG    1       26.241 -26.738  12.998  0.00  0.00    -0.007 A 
ATOM     36  C   LIG    1       25.098 -26.289  13.712  0.00  0.00    +0.030 A 
ATOM     37  C   LIG    1       25.181 -25.137  14.540  0.00  0.00    +0.012 A 
ATOM     38  C   LIG    1       26.360 -24.423  14.698  0.00  0.00    +0.001 A 
ATOM     39  C   LIG    1       27.489 -24.849  14.026  0.00  0.00    +0.001 A 
ATOM     40  C   LIG    1       27.425 -25.973  13.190  0.00  0.00    +0.009 A 
BRANCH  36  41
ATOM     41  C   LIG    1       23.778 -26.907  13.664  0.00  0.00    +0.205 A 
ATOM     42  N   LIG    1       23.551 -28.177  14.060  0.00  0.00    -0.133 NA
ATOM     43  N   LIG    1       22.238 -28.265  13.837  0.00  0.00    -0.176 N 
ATOM     44  H   LIG    1       21.724 -29.129  13.985  0.00  0.00    +0.214 HD
ATOM     45  N   LIG    1       21.644 -27.162  13.375  0.00  0.00    -0.049 NA
ATOM     46  N   LIG    1       22.637 -26.301  13.198  0.00  0.00    -0.108 NA
ENDBRANCH  36  41
ENDBRANCH  32  35
ENDBRANCH  28  29
ENDBRANCH   2  28
TORSDOF 13
ENDMDL
MODEL 4
REMARK VINA RESULT:      -8.1      4.107      8.009
REMARK  Name = *****
REMARK                            x       y       z     vdW  Elec       q    Type
REMARK                         _______ _______ _______ _____ _____    ______ ____
ROOT
ATOM      1  C   LIG    1       24.498 -29.975   6.691  0.00  0.00    +0.299 A 
ATOM      2  N   LIG    1       25.310 -29.244   7.538  0.00  0.00    -0.289 N 
ATOM      3  C   LIG    1       24.908 -29.508   8.848  0.00  0.00    +0.086 A 
ATOM      4  C   LIG    1       23.723 -30.240   8.650  0.00  0.00    +0.093 A 
ATOM      5  C   LIG    1       22.901 -30.596   9.731  0.00  0.00    +0.030 A 
ATOM      6  C   LIG    1       23.289 -30.274  11.022  0.00  0.00    +0.003 A 
ATOM      7  C   LIG    1       24.505 -29.640  11.232  0.00  0.00    +0.017 A 
ATOM      8  C   LIG    1       25.361 -29.243  10.172  0.00  0.00    +0.085 A 
ATOM      9  N   LIG    1       23.511 -30.541   7.336  0.00  0.00    -0.195 NA
ENDROOT
BRANCH   8  10
ATOM     10  C   LIG    1       26.632 -28.570  10.544  0.00  0.00    +0.344 C 
ATOM     11  O   LIG    1       27.722 -28.793  10.064  0.00  0.00    -0.245 OA
BRANCH  10  12
ATOM     12  O   LIG    1       26.381 -27.634  11.512  0.00  0.00    -0.421 OA
BRANCH  12  13
ATOM     13  C   LIG    1       27.263 -27.601  12.647  0.00  0.00    +0.371 C 
ATOM     14  C   LIG    1       27.353 -29.020  13.211  0.00  0.00    +0.101 C 
BRANCH  13  15
ATOM     15  O   LIG    1       26.893 -26.780  13.764  0.00  0.00    -0.394 OA
BRANCH  15  16
ATOM     16  C   LIG    1       26.039 -25.764  13.570  0.00  0.00    +0.513 C 
ATOM     17  O   LIG    1       26.210 -24.789  12.838  0.00  0.00    -0.203 OA
BRANCH  16  18
ATOM     18  O   LIG    1       24.938 -25.983  14.301  0.00  0.00    -0.430 OA
BRANCH  18  19
ATOM     19  C   LIG    1       24.074 -27.060  13.906  0.00  0.00    +0.180 C 
ATOM     20  C   LIG    1       22.793 -26.371  13.433  0.00  0.00    +0.045 C 
ATOM     21  C   LIG    1       21.760 -27.376  12.950  0.00  0.00    +0.003 C 
ATOM     22  C   LIG    1       21.437 -28.403  14.030  0.00  0.00    +0.000 C 
ATOM     23  C   LIG    1       22.699 -29.108  14.517  0.00  0.00    +0.003 C 
ATOM     24  C   LIG    1       23.736 -28.090  14.999  0.00  0.00    +0.045 C 
ENDBRANCH  18  19
ENDBRANCH  16  18
ENDBRANCH  15  16
ENDBRANCH  13  15
ENDBRANCH  12  13
ENDBRANCH  10  12
ENDBRANCH   8  10
BRANCH   1  25
ATOM     25  O   LIG    1       24.676 -30.058   5.369  0.00  0.00    -0.464 OA
BRANCH  25  27
ATOM     26  C   LIG    1       25.179 -32.414   5.036  0.00  0.00    +0.048 C 
ATOM     27  C   LIG    1       25.704 -30.987   4.996  0.00  0.00    +0.229 C 
ENDBRANCH  25  27
ENDBRANCH   1  25
BRANCH   2  28
ATOM     28  C   LIG    1       26.257 -28.247   7.039  0.00  0.00    +0.162 C 
BRANCH  28  29
ATOM     29  C   LIG    1       25.682 -26.862   6.862  0.00  0.00    -0.028 A 
ATOM     30  C   LIG    1       26.430 -25.708   7.089  0.00  0.00    +0.006 A 
ATOM     31  C   LIG    1       25.873 -24.430   6.952  0.00  0.00    +0.009 A 
ATOM     32  C   LIG    1       24.546 -24.227   6.530  0.00  0.00    -0.017 A 
ATOM     33  C   LIG    1       23.807 -25.402   6.303  0.00  0.00    +0.009 A 
ATOM     34  C   LIG    1       24.342 -26.689   6.504  0.00  0.00    +0.006 A 
BRANCH  32  35
ATOM     35  C   LIG    1       24.013 -22.840   6.286  0.00  0.00    -0.007 A 
ATOM     36  C   LIG    1       24.659 -21.617   6.613  0.00  0.00    +0.030 A 
ATOM     37  C   LIG    1       24.003 -20.378   6.378  0.00  0.00    +0.012 A 
ATOM     38  C   LIG    1       22.737 -20.306   5.815  0.00  0.00    +0.001 A 
ATOM     39  C   LIG    1       22.094 -21.481   5.475  0.00  0.00    +0.001 A 
ATOM     40  C   LIG    1       22.715 -22.714   5.714  0.00  0.00    +0.009 A 
BRANCH  36  41
ATOM     41  C   LIG    1       25.982 -21.498   7.213  0.00  0.00    +0.205 A 
ATOM     42  N   LIG    1       27.089 -21.221   6.493  0.00  0.00    -0.133 NA
ATOM     43  N   LIG    1       28.008 -21.212   7.462  0.00  0.00    -0.176 N 
ATOM     44  H   LIG    1       28.995 -21.076   7.264  0.00  0.00    +0.214 HD
ATOM     45  N   LIG    1       27.558 -21.424   8.700  0.00  0.00    -0.049 NA
ATOM     46  N   LIG    1       26.265 -21.675   8.545  0.00  0.00    -0.108 NA
ENDBRANCH  36  41
ENDBRANCH  32  35
ENDBRANCH  28  29
ENDBRANCH   2  28
TORSDOF 13
ENDMDL
MODEL 5
REMARK VINA RESULT:      -8.0      1.871      2.417
REMARK  Name = *****
REMARK                            x       y       z     vdW  Elec       q    Type
REMARK                         _______ _______ _______ _____ _____    ______ ____
ROOT
ATOM      1  C   LIG    1       24.175 -32.980   9.330  0.00  0.00    +0.299 A 
ATOM      2  N   LIG    1       24.168 -31.726   8.748  0.00  0.00    -0.289 N 
ATOM      3  C   LIG    1       24.816 -31.824   7.516  0.00  0.00    +0.086 A 
ATOM      4  C   LIG    1       25.349 -33.125   7.566  0.00  0.00    +0.093 A 
ATOM      5  C   LIG    1       26.212 -33.596   6.564  0.00  0.00    +0.030 A 
ATOM      6  C   LIG    1       26.502 -32.788   5.475  0.00  0.00    +0.003 A 
ATOM      7  C   LIG    1       25.902 -31.541   5.370  0.00  0.00    +0.017 A 
ATOM      8  C   LIG    1       25.038 -31.015   6.366  0.00  0.00    +0.085 A 
ATOM      9  N   LIG    1       24.920 -33.820   8.659  0.00  0.00    -0.195 NA
ENDROOT
BRANCH   8  10
ATOM     10  C   LIG    1       24.469 -29.664   6.121  0.00  0.00    +0.344 C 
ATOM     11  O   LIG    1       23.386 -29.426   5.632  0.00  0.00    -0.245 OA
BRANCH  10  12
ATOM     12  O   LIG    1       25.357 -28.715   6.555  0.00  0.00    -0.421 OA
BRANCH  12  13
ATOM     13  C   LIG    1       25.329 -27.435   5.902  0.00  0.00    +0.371 C 
ATOM     14  C   LIG    1       26.645 -26.721   6.215  0.00  0.00    +0.101 C 
BRANCH  13  15
ATOM     15  O   LIG    1       24.303 -26.507   6.284  0.00  0.00    -0.394 OA
BRANCH  15  16
ATOM     16  C   LIG    1       24.292 -25.285   5.732  0.00  0.00    +0.513 C 
ATOM     17  O   LIG    1       24.623 -24.994   4.583  0.00  0.00    -0.203 OA
BRANCH  16  18
ATOM     18  O   LIG    1       23.842 -24.408   6.639  0.00  0.00    -0.430 OA
BRANCH  18  19
ATOM     19  C   LIG    1       24.426 -23.095   6.652  0.00  0.00    +0.180 C 
ATOM     20  C   LIG    1       25.683 -23.243   7.510  0.00  0.00    +0.045 C 
ATOM     21  C   LIG    1       26.449 -21.935   7.614  0.00  0.00    +0.003 C 
ATOM     22  C   LIG    1       25.568 -20.816   8.158  0.00  0.00    +0.000 C 
ATOM     23  C   LIG    1       24.307 -20.646   7.316  0.00  0.00    +0.003 C 
ATOM     24  C   LIG    1       23.542 -21.968   7.214  0.00  0.00    +0.045 C 
ENDBRANCH  18  19
ENDBRANCH  16  18
ENDBRANCH  15  16
ENDBRANCH  13  15
ENDBRANCH  12  13
ENDBRANCH  10  12
ENDBRANCH   8  10
BRANCH   1  25
ATOM     25  O   LIG    1       23.535 -33.283  10.463  0.00  0.00    -0.464 OA
BRANCH  25  27
ATOM     26  C   LIG    1       21.158 -32.803  10.647  0.00  0.00    +0.048 C 
ATOM     27  C   LIG    1       22.220 -33.813  10.243  0.00  0.00    +0.229 C 
ENDBRANCH  25  27
ENDBRANCH   1  25
BRANCH   2  28
ATOM     28  C   LIG    1       23.714 -30.536   9.468  0.00  0.00    +0.162 C 
BRANCH  28  29
ATOM     29  C   LIG    1       24.674 -30.029  10.518  0.00  0.00    -0.028 A 
ATOM     30  C   LIG    1       25.865 -29.383  10.191  0.00  0.00    +0.006 A 
ATOM     31  C   LIG    1       26.761 -28.947  11.176  0.00  0.00    +0.009 A 
ATOM     32  C   LIG    1       26.497 -29.086  12.551  0.00  0.00    -0.017 A 
ATOM     33  C   LIG    1       25.290 -29.738  12.863  0.00  0.00    +0.009 A 
ATOM     34  C   LIG    1       24.418 -30.238  11.876  0.00  0.00    +0.006 A 
BRANCH  32  35
ATOM     35  C   LIG    1       27.429 -28.507  13.583  0.00  0.00    -0.007 A 
ATOM     36  C   LIG    1       27.332 -27.222  14.183  0.00  0.00    +0.030 A 
ATOM     37  C   LIG    1       28.326 -26.786  15.100  0.00  0.00    +0.012 A 
ATOM     38  C   LIG    1       29.403 -27.584  15.458  0.00  0.00    +0.001 A 
ATOM     39  C   LIG    1       29.512 -28.842  14.900  0.00  0.00    +0.001 A 
ATOM     40  C   LIG    1       28.553 -29.286  13.979  0.00  0.00    +0.009 A 
BRANCH  36  41
ATOM     41  C   LIG    1       26.277 -26.250  13.924  0.00  0.00    +0.205 A 
ATOM     42  N   LIG    1       24.972 -26.514  14.139  0.00  0.00    -0.133 NA
ATOM     43  N   LIG    1       24.429 -25.350  13.772  0.00  0.00    -0.176 N 
ATOM     44  H   LIG    1       23.424 -25.206  13.762  0.00  0.00    +0.214 HD
ATOM     45  N   LIG    1       25.283 -24.399  13.387  0.00  0.00    -0.049 NA
ATOM     46  N   LIG    1       26.470 -24.988  13.418  0.00  0.00    -0.108 NA
ENDBRANCH  36  41
ENDBRANCH  32  35
ENDBRANCH  28  29
ENDBRANCH   2  28
TORSDOF 13
ENDMDL
MODEL 6
REMARK VINA RESULT:      -7.9      5.686     11.117
REMARK  Name = *****
REMARK                            x       y       z     vdW  Elec       q    Type
REMARK                         _______ _______ _______ _____ _____    ______ ____
ROOT
ATOM      1  C   LIG    1       25.399 -18.090   3.532  0.00  0.00    +0.299 A 
ATOM      2  N   LIG    1       25.635 -19.397   3.916  0.00  0.00    -0.289 N 
ATOM      3  C   LIG    1       24.430 -19.931   4.374  0.00  0.00    +0.086 A 
ATOM      4  C   LIG    1       23.601 -18.795   4.415  0.00  0.00    +0.093 A 
ATOM      5  C   LIG    1       22.309 -18.857   4.962  0.00  0.00    +0.030 A 
ATOM      6  C   LIG    1       21.817 -20.070   5.419  0.00  0.00    +0.003 A 
ATOM      7  C   LIG    1       22.592 -21.214   5.292  0.00  0.00    +0.017 A 
ATOM      8  C   LIG    1       23.909 -21.198   4.763  0.00  0.00    +0.085 A 
ATOM      9  N   LIG    1       24.197 -17.696   3.868  0.00  0.00    -0.195 NA
ENDROOT
BRANCH   8  10
ATOM     10  C   LIG    1       24.623 -22.498   4.688  0.00  0.00    +0.344 C 
ATOM     11  O   LIG    1       24.451 -23.358   3.852  0.00  0.00    -0.245 OA
BRANCH  10  12
ATOM     12  O   LIG    1       25.532 -22.574   5.711  0.00  0.00    -0.421 OA
BRANCH  12  13
ATOM     13  C   LIG    1       25.269 -23.519   6.762  0.00  0.00    +0.371 C 
ATOM     14  C   LIG    1       25.949 -23.006   8.033  0.00  0.00    +0.101 C 
BRANCH  13  15
ATOM     15  O   LIG    1       25.753 -24.860   6.597  0.00  0.00    -0.394 OA
BRANCH  15  16
ATOM     16  C   LIG    1       24.878 -25.839   6.324  0.00  0.00    +0.513 C 
ATOM     17  O   LIG    1       23.655 -25.731   6.242  0.00  0.00    -0.203 OA
BRANCH  16  18
ATOM     18  O   LIG    1       25.555 -26.980   6.137  0.00  0.00    -0.430 OA
BRANCH  18  19
ATOM     19  C   LIG    1       24.882 -28.215   6.428  0.00  0.00    +0.180 C 
ATOM     20  C   LIG    1       25.337 -28.576   7.843  0.00  0.00    +0.045 C 
ATOM     21  C   LIG    1       24.693 -29.865   8.328  0.00  0.00    +0.003 C 
ATOM     22  C   LIG    1       24.975 -31.020   7.374  0.00  0.00    +0.000 C 
ATOM     23  C   LIG    1       24.526 -30.686   5.954  0.00  0.00    +0.003 C 
ATOM     24  C   LIG    1       25.176 -29.386   5.473  0.00  0.00    +0.045 C 
ENDBRANCH  18  19
ENDBRANCH  16  18
ENDBRANCH  15  16
ENDBRANCH  13  15
ENDBRANCH  12  13
ENDBRANCH  10  12
ENDBRANCH   8  10
BRANCH   1  25
ATOM     25  O   LIG    1       26.303 -17.311   2.930  0.00  0.00    -0.464 OA
BRANCH  25  27
ATOM     26  C   LIG    1       27.388 -15.330   3.833  0.00  0.00    +0.048 C 
ATOM     27  C   LIG    1       26.126 -15.916   3.217  0.00  0.00    +0.229 C 
ENDBRANCH  25  27
ENDBRANCH   1  25
BRANCH   2  28
ATOM     28  C   LIG    1       26.984 -19.958   3.979  0.00  0.00    +0.162 C 
BRANCH  28  29
ATOM     29  C   LIG    1       27.782 -19.551   5.195  0.00  0.00    -0.028 A 
ATOM     30  C   LIG    1       28.857 -18.668   5.122  0.00  0.00    +0.006 A 
ATOM     31  C   LIG    1       29.607 -18.325   6.254  0.00  0.00    +0.009 A 
ATOM     32  C   LIG    1       29.296 -18.806   7.539  0.00  0.00    -0.017 A 
ATOM     33  C   LIG    1       28.207 -19.694   7.595  0.00  0.00    +0.009 A 
ATOM     34  C   LIG    1       27.491 -20.095   6.450  0.00  0.00    +0.006 A 
BRANCH  32  35
ATOM     35  C   LIG    1       30.054 -18.331   8.751  0.00  0.00    -0.007 A 
ATOM     36  C   LIG    1       30.922 -19.109   9.564  0.00  0.00    +0.030 A 
ATOM     37  C   LIG    1       31.522 -18.537  10.717  0.00  0.00    +0.012 A 
ATOM     38  C   LIG    1       31.308 -17.216  11.086  0.00  0.00    +0.001 A 
ATOM     39  C   LIG    1       30.480 -16.435  10.304  0.00  0.00    +0.001 A 
ATOM     40  C   LIG    1       29.863 -16.984   9.171  0.00  0.00    +0.009 A 
BRANCH  36  41
ATOM     41  C   LIG    1       31.258 -20.509   9.336  0.00  0.00    +0.205 A 
ATOM     42  N   LIG    1       31.903 -20.935   8.230  0.00  0.00    -0.133 NA
ATOM     43  N   LIG    1       31.979 -22.243   8.487  0.00  0.00    -0.176 N 
ATOM     44  H   LIG    1       32.377 -22.899   7.821  0.00  0.00    +0.214 HD
ATOM     45  N   LIG    1       31.473 -22.643   9.655  0.00  0.00    -0.049 NA
ATOM     46  N   LIG    1       30.946 -21.546  10.181  0.00  0.00    -0.108 NA
ENDBRANCH  36  41
ENDBRANCH  32  35
ENDBRANCH  28  29
ENDBRANCH   2  28
TORSDOF 13
ENDMDL
MODEL 7
REMARK VINA RESULT:      -7.7      5.293     10.012
REMARK  Name = *****
REMARK                            x       y       z     vdW  Elec       q    Type
REMARK                         _______ _______ _______ _____ _____    ______ ____
ROOT
ATOM      1  C   LIG    1       24.106 -21.181   5.209  0.00  0.00    +0.299 A 
ATOM      2  N   LIG    1       24.855 -21.388   6.354  0.00  0.00    -0.289 N 
ATOM      3  C   LIG    1       26.065 -20.710   6.199  0.00  0.00    +0.086 A 
ATOM      4  C   LIG    1       26.012 -20.315   4.850  0.00  0.00    +0.093 A 
ATOM      5  C   LIG    1       27.114 -19.710   4.226  0.00  0.00    +0.030 A 
ATOM      6  C   LIG    1       28.257 -19.444   4.964  0.00  0.00    +0.003 A 
ATOM      7  C   LIG    1       28.281 -19.741   6.319  0.00  0.00    +0.017 A 
ATOM      8  C   LIG    1       27.199 -20.369   6.990  0.00  0.00    +0.085 A 
ATOM      9  N   LIG    1       24.801 -20.580   4.278  0.00  0.00    -0.195 NA
ENDROOT
BRANCH   8  10
ATOM     10  C   LIG    1       27.364 -20.629   8.443  0.00  0.00    +0.344 C 
ATOM     11  O   LIG    1       26.686 -20.161   9.332  0.00  0.00    -0.245 OA
BRANCH  10  12
ATOM     12  O   LIG    1       28.400 -21.505   8.631  0.00  0.00    -0.421 OA
BRANCH  12  13
ATOM     13  C   LIG    1       29.735 -20.996   8.475  0.00  0.00    +0.371 C 
ATOM     14  C   LIG    1       30.686 -21.941   9.213  0.00  0.00    +0.101 C 
BRANCH  13  15
ATOM     15  O   LIG    1       30.024 -19.693   9.003  0.00  0.00    -0.394 OA
BRANCH  15  16
ATOM     16  C   LIG    1       30.879 -18.898   8.342  0.00  0.00    +0.513 C 
ATOM     17  O   LIG    1       31.867 -19.253   7.700  0.00  0.00    -0.203 OA
BRANCH  16  18
ATOM     18  O   LIG    1       30.476 -17.628   8.479  0.00  0.00    -0.430 OA
BRANCH  18  19
ATOM     19  C   LIG    1       30.947 -16.893   9.620  0.00  0.00    +0.180 C 
ATOM     20  C   LIG    1       32.371 -16.478   9.249  0.00  0.00    +0.045 C 
ATOM     21  C   LIG    1       33.023 -15.659  10.351  0.00  0.00    +0.003 C 
ATOM     22  C   LIG    1       33.023 -16.412  11.676  0.00  0.00    +0.000 C 
ATOM     23  C   LIG    1       31.612 -16.836  12.072  0.00  0.00    +0.003 C 
ATOM     24  C   LIG    1       30.960 -17.657  10.956  0.00  0.00    +0.045 C 
ENDBRANCH  18  19
ENDBRANCH  16  18
ENDBRANCH  15  16
ENDBRANCH  13  15
ENDBRANCH  12  13
ENDBRANCH  10  12
ENDBRANCH   8  10
BRANCH   1  25
ATOM     25  O   LIG    1       22.841 -21.584   5.060  0.00  0.00    -0.464 OA
BRANCH  25  27
ATOM     26  C   LIG    1       22.450 -19.206   4.730  0.00  0.00    +0.048 C 
ATOM     27  C   LIG    1       21.888 -20.526   5.236  0.00  0.00    +0.229 C 
ENDBRANCH  25  27
ENDBRANCH   1  25
BRANCH   2  28
ATOM     28  C   LIG    1       24.442 -22.330   7.394  0.00  0.00    +0.162 C 
BRANCH  28  29
ATOM     29  C   LIG    1       24.630 -23.786   7.038  0.00  0.00    -0.028 A 
ATOM     30  C   LIG    1       25.877 -24.407   7.069  0.00  0.00    +0.006 A 
ATOM     31  C   LIG    1       26.041 -25.750   6.705  0.00  0.00    +0.009 A 
ATOM     32  C   LIG    1       24.958 -26.568   6.335  0.00  0.00    -0.017 A 
ATOM     33  C   LIG    1       23.707 -25.926   6.310  0.00  0.00    +0.009 A 
ATOM     34  C   LIG    1       23.547 -24.559   6.611  0.00  0.00    +0.006 A 
BRANCH  32  35
ATOM     35  C   LIG    1       25.154 -28.036   6.057  0.00  0.00    -0.007 A 
ATOM     36  C   LIG    1       25.521 -29.033   7.000  0.00  0.00    +0.030 A 
ATOM     37  C   LIG    1       25.730 -30.373   6.577  0.00  0.00    +0.012 A 
ATOM     38  C   LIG    1       25.573 -30.765   5.256  0.00  0.00    +0.001 A 
ATOM     39  C   LIG    1       25.203 -29.817   4.322  0.00  0.00    +0.001 A 
ATOM     40  C   LIG    1       25.008 -28.486   4.714  0.00  0.00    +0.009 A 
BRANCH  36  41
ATOM     41  C   LIG    1       25.735 -28.806   8.424  0.00  0.00    +0.205 A 
ATOM     42  N   LIG    1       24.921 -29.311   9.375  0.00  0.00    -0.133 NA
ATOM     43  N   LIG    1       25.521 -28.846  10.474  0.00  0.00    -0.176 N 
ATOM     44  H   LIG    1       25.138 -29.001  11.402  0.00  0.00    +0.214 HD
ATOM     45  N   LIG    1       26.635 -28.137  10.280  0.00  0.00    -0.049 NA
ATOM     46  N   LIG    1       26.746 -28.048   8.962  0.00  0.00    -0.108 NA
ENDBRANCH  36  41
ENDBRANCH  32  35
ENDBRANCH  28  29
ENDBRANCH   2  28
TORSDOF 13
ENDMDL
MODEL 8
REMARK VINA RESULT:      -7.0      4.241      9.045
REMARK  Name = *****
REMARK                            x       y       z     vdW  Elec       q    Type
REMARK                         _______ _______ _______ _____ _____    ______ ____
ROOT
ATOM      1  C   LIG    1       25.401 -27.164  12.929  0.00  0.00    +0.299 A 
ATOM      2  N   LIG    1       24.838 -28.421  12.813  0.00  0.00    -0.289 N 
ATOM      3  C   LIG    1       23.451 -28.275  12.882  0.00  0.00    +0.086 A 
ATOM      4  C   LIG    1       23.316 -26.923  13.248  0.00  0.00    +0.093 A 
ATOM      5  C   LIG    1       22.061 -26.379  13.565  0.00  0.00    +0.030 A 
ATOM      6  C   LIG    1       20.926 -27.169  13.463  0.00  0.00    +0.003 A 
ATOM      7  C   LIG    1       21.041 -28.475  13.008  0.00  0.00    +0.017 A 
ATOM      8  C   LIG    1       22.288 -29.074  12.692  0.00  0.00    +0.085 A 
ATOM      9  N   LIG    1       24.508 -26.260  13.237  0.00  0.00    -0.195 NA
ENDROOT
BRANCH   8  10
ATOM     10  C   LIG    1       22.261 -30.482  12.218  0.00  0.00    +0.344 C 
ATOM     11  O   LIG    1       22.569 -31.458  12.867  0.00  0.00    -0.245 OA
BRANCH  10  12
ATOM     12  O   LIG    1       21.812 -30.514  10.924  0.00  0.00    -0.421 OA
BRANCH  12  13
ATOM     13  C   LIG    1       21.196 -31.729  10.466  0.00  0.00    +0.371 C 
ATOM     14  C   LIG    1       22.162 -32.404   9.490  0.00  0.00    +0.101 C 
BRANCH  13  15
ATOM     15  O   LIG    1       19.956 -31.628   9.751  0.00  0.00    -0.394 OA
BRANCH  15  16
ATOM     16  C   LIG    1       18.908 -32.358  10.159  0.00  0.00    +0.513 C 
ATOM     17  O   LIG    1       18.110 -32.964   9.445  0.00  0.00    -0.203 OA
BRANCH  16  18
ATOM     18  O   LIG    1       18.868 -32.340  11.498  0.00  0.00    -0.430 OA
BRANCH  18  19
ATOM     19  C   LIG    1       18.072 -31.326  12.133  0.00  0.00    +0.180 C 
ATOM     20  C   LIG    1       18.688 -31.168  13.523  0.00  0.00    +0.045 C 
ATOM     21  C   LIG    1       17.973 -30.101  14.336  0.00  0.00    +0.003 C 
ATOM     22  C   LIG    1       16.482 -30.398  14.452  0.00  0.00    +0.000 C 
ATOM     23  C   LIG    1       15.842 -30.557  13.076  0.00  0.00    +0.003 C 
ATOM     24  C   LIG    1       16.569 -31.630  12.262  0.00  0.00    +0.045 C 
ENDBRANCH  18  19
ENDBRANCH  16  18
ENDBRANCH  15  16
ENDBRANCH  13  15
ENDBRANCH  12  13
ENDBRANCH  10  12
ENDBRANCH   8  10
BRANCH   1  25
ATOM     25  O   LIG    1       26.706 -26.912  12.785  0.00  0.00    -0.464 OA
BRANCH  25  27
ATOM     26  C   LIG    1       27.666 -25.085  14.071  0.00  0.00    +0.048 C 
ATOM     27  C   LIG    1       27.354 -26.573  14.019  0.00  0.00    +0.229 C 
ENDBRANCH  25  27
ENDBRANCH   1  25
BRANCH   2  28
ATOM     28  C   LIG    1       25.646 -29.641  12.825  0.00  0.00    +0.162 C 
BRANCH  28  29
ATOM     29  C   LIG    1       25.890 -30.249  11.464  0.00  0.00    -0.028 A 
ATOM     30  C   LIG    1       26.440 -29.523  10.409  0.00  0.00    +0.006 A 
ATOM     31  C   LIG    1       26.631 -30.092   9.143  0.00  0.00    +0.009 A 
ATOM     32  C   LIG    1       26.330 -31.438   8.869  0.00  0.00    -0.017 A 
ATOM     33  C   LIG    1       25.778 -32.157   9.945  0.00  0.00    +0.009 A 
ATOM     34  C   LIG    1       25.522 -31.571  11.200  0.00  0.00    +0.006 A 
BRANCH  32  35
ATOM     35  C   LIG    1       26.651 -32.048   7.529  0.00  0.00    -0.007 A 
ATOM     36  C   LIG    1       26.104 -31.666   6.274  0.00  0.00    +0.030 A 
ATOM     37  C   LIG    1       26.456 -32.378   5.096  0.00  0.00    +0.012 A 
ATOM     38  C   LIG    1       27.345 -33.443   5.113  0.00  0.00    +0.001 A 
ATOM     39  C   LIG    1       27.902 -33.824   6.318  0.00  0.00    +0.001 A 
ATOM     40  C   LIG    1       27.554 -33.148   7.496  0.00  0.00    +0.009 A 
BRANCH  36  41
ATOM     41  C   LIG    1       25.155 -30.579   6.065  0.00  0.00    +0.205 A 
ATOM     42  N   LIG    1       23.823 -30.779   5.976  0.00  0.00    -0.133 NA
ATOM     43  N   LIG    1       23.405 -29.523   5.799  0.00  0.00    -0.176 N 
ATOM     44  H   LIG    1       22.426 -29.300   5.643  0.00  0.00    +0.214 HD
ATOM     45  N   LIG    1       24.351 -28.582   5.805  0.00  0.00    -0.049 NA
ATOM     46  N   LIG    1       25.488 -29.256   5.909  0.00  0.00    -0.108 NA
ENDBRANCH  36  41
ENDBRANCH  32  35
ENDBRANCH  28  29
ENDBRANCH   2  28
TORSDOF 13
ENDMDL
MODEL 9
REMARK VINA RESULT:      -6.9      5.129     10.349
REMARK  Name = *****
REMARK                            x       y       z     vdW  Elec       q    Type
REMARK                         _______ _______ _______ _____ _____    ______ ____
ROOT
ATOM      1  C   LIG    1       24.110 -19.771   4.266  0.00  0.00    +0.299 A 
ATOM      2  N   LIG    1       24.993 -20.748   4.687  0.00  0.00    -0.289 N 
ATOM      3  C   LIG    1       24.319 -21.570   5.591  0.00  0.00    +0.086 A 
ATOM      4  C   LIG    1       23.117 -20.867   5.790  0.00  0.00    +0.093 A 
ATOM      5  C   LIG    1       22.184 -21.281   6.753  0.00  0.00    +0.030 A 
ATOM      6  C   LIG    1       22.421 -22.434   7.485  0.00  0.00    +0.003 A 
ATOM      7  C   LIG    1       23.557 -23.187   7.226  0.00  0.00    +0.017 A 
ATOM      8  C   LIG    1       24.538 -22.800   6.276  0.00  0.00    +0.085 A 
ATOM      9  N   LIG    1       22.996 -19.798   4.951  0.00  0.00    -0.195 NA
ENDROOT
BRANCH   8  10
ATOM     10  C   LIG    1       25.706 -23.702   6.104  0.00  0.00    +0.344 C 
ATOM     11  O   LIG    1       26.780 -23.588   6.652  0.00  0.00    -0.245 OA
BRANCH  10  12
ATOM     12  O   LIG    1       25.376 -24.707   5.233  0.00  0.00    -0.421 OA
BRANCH  12  13
ATOM     13  C   LIG    1       25.593 -26.059   5.668  0.00  0.00    +0.371 C 
ATOM     14  C   LIG    1       25.935 -26.899   4.436  0.00  0.00    +0.101 C 
BRANCH  13  15
ATOM     15  O   LIG    1       24.501 -26.748   6.296  0.00  0.00    -0.394 OA
BRANCH  15  16
ATOM     16  C   LIG    1       24.575 -28.078   6.452  0.00  0.00    +0.513 C 
ATOM     17  O   LIG    1       23.786 -28.915   6.014  0.00  0.00    -0.203 OA
BRANCH  16  18
ATOM     18  O   LIG    1       25.672 -28.366   7.164  0.00  0.00    -0.430 OA
BRANCH  18  19
ATOM     19  C   LIG    1       25.497 -29.009   8.437  0.00  0.00    +0.180 C 
ATOM     20  C   LIG    1       26.525 -28.339   9.350  0.00  0.00    +0.045 C 
ATOM     21  C   LIG    1       26.463 -28.890  10.765  0.00  0.00    +0.003 C 
ATOM     22  C   LIG    1       26.652 -30.403  10.781  0.00  0.00    +0.000 C 
ATOM     23  C   LIG    1       25.635 -31.096   9.879  0.00  0.00    +0.003 C 
ATOM     24  C   LIG    1       25.701 -30.534   8.456  0.00  0.00    +0.045 C 
ENDBRANCH  18  19
ENDBRANCH  16  18
ENDBRANCH  15  16
ENDBRANCH  13  15
ENDBRANCH  12  13
ENDBRANCH  10  12
ENDBRANCH   8  10
BRANCH   1  25
ATOM     25  O   LIG    1       24.380 -18.882   3.305  0.00  0.00    -0.464 OA
BRANCH  25  27
ATOM     26  C   LIG    1       26.070 -17.133   3.326  0.00  0.00    +0.048 C 
ATOM     27  C   LIG    1       24.700 -17.580   3.815  0.00  0.00    +0.229 C 
ENDBRANCH  25  27
ENDBRANCH   1  25
BRANCH   2  28
ATOM     28  C   LIG    1       26.414 -20.715   4.341  0.00  0.00    +0.162 C 
BRANCH  28  29
ATOM     29  C   LIG    1       27.315 -20.168   5.422  0.00  0.00    -0.028 A 
ATOM     30  C   LIG    1       28.443 -19.401   5.137  0.00  0.00    +0.006 A 
ATOM     31  C   LIG    1       29.287 -18.927   6.150  0.00  0.00    +0.009 A 
ATOM     32  C   LIG    1       29.027 -19.150   7.514  0.00  0.00    -0.017 A 
ATOM     33  C   LIG    1       27.885 -19.925   7.784  0.00  0.00    +0.009 A 
ATOM     34  C   LIG    1       27.070 -20.460   6.767  0.00  0.00    +0.006 A 
BRANCH  32  35
ATOM     35  C   LIG    1       29.894 -18.533   8.581  0.00  0.00    -0.007 A 
ATOM     36  C   LIG    1       30.884 -19.198   9.354  0.00  0.00    +0.030 A 
ATOM     37  C   LIG    1       31.583 -18.496  10.373  0.00  0.00    +0.012 A 
ATOM     38  C   LIG    1       31.349 -17.155  10.642  0.00  0.00    +0.001 A 
ATOM     39  C   LIG    1       30.402 -16.484   9.895  0.00  0.00    +0.001 A 
ATOM     40  C   LIG    1       29.688 -17.160   8.896  0.00  0.00    +0.009 A 
BRANCH  36  41
ATOM     41  C   LIG    1       31.260 -20.600   9.216  0.00  0.00    +0.205 A 
ATOM     42  N   LIG    1       32.010 -21.058   8.192  0.00  0.00    -0.133 NA
ATOM     43  N   LIG    1       32.080 -22.353   8.509  0.00  0.00    -0.176 N 
ATOM     44  H   LIG    1       32.547 -23.028   7.910  0.00  0.00    +0.214 HD
ATOM     45  N   LIG    1       31.472 -22.715   9.641  0.00  0.00    -0.049 NA
ATOM     46  N   LIG    1       30.885 -21.607  10.071  0.00  0.00    -0.108 NA
ENDBRANCH  36  41
ENDBRANCH  32  35
ENDBRANCH  28  29
ENDBRANCH   2  28
TORSDOF 13
ENDMDL
