MODEL 1
REMARK VINA RESULT:      -3.0      0.000      0.000
REMARK  Name = *****
REMARK                            x       y       z     vdW  Elec       q    Type
REMARK                         _______ _______ _______ _____ _____    ______ ____
ROOT
ATOM      1  C   LIG    1       25.338 -19.847   4.588  0.00  0.00    +0.149 A 
ATOM      2  C   LIG    1       25.910 -18.639   4.151  0.00  0.00    +0.147 A 
ATOM      3  N   LIG    1       27.218 -18.215   4.047  0.00  0.00    -0.231 NA
ATOM      4  C   LIG    1       27.137 -16.994   3.566  0.00  0.00    +0.203 A 
ATOM      5  N   LIG    1       25.839 -16.601   3.367  0.00  0.00    -0.285 N 
ATOM      6  C   LIG    1       25.040 -17.657   3.709  0.00  0.00    +0.169 A 
ATOM      7  N   LIG    1       23.699 -17.732   3.640  0.00  0.00    -0.198 NA
ATOM      8  C   LIG    1       23.278 -18.939   4.073  0.00  0.00    +0.226 A 
ATOM      9 CL   LIG    1       21.584 -19.184   4.010  0.00  0.00    -0.041 Cl
ATOM     10  N   LIG    1       23.996 -19.986   4.525  0.00  0.00    -0.201 NA
ENDROOT
BRANCH   5  11
ATOM     11  C   LIG    1       25.373 -15.324   2.871  0.00  0.00    +0.259 C 
ATOM     12  C   LIG    1       24.822 -14.399   3.945  0.00  0.00    +0.246 C 
ATOM     13  F   LIG    1       25.555 -14.509   5.086  0.00  0.00    -0.238 F 
ATOM     14  C   LIG    1       25.049 -13.034   3.336  0.00  0.00    +0.184 C 
ATOM     15  C   LIG    1       26.334 -13.212   2.522  0.00  0.00    +0.178 C 
ATOM     16  O   LIG    1       26.475 -14.624   2.244  0.00  0.00    -0.345 OA
BRANCH  14  17
ATOM     17  O   LIG    1       23.952 -12.741   2.457  0.00  0.00    -0.386 OA
ATOM     18  H   LIG    1       24.226 -12.971   1.551  0.00  0.00    +0.210 HD
ENDBRANCH  14  17
BRANCH  15  19
ATOM     19  C   LIG    1       27.604 -12.723   3.225  0.00  0.00    +0.190 C 
BRANCH  19  20
ATOM     20  O   LIG    1       28.590 -13.736   3.356  0.00  0.00    -0.392 OA
ATOM     21  H   LIG    1       29.329 -13.380   3.880  0.00  0.00    +0.209 HD
ENDBRANCH  19  20
ENDBRANCH  15  19
ENDBRANCH   5  11
BRANCH   1  22
ATOM     22  N   LIG    1       26.093 -20.911   5.063  0.00  0.00    -0.341 N 
ATOM     23  H   LIG    1       26.416 -20.790   6.017  0.00  0.00    +0.144 HD
ATOM     24  H   LIG    1       26.750 -21.265   4.382  0.00  0.00    +0.144 HD
ENDBRANCH   1  22
TORSDOF 5
ENDMDL
MODEL 2
REMARK VINA RESULT:      -2.3      3.494      5.711
REMARK  Name = *****
REMARK                            x       y       z     vdW  Elec       q    Type
REMARK                         _______ _______ _______ _____ _____    ______ ____
ROOT
ATOM      1  C   LIG    1       27.234 -14.080   4.029  0.00  0.00    +0.149 A 
ATOM      2  C   LIG    1       27.198 -15.484   3.984  0.00  0.00    +0.147 A 
ATOM      3  N   LIG    1       28.127 -16.448   4.315  0.00  0.00    -0.231 NA
ATOM      4  C   LIG    1       27.525 -17.591   4.071  0.00  0.00    +0.203 A 
ATOM      5  N   LIG    1       26.257 -17.414   3.583  0.00  0.00    -0.285 N 
ATOM      6  C   LIG    1       26.020 -16.067   3.550  0.00  0.00    +0.169 A 
ATOM      7  N   LIG    1       24.894 -15.438   3.173  0.00  0.00    -0.198 NA
ATOM      8  C   LIG    1       25.052 -14.101   3.274  0.00  0.00    +0.226 A 
ATOM      9 CL   LIG    1       23.677 -13.172   2.852  0.00  0.00    -0.041 Cl
ATOM     10  N   LIG    1       26.125 -13.393   3.679  0.00  0.00    -0.201 NA
ENDROOT
BRANCH   5  11
ATOM     11  C   LIG    1       25.315 -18.440   3.189  0.00  0.00    +0.259 C 
ATOM     12  C   LIG    1       25.571 -19.799   3.823  0.00  0.00    +0.246 C 
ATOM     13  F   LIG    1       25.984 -19.650   5.110  0.00  0.00    -0.238 F 
ATOM     14  C   LIG    1       24.192 -20.420   3.810  0.00  0.00    +0.184 C 
ATOM     15  C   LIG    1       23.257 -19.223   3.998  0.00  0.00    +0.178 C 
ATOM     16  O   LIG    1       23.981 -18.041   3.584  0.00  0.00    -0.345 OA
BRANCH  14  17
ATOM     17  O   LIG    1       23.974 -21.013   2.520  0.00  0.00    -0.386 OA
ATOM     18  H   LIG    1       23.685 -21.933   2.661  0.00  0.00    +0.210 HD
ENDBRANCH  14  17
BRANCH  15  19
ATOM     19  C   LIG    1       22.768 -19.018   5.436  0.00  0.00    +0.190 C 
BRANCH  19  20
ATOM     20  O   LIG    1       22.929 -20.172   6.245  0.00  0.00    -0.392 OA
ATOM     21  H   LIG    1       23.867 -20.243   6.498  0.00  0.00    +0.209 HD
ENDBRANCH  19  20
ENDBRANCH  15  19
ENDBRANCH   5  11
BRANCH   1  22
ATOM     22  N   LIG    1       28.353 -13.366   4.437  0.00  0.00    -0.341 N 
ATOM     23  H   LIG    1       29.218 -13.681   4.010  0.00  0.00    +0.144 HD
ATOM     24  H   LIG    1       28.358 -13.170   5.428  0.00  0.00    +0.144 HD
ENDBRANCH   1  22
TORSDOF 5
ENDMDL
MODEL 3
REMARK VINA RESULT:      -1.9      2.426      3.142
REMARK  Name = *****
REMARK                            x       y       z     vdW  Elec       q    Type
REMARK                         _______ _______ _______ _____ _____    ______ ____
ROOT
ATOM      1  C   LIG    1       25.847 -20.523   5.269  0.00  0.00    +0.149 A 
ATOM      2  C   LIG    1       25.506 -19.395   4.502  0.00  0.00    +0.147 A 
ATOM      3  N   LIG    1       24.341 -19.024   3.864  0.00  0.00    -0.231 NA
ATOM      4  C   LIG    1       24.616 -17.862   3.313  0.00  0.00    +0.203 A 
ATOM      5  N   LIG    1       25.908 -17.470   3.550  0.00  0.00    -0.285 N 
ATOM      6  C   LIG    1       26.484 -18.429   4.338  0.00  0.00    +0.169 A 
ATOM      7  N   LIG    1       27.729 -18.441   4.843  0.00  0.00    -0.198 NA
ATOM      8  C   LIG    1       27.927 -19.563   5.567  0.00  0.00    +0.226 A 
ATOM      9 CL   LIG    1       29.470 -19.696   6.297  0.00  0.00    -0.041 Cl
ATOM     10  N   LIG    1       27.080 -20.582   5.817  0.00  0.00    -0.201 NA
ENDROOT
BRANCH   5  11
ATOM     11  C   LIG    1       26.560 -16.264   3.086  0.00  0.00    +0.259 C 
ATOM     12  C   LIG    1       25.617 -15.091   2.864  0.00  0.00    +0.246 C 
ATOM     13  F   LIG    1       24.654 -15.070   3.823  0.00  0.00    -0.238 F 
ATOM     14  C   LIG    1       26.537 -13.905   3.054  0.00  0.00    +0.184 C 
ATOM     15  C   LIG    1       27.538 -14.392   4.106  0.00  0.00    +0.178 C 
ATOM     16  O   LIG    1       27.532 -15.837   4.070  0.00  0.00    -0.345 OA
BRANCH  14  17
ATOM     17  O   LIG    1       27.216 -13.654   1.814  0.00  0.00    -0.386 OA
ATOM     18  H   LIG    1       27.256 -12.688   1.687  0.00  0.00    +0.210 HD
ENDBRANCH  14  17
BRANCH  15  19
ATOM     19  C   LIG    1       27.229 -13.936   5.536  0.00  0.00    +0.190 C 
BRANCH  19  20
ATOM     20  O   LIG    1       26.208 -12.951   5.595  0.00  0.00    -0.392 OA
ATOM     21  H   LIG    1       25.617 -13.165   6.340  0.00  0.00    +0.209 HD
ENDBRANCH  19  20
ENDBRANCH  15  19
ENDBRANCH   5  11
BRANCH   1  22
ATOM     22  N   LIG    1       24.966 -21.569   5.506  0.00  0.00    -0.341 N 
ATOM     23  H   LIG    1       23.989 -21.301   5.452  0.00  0.00    +0.144 HD
ATOM     24  H   LIG    1       25.253 -22.162   6.272  0.00  0.00    +0.144 HD
ENDBRANCH   1  22
TORSDOF 5
ENDMDL
MODEL 4
REMARK VINA RESULT:      -0.4      2.121      3.142
REMARK  Name = *****
REMARK                            x       y       z     vdW  Elec       q    Type
REMARK                         _______ _______ _______ _____ _____    ______ ____
ROOT
ATOM      1  C   LIG    1       22.688 -17.876   4.122  0.00  0.00    +0.149 A 
ATOM      2  C   LIG    1       23.387 -16.658   4.060  0.00  0.00    +0.147 A 
ATOM      3  N   LIG    1       23.004 -15.354   4.300  0.00  0.00    -0.231 NA
ATOM      4  C   LIG    1       24.089 -14.642   4.089  0.00  0.00    +0.203 A 
ATOM      5  N   LIG    1       25.153 -15.420   3.710  0.00  0.00    -0.285 N 
ATOM      6  C   LIG    1       24.726 -16.720   3.716  0.00  0.00    +0.169 A 
ATOM      7  N   LIG    1       25.444 -17.823   3.444  0.00  0.00    -0.198 NA
ATOM      8  C   LIG    1       24.666 -18.921   3.550  0.00  0.00    +0.226 A 
ATOM      9 CL   LIG    1       25.463 -20.408   3.257  0.00  0.00    -0.041 Cl
ATOM     10  N   LIG    1       23.362 -19.020   3.875  0.00  0.00    -0.201 NA
ENDROOT
BRANCH   5  11
ATOM     11  C   LIG    1       26.491 -14.979   3.381  0.00  0.00    +0.259 C 
ATOM     12  C   LIG    1       26.547 -13.639   2.662  0.00  0.00    +0.246 C 
ATOM     13  F   LIG    1       25.609 -12.793   3.165  0.00  0.00    -0.238 F 
ATOM     14  C   LIG    1       27.924 -13.136   3.037  0.00  0.00    +0.184 C 
ATOM     15  C   LIG    1       28.140 -13.694   4.446  0.00  0.00    +0.178 C 
ATOM     16  O   LIG    1       27.259 -14.831   4.599  0.00  0.00    -0.345 OA
BRANCH  14  17
ATOM     17  O   LIG    1       28.879 -13.713   2.132  0.00  0.00    -0.386 OA
ATOM     18  H   LIG    1       29.750 -13.699   2.570  0.00  0.00    +0.210 HD
ENDBRANCH  14  17
BRANCH  15  19
ATOM     19  C   LIG    1       27.853 -12.698   5.575  0.00  0.00    +0.190 C 
BRANCH  19  20
ATOM     20  O   LIG    1       28.959 -11.858   5.866  0.00  0.00    -0.392 OA
ATOM     21  H   LIG    1       28.644 -10.937   5.903  0.00  0.00    +0.209 HD
ENDBRANCH  19  20
ENDBRANCH  15  19
ENDBRANCH   5  11
BRANCH   1  22
ATOM     22  N   LIG    1       21.341 -17.958   4.447  0.00  0.00    -0.341 N 
ATOM     23  H   LIG    1       21.099 -17.488   5.314  0.00  0.00    +0.144 HD
ATOM     24  H   LIG    1       20.948 -18.873   4.279  0.00  0.00    +0.144 HD
ENDBRANCH   1  22
TORSDOF 5
ENDMDL
MODEL 5
REMARK VINA RESULT:      -0.3      3.798      6.129
REMARK  Name = *****
REMARK                            x       y       z     vdW  Elec       q    Type
REMARK                         _______ _______ _______ _____ _____    ______ ____
ROOT
ATOM      1  C   LIG    1       24.401 -13.520   4.469  0.00  0.00    +0.149 A 
ATOM      2  C   LIG    1       23.726 -14.751   4.537  0.00  0.00    +0.147 A 
ATOM      3  N   LIG    1       22.554 -15.135   5.153  0.00  0.00    -0.231 NA
ATOM      4  C   LIG    1       22.423 -16.410   4.862  0.00  0.00    +0.203 A 
ATOM      5  N   LIG    1       23.464 -16.876   4.100  0.00  0.00    -0.285 N 
ATOM      6  C   LIG    1       24.293 -15.816   3.857  0.00  0.00    +0.169 A 
ATOM      7  N   LIG    1       25.419 -15.803   3.124  0.00  0.00    -0.198 NA
ATOM      8  C   LIG    1       25.961 -14.566   3.126  0.00  0.00    +0.226 A 
ATOM      9 CL   LIG    1       27.392 -14.398   2.200  0.00  0.00    -0.041 Cl
ATOM     10  N   LIG    1       25.529 -13.442   3.731  0.00  0.00    -0.201 NA
ENDROOT
BRANCH   5  11
ATOM     11  C   LIG    1       23.662 -18.224   3.613  0.00  0.00    +0.259 C 
ATOM     12  C   LIG    1       25.120 -18.642   3.508  0.00  0.00    +0.246 C 
ATOM     13  F   LIG    1       25.834 -18.136   4.550  0.00  0.00    -0.238 F 
ATOM     14  C   LIG    1       25.030 -20.146   3.648  0.00  0.00    +0.184 C 
ATOM     15  C   LIG    1       23.842 -20.348   4.592  0.00  0.00    +0.178 C 
ATOM     16  O   LIG    1       23.025 -19.158   4.517  0.00  0.00    -0.345 OA
BRANCH  14  17
ATOM     17  O   LIG    1       24.731 -20.704   2.359  0.00  0.00    -0.386 OA
ATOM     18  H   LIG    1       24.827 -21.671   2.424  0.00  0.00    +0.210 HD
ENDBRANCH  14  17
BRANCH  15  19
ATOM     19  C   LIG    1       24.227 -20.586   6.056  0.00  0.00    +0.190 C 
BRANCH  19  20
ATOM     20  O   LIG    1       25.616 -20.821   6.232  0.00  0.00    -0.392 OA
ATOM     21  H   LIG    1       25.810 -20.818   7.187  0.00  0.00    +0.209 HD
ENDBRANCH  19  20
ENDBRANCH  15  19
ENDBRANCH   5  11
BRANCH   1  22
ATOM     22  N   LIG    1       23.948 -12.374   5.109  0.00  0.00    -0.341 N 
ATOM     23  H   LIG    1       24.657 -11.656   5.212  0.00  0.00    +0.144 HD
ATOM     24  H   LIG    1       23.355 -12.573   5.903  0.00  0.00    +0.144 HD
ENDBRANCH   1  22
TORSDOF 5
ENDMDL
