MODEL 1
REMARK VINA RESULT:     -10.0      0.000      0.000
REMARK  Name = *****
REMARK                            x       y       z     vdW  Elec       q    Type
REMARK                         _______ _______ _______ _____ _____    ______ ____
ROOT
ATOM      1  O   LIG    1       24.245 -22.127   8.440  0.00  0.00    -0.270 OA
ATOM      2  C   LIG    1       24.254 -21.655   7.303  0.00  0.00    +0.271 C 
ATOM      3  C   LIG    1       25.333 -21.996   6.199  0.00  0.00    +0.236 C 
ATOM      4  O   LIG    1       25.080 -21.494   4.869  0.00  0.00    -0.465 OA
ATOM      5  C   LIG    1       24.166 -20.493   4.729  0.00  0.00    +0.144 A 
ATOM      6  C   LIG    1       23.292 -20.087   5.732  0.00  0.00    +0.076 A 
ATOM      7  C   LIG    1       22.366 -19.068   5.493  0.00  0.00    +0.027 A 
ATOM      8  C   LIG    1       22.322 -18.448   4.243  0.00  0.00    +0.002 A 
ATOM      9  C   LIG    1       23.190 -18.858   3.233  0.00  0.00    +0.004 A 
ATOM     10  C   LIG    1       24.106 -19.885   3.474  0.00  0.00    +0.048 A 
ATOM     11  N   LIG    1       23.324 -20.701   6.977  0.00  0.00    -0.279 N 
ATOM     12  H   LIG    1       22.672 -20.440   7.704  0.00  0.00    +0.155 HD
ENDROOT
BRANCH   3  13
ATOM     13  C   LIG    1       25.390 -23.551   6.063  0.00  0.00    +0.009 A 
ATOM     14  C   LIG    1       24.941 -24.186   4.887  0.00  0.00    +0.012 A 
ATOM     15  C   LIG    1       24.994 -25.577   4.747  0.00  0.00    +0.046 A 
ATOM     16  C   LIG    1       25.477 -26.357   5.787  0.00  0.00    +0.117 A 
ATOM     17  C   LIG    1       25.906 -25.768   6.971  0.00  0.00    +0.046 A 
ATOM     18  C   LIG    1       25.856 -24.374   7.109  0.00  0.00    +0.012 A 
BRANCH  16  19
ATOM     19  O   LIG    1       25.512 -27.709   5.608  0.00  0.00    -0.507 OA
ATOM     20  H   LIG    1       24.959 -27.935   4.842  0.00  0.00    +0.292 HD
ENDBRANCH  16  19
ENDBRANCH   3  13
BRANCH   3  21
ATOM     21  C   LIG    1       26.722 -21.388   6.561  0.00  0.00    +0.009 A 
ATOM     22  C   LIG    1       27.483 -21.828   7.663  0.00  0.00    +0.012 A 
ATOM     23  C   LIG    1       28.714 -21.242   7.970  0.00  0.00    +0.046 A 
ATOM     24  C   LIG    1       29.204 -20.208   7.186  0.00  0.00    +0.117 A 
ATOM     25  C   LIG    1       28.481 -19.744   6.096  0.00  0.00    +0.046 A 
ATOM     26  C   LIG    1       27.247 -20.328   5.790  0.00  0.00    +0.012 A 
BRANCH  24  27
ATOM     27  O   LIG    1       30.410 -19.671   7.527  0.00  0.00    -0.507 OA
ATOM     28  H   LIG    1       30.936 -19.551   6.719  0.00  0.00    +0.292 HD
ENDBRANCH  24  27
ENDBRANCH   3  21
TORSDOF 4
ENDMDL
MODEL 2
REMARK VINA RESULT:      -9.4      1.595      5.784
REMARK  Name = *****
REMARK                            x       y       z     vdW  Elec       q    Type
REMARK                         _______ _______ _______ _____ _____    ______ ____
ROOT
ATOM      1  O   LIG    1       24.238 -20.951   8.470  0.00  0.00    -0.270 OA
ATOM      2  C   LIG    1       25.270 -20.779   7.823  0.00  0.00    +0.271 C 
ATOM      3  C   LIG    1       25.434 -21.121   6.288  0.00  0.00    +0.236 C 
ATOM      4  O   LIG    1       26.653 -20.681   5.652  0.00  0.00    -0.465 OA
ATOM      5  C   LIG    1       27.703 -20.341   6.454  0.00  0.00    +0.144 A 
ATOM      6  C   LIG    1       27.610 -20.160   7.829  0.00  0.00    +0.076 A 
ATOM      7  C   LIG    1       28.732 -19.785   8.571  0.00  0.00    +0.027 A 
ATOM      8  C   LIG    1       29.958 -19.597   7.930  0.00  0.00    +0.002 A 
ATOM      9  C   LIG    1       30.054 -19.769   6.549  0.00  0.00    +0.004 A 
ATOM     10  C   LIG    1       28.925 -20.133   5.812  0.00  0.00    +0.048 A 
ATOM     11  N   LIG    1       26.394 -20.339   8.476  0.00  0.00    -0.279 N 
ATOM     12  H   LIG    1       26.303 -20.178   9.470  0.00  0.00    +0.155 HD
ENDROOT
BRANCH   3  13
ATOM     13  C   LIG    1       24.274 -20.410   5.522  0.00  0.00    +0.009 A 
ATOM     14  C   LIG    1       22.928 -20.678   5.847  0.00  0.00    +0.012 A 
ATOM     15  C   LIG    1       21.879 -20.041   5.175  0.00  0.00    +0.046 A 
ATOM     16  C   LIG    1       22.156 -19.143   4.156  0.00  0.00    +0.117 A 
ATOM     17  C   LIG    1       23.469 -18.872   3.792  0.00  0.00    +0.046 A 
ATOM     18  C   LIG    1       24.521 -19.507   4.467  0.00  0.00    +0.012 A 
BRANCH  16  19
ATOM     19  O   LIG    1       21.102 -18.544   3.529  0.00  0.00    -0.507 OA
ATOM     20  H   LIG    1       20.278 -18.898   3.901  0.00  0.00    +0.292 HD
ENDBRANCH  16  19
ENDBRANCH   3  13
BRANCH   3  21
ATOM     21  C   LIG    1       25.434 -22.662   6.052  0.00  0.00    +0.009 A 
ATOM     22  C   LIG    1       24.858 -23.259   4.912  0.00  0.00    +0.012 A 
ATOM     23  C   LIG    1       24.857 -24.647   4.747  0.00  0.00    +0.046 A 
ATOM     24  C   LIG    1       25.428 -25.460   5.713  0.00  0.00    +0.117 A 
ATOM     25  C   LIG    1       26.000 -24.910   6.852  0.00  0.00    +0.046 A 
ATOM     26  C   LIG    1       25.998 -23.521   7.020  0.00  0.00    +0.012 A 
BRANCH  24  27
ATOM     27  O   LIG    1       25.402 -26.807   5.504  0.00  0.00    -0.507 OA
ATOM     28  H   LIG    1       25.063 -26.976   4.609  0.00  0.00    +0.292 HD
ENDBRANCH  24  27
ENDBRANCH   3  21
TORSDOF 4
ENDMDL
MODEL 3
REMARK VINA RESULT:      -8.6      1.497      5.694
REMARK  Name = *****
REMARK                            x       y       z     vdW  Elec       q    Type
REMARK                         _______ _______ _______ _____ _____    ______ ____
ROOT
ATOM      1  O   LIG    1       25.112 -21.220   8.651  0.00  0.00    -0.270 OA
ATOM      2  C   LIG    1       25.148 -21.970   7.676  0.00  0.00    +0.271 C 
ATOM      3  C   LIG    1       25.581 -21.528   6.220  0.00  0.00    +0.236 C 
ATOM      4  O   LIG    1       25.741 -22.581   5.245  0.00  0.00    -0.465 OA
ATOM      5  C   LIG    1       25.178 -23.793   5.518  0.00  0.00    +0.144 A 
ATOM      6  C   LIG    1       24.672 -24.158   6.760  0.00  0.00    +0.076 A 
ATOM      7  C   LIG    1       24.137 -25.434   6.959  0.00  0.00    +0.027 A 
ATOM      8  C   LIG    1       24.103 -26.345   5.902  0.00  0.00    +0.002 A 
ATOM      9  C   LIG    1       24.618 -25.986   4.658  0.00  0.00    +0.004 A 
ATOM     10  C   LIG    1       25.162 -24.714   4.468  0.00  0.00    +0.048 A 
ATOM     11  N   LIG    1       24.705 -23.261   7.819  0.00  0.00    -0.279 N 
ATOM     12  H   LIG    1       24.373 -23.524   8.736  0.00  0.00    +0.155 HD
ENDROOT
BRANCH   3  13
ATOM     13  C   LIG    1       26.977 -20.839   6.335  0.00  0.00    +0.009 A 
ATOM     14  C   LIG    1       27.317 -19.760   5.492  0.00  0.00    +0.012 A 
ATOM     15  C   LIG    1       28.561 -19.127   5.590  0.00  0.00    +0.046 A 
ATOM     16  C   LIG    1       29.492 -19.573   6.516  0.00  0.00    +0.117 A 
ATOM     17  C   LIG    1       29.202 -20.649   7.346  0.00  0.00    +0.046 A 
ATOM     18  C   LIG    1       27.954 -21.281   7.251  0.00  0.00    +0.012 A 
BRANCH  16  19
ATOM     19  O   LIG    1       30.691 -18.926   6.577  0.00  0.00    -0.507 OA
ATOM     20  H   LIG    1       30.691 -18.346   7.356  0.00  0.00    +0.292 HD
ENDBRANCH  16  19
ENDBRANCH   3  13
BRANCH   3  21
ATOM     21  C   LIG    1       24.515 -20.592   5.575  0.00  0.00    +0.009 A 
ATOM     22  C   LIG    1       23.280 -20.304   6.190  0.00  0.00    +0.012 A 
ATOM     23  C   LIG    1       22.339 -19.478   5.569  0.00  0.00    +0.046 A 
ATOM     24  C   LIG    1       22.613 -18.927   4.327  0.00  0.00    +0.117 A 
ATOM     25  C   LIG    1       23.817 -19.192   3.687  0.00  0.00    +0.046 A 
ATOM     26  C   LIG    1       24.757 -20.022   4.306  0.00  0.00    +0.012 A 
BRANCH  24  27
ATOM     27  O   LIG    1       21.663 -18.128   3.764  0.00  0.00    -0.507 OA
ATOM     28  H   LIG    1       21.466 -18.460   2.874  0.00  0.00    +0.292 HD
ENDBRANCH  24  27
ENDBRANCH   3  21
TORSDOF 4
ENDMDL
MODEL 4
REMARK VINA RESULT:      -7.4      5.654      9.304
REMARK  Name = *****
REMARK                            x       y       z     vdW  Elec       q    Type
REMARK                         _______ _______ _______ _____ _____    ______ ____
ROOT
ATOM      1  O   LIG    1       26.715 -29.894   9.528  0.00  0.00    -0.270 OA
ATOM      2  C   LIG    1       26.096 -29.357   8.609  0.00  0.00    +0.271 C 
ATOM      3  C   LIG    1       25.034 -30.089   7.695  0.00  0.00    +0.236 C 
ATOM      4  O   LIG    1       24.275 -29.256   6.791  0.00  0.00    -0.465 OA
ATOM      5  C   LIG    1       24.751 -28.007   6.524  0.00  0.00    +0.144 A 
ATOM      6  C   LIG    1       25.775 -27.392   7.234  0.00  0.00    +0.076 A 
ATOM      7  C   LIG    1       26.182 -26.096   6.909  0.00  0.00    +0.027 A 
ATOM      8  C   LIG    1       25.562 -25.415   5.859  0.00  0.00    +0.002 A 
ATOM      9  C   LIG    1       24.529 -26.025   5.150  0.00  0.00    +0.004 A 
ATOM     10  C   LIG    1       24.119 -27.317   5.487  0.00  0.00    +0.048 A 
ATOM     11  N   LIG    1       26.395 -28.058   8.284  0.00  0.00    -0.279 N 
ATOM     12  H   LIG    1       27.117 -27.611   8.831  0.00  0.00    +0.155 HD
ENDROOT
BRANCH   3  13
ATOM     13  C   LIG    1       23.986 -30.760   8.637  0.00  0.00    +0.009 A 
ATOM     14  C   LIG    1       23.517 -30.087   9.784  0.00  0.00    +0.012 A 
ATOM     15  C   LIG    1       22.571 -30.673  10.633  0.00  0.00    +0.046 A 
ATOM     16  C   LIG    1       22.094 -31.946  10.362  0.00  0.00    +0.117 A 
ATOM     17  C   LIG    1       22.553 -32.650   9.254  0.00  0.00    +0.046 A 
ATOM     18  C   LIG    1       23.497 -32.061   8.401  0.00  0.00    +0.012 A 
BRANCH  16  19
ATOM     19  O   LIG    1       21.173 -32.477  11.215  0.00  0.00    -0.507 OA
ATOM     20  H   LIG    1       20.660 -33.151  10.739  0.00  0.00    +0.292 HD
ENDBRANCH  16  19
ENDBRANCH   3  13
BRANCH   3  21
ATOM     21  C   LIG    1       25.720 -31.122   6.751  0.00  0.00    +0.009 A 
ATOM     22  C   LIG    1       26.692 -32.038   7.200  0.00  0.00    +0.012 A 
ATOM     23  C   LIG    1       27.303 -32.934   6.318  0.00  0.00    +0.046 A 
ATOM     24  C   LIG    1       26.957 -32.929   4.976  0.00  0.00    +0.117 A 
ATOM     25  C   LIG    1       26.008 -32.037   4.494  0.00  0.00    +0.046 A 
ATOM     26  C   LIG    1       25.399 -31.138   5.375  0.00  0.00    +0.012 A 
BRANCH  24  27
ATOM     27  O   LIG    1       27.581 -33.823   4.157  0.00  0.00    -0.507 OA
ATOM     28  H   LIG    1       28.158 -34.388   4.697  0.00  0.00    +0.292 HD
ENDBRANCH  24  27
ENDBRANCH   3  21
TORSDOF 4
ENDMDL
