MODEL 1
REMARK VINA RESULT:      -4.8      0.000      0.000
REMARK  Name = *****
REMARK                            x       y       z     vdW  Elec       q    Type
REMARK                         _______ _______ _______ _____ _____    ______ ____
ROOT
ATOM      1  CA  GLU A  1       25.008 -20.497   5.384  0.00  0.00    +0.183 C 
ENDROOT
BRANCH   1   6
ATOM      2  N   UNK A  0       21.544 -21.572   4.981  0.00  0.00    -0.313 N 
ATOM      3  H   UNK A  0       21.623 -22.422   5.525  0.00  0.00    +0.146 HD
ATOM      4  H   UNK A  0       20.619 -21.161   4.990  0.00  0.00    +0.146 HD
ATOM      5  C   UNK A  0       22.541 -20.670   5.123  0.00  0.00    +0.298 C 
ATOM      6  N   GLU A  1       23.759 -21.255   5.256  0.00  0.00    -0.286 N 
ATOM      7  H   GLU A  1       23.835 -22.146   4.781  0.00  0.00    +0.151 HD
ATOM      8  O   UNK A  0       22.348 -19.472   5.170  0.00  0.00    -0.253 OA
ENDBRANCH   1   6
BRANCH   1   9
ATOM      9  C   GLU A  1       25.486 -19.918   4.025  0.00  0.00    +0.325 C 
ATOM     10  O   GLU A  1       25.025 -20.278   2.947  0.00  0.00    -0.249 OA
BRANCH   9  11
ATOM     11  OXT GLU A  1       26.403 -18.927   4.089  0.00  0.00    -0.479 OA
ATOM     12  HXT GLU A  1       26.020 -18.017   4.037  0.00  0.00    +0.295 HD
ENDBRANCH   9  11
ENDBRANCH   1   9
BRANCH   1  13
ATOM     13  CB  GLU A  1       26.127 -21.282   6.104  0.00  0.00    +0.045 C 
BRANCH  13  14
ATOM     14  CG  GLU A  1       27.030 -20.462   7.036  0.00  0.00    +0.123 C 
BRANCH  14  15
ATOM     15  CD  GLU A  1       28.430 -20.248   6.519  0.00  0.00    +0.305 C 
ATOM     16  OE1 GLU A  1       28.741 -19.295   5.820  0.00  0.00    -0.251 OA
BRANCH  15  17
ATOM     17  OE2 GLU A  1       29.314 -21.197   6.890  0.00  0.00    -0.481 OA
ATOM     18  HE2 GLU A  1       29.086 -22.110   6.634  0.00  0.00    +0.295 HD
ENDBRANCH  15  17
ENDBRANCH  14  15
ENDBRANCH  13  14
ENDBRANCH   1  13
TORSDOF 7
ENDMDL
MODEL 2
REMARK VINA RESULT:      -4.8      1.763      2.999
REMARK  Name = *****
REMARK                            x       y       z     vdW  Elec       q    Type
REMARK                         _______ _______ _______ _____ _____    ______ ____
ROOT
ATOM      1  CA  GLU A  1       25.143 -21.059   5.375  0.00  0.00    +0.183 C 
ENDROOT
BRANCH   1   6
ATOM      2  N   UNK A  0       25.669 -18.190   3.182  0.00  0.00    -0.313 N 
ATOM      3  H   UNK A  0       26.585 -17.942   3.534  0.00  0.00    +0.146 HD
ATOM      4  H   UNK A  0       25.518 -17.941   2.212  0.00  0.00    +0.146 HD
ATOM      5  C   UNK A  0       25.211 -19.419   3.506  0.00  0.00    +0.298 C 
ATOM      6  N   GLU A  1       25.553 -19.788   4.767  0.00  0.00    -0.286 N 
ATOM      7  H   GLU A  1       25.648 -19.010   5.406  0.00  0.00    +0.151 HD
ATOM      8  O   UNK A  0       24.598 -20.124   2.729  0.00  0.00    -0.253 OA
ENDBRANCH   1   6
BRANCH   1   9
ATOM      9  C   GLU A  1       23.637 -21.072   5.752  0.00  0.00    +0.325 C 
ATOM     10  O   GLU A  1       23.211 -20.629   6.813  0.00  0.00    -0.249 OA
BRANCH   9  11
ATOM     11  OXT GLU A  1       22.790 -21.538   4.807  0.00  0.00    -0.479 OA
ATOM     12  HXT GLU A  1       23.221 -21.740   3.941  0.00  0.00    +0.295 HD
ENDBRANCH   9  11
ENDBRANCH   1   9
BRANCH   1  13
ATOM     13  CB  GLU A  1       26.039 -21.486   6.559  0.00  0.00    +0.045 C 
BRANCH  13  14
ATOM     14  CG  GLU A  1       27.035 -20.432   7.062  0.00  0.00    +0.123 C 
BRANCH  14  15
ATOM     15  CD  GLU A  1       28.412 -20.536   6.457  0.00  0.00    +0.305 C 
ATOM     16  OE1 GLU A  1       29.364 -21.016   7.054  0.00  0.00    -0.251 OA
BRANCH  15  17
ATOM     17  OE2 GLU A  1       28.509 -20.055   5.200  0.00  0.00    -0.481 OA
ATOM     18  HE2 GLU A  1       29.327 -19.562   4.999  0.00  0.00    +0.295 HD
ENDBRANCH  15  17
ENDBRANCH  14  15
ENDBRANCH  13  14
ENDBRANCH   1  13
TORSDOF 7
ENDMDL
MODEL 3
REMARK VINA RESULT:      -4.7      6.422      7.938
REMARK  Name = *****
REMARK                            x       y       z     vdW  Elec       q    Type
REMARK                         _______ _______ _______ _____ _____    ______ ____
ROOT
ATOM      1  CA  GLU A  1       27.355 -13.961   4.005  0.00  0.00    +0.183 C 
ENDROOT
BRANCH   1   6
ATOM      2  N   UNK A  0       27.750 -17.588   4.045  0.00  0.00    -0.313 N 
ATOM      3  H   UNK A  0       28.087 -17.657   4.997  0.00  0.00    +0.146 HD
ATOM      4  H   UNK A  0       27.249 -18.408   3.724  0.00  0.00    +0.146 HD
ATOM      5  C   UNK A  0       27.165 -16.421   3.695  0.00  0.00    +0.298 C 
ATOM      6  N   GLU A  1       27.771 -15.345   4.258  0.00  0.00    -0.286 N 
ATOM      7  H   GLU A  1       28.759 -15.479   4.429  0.00  0.00    +0.151 HD
ATOM      8  O   UNK A  0       26.179 -16.360   2.989  0.00  0.00    -0.253 OA
ENDBRANCH   1   6
BRANCH   1   9
ATOM      9  C   GLU A  1       28.539 -12.962   4.107  0.00  0.00    +0.325 C 
ATOM     10  O   GLU A  1       28.672 -12.179   5.041  0.00  0.00    -0.249 OA
BRANCH   9  11
ATOM     11  OXT GLU A  1       29.475 -13.045   3.135  0.00  0.00    -0.479 OA
ATOM     12  HXT GLU A  1       29.216 -13.617   2.372  0.00  0.00    +0.295 HD
ENDBRANCH   9  11
ENDBRANCH   1   9
BRANCH   1  13
ATOM     13  CB  GLU A  1       26.150 -13.519   4.866  0.00  0.00    +0.045 C 
BRANCH  13  14
ATOM     14  CG  GLU A  1       24.764 -13.745   4.246  0.00  0.00    +0.123 C 
BRANCH  14  15
ATOM     15  CD  GLU A  1       24.350 -12.699   3.243  0.00  0.00    +0.305 C 
ATOM     16  OE1 GLU A  1       23.735 -11.690   3.552  0.00  0.00    -0.251 OA
BRANCH  15  17
ATOM     17  OE2 GLU A  1       24.715 -12.967   1.972  0.00  0.00    -0.481 OA
ATOM     18  HE2 GLU A  1       23.983 -13.053   1.332  0.00  0.00    +0.295 HD
ENDBRANCH  15  17
ENDBRANCH  14  15
ENDBRANCH  13  14
ENDBRANCH   1  13
TORSDOF 7
ENDMDL
MODEL 4
REMARK VINA RESULT:      -4.4      1.607      4.141
REMARK  Name = *****
REMARK                            x       y       z     vdW  Elec       q    Type
REMARK                         _______ _______ _______ _____ _____    ______ ____
ROOT
ATOM      1  CA  GLU A  1       25.741 -20.445   5.851  0.00  0.00    +0.183 C 
ENDROOT
BRANCH   1   6
ATOM      2  N   UNK A  0       24.912 -20.403   2.298  0.00  0.00    -0.313 N 
ATOM      3  H   UNK A  0       24.330 -21.231   2.305  0.00  0.00    +0.146 HD
ATOM      4  H   UNK A  0       24.659 -19.726   1.588  0.00  0.00    +0.146 HD
ATOM      5  C   UNK A  0       25.192 -19.851   3.499  0.00  0.00    +0.298 C 
ATOM      6  N   GLU A  1       25.384 -20.782   4.469  0.00  0.00    -0.286 N 
ATOM      7  H   GLU A  1       25.757 -21.657   4.123  0.00  0.00    +0.151 HD
ATOM      8  O   UNK A  0       25.221 -18.652   3.687  0.00  0.00    -0.253 OA
ENDBRANCH   1   6
BRANCH   1   9
ATOM      9  C   GLU A  1       27.263 -20.594   6.119  0.00  0.00    +0.325 C 
ATOM     10  O   GLU A  1       27.714 -21.243   7.057  0.00  0.00    -0.249 OA
BRANCH   9  11
ATOM     11  OXT GLU A  1       28.088 -20.026   5.212  0.00  0.00    -0.479 OA
ATOM     12  HXT GLU A  1       27.842 -20.207   4.272  0.00  0.00    +0.295 HD
ENDBRANCH   9  11
ENDBRANCH   1   9
BRANCH   1  13
ATOM     13  CB  GLU A  1       24.892 -21.196   6.901  0.00  0.00    +0.045 C 
BRANCH  13  14
ATOM     14  CG  GLU A  1       23.444 -20.715   7.062  0.00  0.00    +0.123 C 
BRANCH  14  15
ATOM     15  CD  GLU A  1       22.727 -20.448   5.763  0.00  0.00    +0.305 C 
ATOM     16  OE1 GLU A  1       22.390 -19.328   5.409  0.00  0.00    -0.251 OA
BRANCH  15  17
ATOM     17  OE2 GLU A  1       22.486 -21.548   5.020  0.00  0.00    -0.481 OA
ATOM     18  HE2 GLU A  1       23.267 -21.948   4.592  0.00  0.00    +0.295 HD
ENDBRANCH  15  17
ENDBRANCH  14  15
ENDBRANCH  13  14
ENDBRANCH   1  13
TORSDOF 7
ENDMDL
MODEL 5
REMARK VINA RESULT:      -4.3      6.198      7.182
REMARK  Name = *****
REMARK                            x       y       z     vdW  Elec       q    Type
REMARK                         _______ _______ _______ _____ _____    ______ ____
ROOT
ATOM      1  CA  GLU A  1       27.011 -13.760   3.910  0.00  0.00    +0.183 C 
ENDROOT
BRANCH   1   6
ATOM      2  N   UNK A  0       24.382 -12.282   1.857  0.00  0.00    -0.313 N 
ATOM      3  H   UNK A  0       24.661 -12.712   0.985  0.00  0.00    +0.146 HD
ATOM      4  H   UNK A  0       23.390 -12.086   1.923  0.00  0.00    +0.146 HD
ATOM      5  C   UNK A  0       24.908 -12.808   2.985  0.00  0.00    +0.298 C 
ATOM      6  N   GLU A  1       26.199 -13.196   2.826  0.00  0.00    -0.286 N 
ATOM      7  H   GLU A  1       26.706 -12.651   2.141  0.00  0.00    +0.151 HD
ATOM      8  O   UNK A  0       24.270 -12.953   4.009  0.00  0.00    -0.253 OA
ENDBRANCH   1   6
BRANCH   1   9
ATOM      9  C   GLU A  1       28.351 -12.999   4.099  0.00  0.00    +0.325 C 
ATOM     10  O   GLU A  1       28.539 -12.197   5.007  0.00  0.00    -0.249 OA
BRANCH   9  11
ATOM     11  OXT GLU A  1       29.346 -13.321   3.243  0.00  0.00    -0.479 OA
ATOM     12  HXT GLU A  1       29.239 -14.204   2.813  0.00  0.00    +0.295 HD
ENDBRANCH   9  11
ENDBRANCH   1   9
BRANCH   1  13
ATOM     13  CB  GLU A  1       27.225 -15.285   3.783  0.00  0.00    +0.045 C 
BRANCH  13  14
ATOM     14  CG  GLU A  1       26.010 -16.096   3.312  0.00  0.00    +0.123 C 
BRANCH  14  15
ATOM     15  CD  GLU A  1       26.119 -17.580   3.554  0.00  0.00    +0.305 C 
ATOM     16  OE1 GLU A  1       25.210 -18.361   3.312  0.00  0.00    -0.251 OA
BRANCH  15  17
ATOM     17  OE2 GLU A  1       27.303 -17.979   4.062  0.00  0.00    -0.481 OA
ATOM     18  HE2 GLU A  1       27.255 -18.642   4.776  0.00  0.00    +0.295 HD
ENDBRANCH  15  17
ENDBRANCH  14  15
ENDBRANCH  13  14
ENDBRANCH   1  13
TORSDOF 7
ENDMDL
MODEL 6
REMARK VINA RESULT:      -4.2      2.240      4.873
REMARK  Name = *****
REMARK                            x       y       z     vdW  Elec       q    Type
REMARK                         _______ _______ _______ _____ _____    ______ ____
ROOT
ATOM      1  CA  GLU A  1       25.834 -20.462   4.917  0.00  0.00    +0.183 C 
ENDROOT
BRANCH   1   6
ATOM      2  N   UNK A  0       29.076 -20.101   6.551  0.00  0.00    -0.313 N 
ATOM      3  H   UNK A  0       29.137 -19.095   6.466  0.00  0.00    +0.146 HD
ATOM      4  H   UNK A  0       29.566 -20.479   7.354  0.00  0.00    +0.146 HD
ATOM      5  C   UNK A  0       27.859 -20.652   6.348  0.00  0.00    +0.298 C 
ATOM      6  N   GLU A  1       27.164 -20.031   5.360  0.00  0.00    -0.286 N 
ATOM      7  H   GLU A  1       27.752 -19.625   4.644  0.00  0.00    +0.151 HD
ATOM      8  O   UNK A  0       27.429 -21.572   7.014  0.00  0.00    -0.253 OA
ENDBRANCH   1   6
BRANCH   1   9
ATOM      9  C   GLU A  1       25.351 -19.685   3.663  0.00  0.00    +0.325 C 
ATOM     10  O   GLU A  1       24.363 -20.014   3.015  0.00  0.00    -0.249 OA
BRANCH   9  11
ATOM     11  OXT GLU A  1       26.040 -18.564   3.353  0.00  0.00    -0.479 OA
ATOM     12  HXT GLU A  1       26.595 -18.213   4.092  0.00  0.00    +0.295 HD
ENDBRANCH   9  11
ENDBRANCH   1   9
BRANCH   1  13
ATOM     13  CB  GLU A  1       24.780 -20.447   6.048  0.00  0.00    +0.045 C 
BRANCH  13  14
ATOM     14  CG  GLU A  1       23.603 -21.419   5.881  0.00  0.00    +0.123 C 
BRANCH  14  15
ATOM     15  CD  GLU A  1       22.354 -20.794   5.315  0.00  0.00    +0.305 C 
ATOM     16  OE1 GLU A  1       21.418 -21.453   4.886  0.00  0.00    -0.251 OA
BRANCH  15  17
ATOM     17  OE2 GLU A  1       22.351 -19.445   5.320  0.00  0.00    -0.481 OA
ATOM     18  HE2 GLU A  1       23.126 -19.020   4.904  0.00  0.00    +0.295 HD
ENDBRANCH  15  17
ENDBRANCH  14  15
ENDBRANCH  13  14
ENDBRANCH   1  13
TORSDOF 7
ENDMDL
MODEL 7
REMARK VINA RESULT:      -4.2      5.893      6.798
REMARK  Name = *****
REMARK                            x       y       z     vdW  Elec       q    Type
REMARK                         _______ _______ _______ _____ _____    ______ ____
ROOT
ATOM      1  CA  GLU A  1       25.463 -14.556   3.730  0.00  0.00    +0.183 C 
ENDROOT
BRANCH   1   6
ATOM      2  N   UNK A  0       25.730 -18.159   3.224  0.00  0.00    -0.313 N 
ATOM      3  H   UNK A  0       24.912 -18.254   2.636  0.00  0.00    +0.146 HD
ATOM      4  H   UNK A  0       26.451 -18.847   3.042  0.00  0.00    +0.146 HD
ATOM      5  C   UNK A  0       26.205 -16.907   3.400  0.00  0.00    +0.298 C 
ATOM      6  N   GLU A  1       25.215 -15.982   3.496  0.00  0.00    -0.286 N 
ATOM      7  H   GLU A  1       24.356 -16.346   3.890  0.00  0.00    +0.151 HD
ATOM      8  O   UNK A  0       27.390 -16.645   3.423  0.00  0.00    -0.253 OA
ENDBRANCH   1   6
BRANCH   1   9
ATOM      9  C   GLU A  1       25.795 -13.792   2.420  0.00  0.00    +0.325 C 
ATOM     10  O   GLU A  1       25.090 -12.893   1.976  0.00  0.00    -0.249 OA
BRANCH   9  11
ATOM     11  OXT GLU A  1       26.958 -14.122   1.815  0.00  0.00    -0.479 OA
ATOM     12  HXT GLU A  1       27.251 -15.051   1.982  0.00  0.00    +0.295 HD
ENDBRANCH   9  11
ENDBRANCH   1   9
BRANCH   1  13
ATOM     13  CB  GLU A  1       26.512 -14.292   4.834  0.00  0.00    +0.045 C 
BRANCH  13  14
ATOM     14  CG  GLU A  1       26.991 -12.841   4.972  0.00  0.00    +0.123 C 
BRANCH  14  15
ATOM     15  CD  GLU A  1       28.454 -12.636   4.672  0.00  0.00    +0.305 C 
ATOM     16  OE1 GLU A  1       29.014 -13.149   3.715  0.00  0.00    -0.251 OA
BRANCH  15  17
ATOM     17  OE2 GLU A  1       29.099 -11.838   5.548  0.00  0.00    -0.481 OA
ATOM     18  HE2 GLU A  1       28.841 -10.897   5.531  0.00  0.00    +0.295 HD
ENDBRANCH  15  17
ENDBRANCH  14  15
ENDBRANCH  13  14
ENDBRANCH   1  13
TORSDOF 7
ENDMDL
MODEL 8
REMARK VINA RESULT:      -4.2      6.061      7.347
REMARK  Name = *****
REMARK                            x       y       z     vdW  Elec       q    Type
REMARK                         _______ _______ _______ _____ _____    ______ ____
ROOT
ATOM      1  CA  GLU A  1       25.949 -14.213   2.592  0.00  0.00    +0.183 C 
ENDROOT
BRANCH   1   6
ATOM      2  N   UNK A  0       29.217 -12.978   3.644  0.00  0.00    -0.313 N 
ATOM      3  H   UNK A  0       29.439 -12.493   2.784  0.00  0.00    +0.146 HD
ATOM      4  H   UNK A  0       29.644 -12.574   4.469  0.00  0.00    +0.146 HD
ATOM      5  C   UNK A  0       27.925 -13.334   3.819  0.00  0.00    +0.298 C 
ATOM      6  N   GLU A  1       27.334 -13.736   2.665  0.00  0.00    -0.286 N 
ATOM      7  H   GLU A  1       27.975 -14.158   2.005  0.00  0.00    +0.151 HD
ATOM      8  O   UNK A  0       27.356 -13.256   4.889  0.00  0.00    -0.253 OA
ENDBRANCH   1   6
BRANCH   1   9
ATOM      9  C   GLU A  1       24.920 -13.062   2.763  0.00  0.00    +0.325 C 
ATOM     10  O   GLU A  1       24.502 -12.396   1.823  0.00  0.00    -0.249 OA
BRANCH   9  11
ATOM     11  OXT GLU A  1       24.442 -12.871   4.013  0.00  0.00    -0.479 OA
ATOM     12  HXT GLU A  1       24.989 -13.286   4.724  0.00  0.00    +0.295 HD
ENDBRANCH   9  11
ENDBRANCH   1   9
BRANCH   1  13
ATOM     13  CB  GLU A  1       25.659 -15.395   3.544  0.00  0.00    +0.045 C 
BRANCH  13  14
ATOM     14  CG  GLU A  1       26.365 -16.715   3.209  0.00  0.00    +0.123 C 
BRANCH  14  15
ATOM     15  CD  GLU A  1       25.574 -17.951   3.554  0.00  0.00    +0.305 C 
ATOM     16  OE1 GLU A  1       24.354 -17.997   3.494  0.00  0.00    -0.251 OA
BRANCH  15  17
ATOM     17  OE2 GLU A  1       26.323 -19.006   3.937  0.00  0.00    -0.481 OA
ATOM     18  HE2 GLU A  1       27.227 -19.036   3.572  0.00  0.00    +0.295 HD
ENDBRANCH  15  17
ENDBRANCH  14  15
ENDBRANCH  13  14
ENDBRANCH   1  13
TORSDOF 7
ENDMDL
MODEL 9
REMARK VINA RESULT:      -4.1      2.297      3.199
REMARK  Name = *****
REMARK                            x       y       z     vdW  Elec       q    Type
REMARK                         _______ _______ _______ _____ _____    ______ ____
ROOT
ATOM      1  CA  GLU A  1       23.499 -20.330   4.269  0.00  0.00    +0.183 C 
ENDROOT
BRANCH   1   6
ATOM      2  N   UNK A  0       22.365 -16.877   4.588  0.00  0.00    -0.313 N 
ATOM      3  H   UNK A  0       23.239 -16.443   4.318  0.00  0.00    +0.146 HD
ATOM      4  H   UNK A  0       21.545 -16.326   4.367  0.00  0.00    +0.146 HD
ATOM      5  C   UNK A  0       22.231 -18.191   4.304  0.00  0.00    +0.298 C 
ATOM      6  N   GLU A  1       23.388 -18.882   4.471  0.00  0.00    -0.286 N 
ATOM      7  H   GLU A  1       23.994 -18.493   5.183  0.00  0.00    +0.151 HD
ATOM      8  O   UNK A  0       21.194 -18.680   3.903  0.00  0.00    -0.253 OA
ENDBRANCH   1   6
BRANCH   1   9
ATOM      9  C   GLU A  1       22.627 -21.134   5.271  0.00  0.00    +0.325 C 
ATOM     10  O   GLU A  1       22.952 -21.316   6.439  0.00  0.00    -0.249 OA
BRANCH   9  11
ATOM     11  OXT GLU A  1       21.435 -21.571   4.807  0.00  0.00    -0.479 OA
ATOM     12  HXT GLU A  1       21.323 -21.478   3.830  0.00  0.00    +0.295 HD
ENDBRANCH   9  11
ENDBRANCH   1   9
BRANCH   1  13
ATOM     13  CB  GLU A  1       24.960 -20.832   4.241  0.00  0.00    +0.045 C 
BRANCH  13  14
ATOM     14  CG  GLU A  1       26.001 -19.905   4.884  0.00  0.00    +0.123 C 
BRANCH  14  15
ATOM     15  CD  GLU A  1       26.625 -20.446   6.145  0.00  0.00    +0.305 C 
ATOM     16  OE1 GLU A  1       27.757 -20.159   6.502  0.00  0.00    -0.251 OA
BRANCH  15  17
ATOM     17  OE2 GLU A  1       25.830 -21.278   6.850  0.00  0.00    -0.481 OA
ATOM     18  HE2 GLU A  1       24.991 -21.528   6.418  0.00  0.00    +0.295 HD
ENDBRANCH  15  17
ENDBRANCH  14  15
ENDBRANCH  13  14
ENDBRANCH   1  13
TORSDOF 7
ENDMDL
