MODEL 1
REMARK VINA RESULT:      -4.9      0.000      0.000
REMARK  Name = *****
REMARK                            x       y       z     vdW  Elec       q    Type
REMARK                         _______ _______ _______ _____ _____    ______ ____
ROOT
ATOM      1  C   LIG    1       23.879 -13.582   4.552  0.00  0.00    +0.036 C 
ATOM      2  C   LIG    1       24.748 -14.496   3.686  0.00  0.00    +0.140 C 
ENDROOT
BRANCH   2   3
ATOM      3  C   LIG    1       24.372 -15.958   3.788  0.00  0.00    +0.013 A 
ATOM      4  S   LIG    1       25.519 -17.149   3.341  0.00  0.00    -0.091 S 
ATOM      5  C   LIG    1       24.502 -18.444   3.835  0.00  0.00    +0.020 A 
ATOM      6  C   LIG    1       23.265 -17.978   4.281  0.00  0.00    -0.011 A 
ATOM      7  C   LIG    1       22.310 -18.928   4.718  0.00  0.00    +0.009 A 
ATOM      8  C   LIG    1       22.613 -20.293   4.708  0.00  0.00    +0.001 A 
ATOM      9  C   LIG    1       23.855 -20.731   4.269  0.00  0.00    +0.001 A 
ATOM     10  C   LIG    1       24.813 -19.818   3.823  0.00  0.00    +0.015 A 
ATOM     11  C   LIG    1       23.203 -16.544   4.234  0.00  0.00    +0.021 A 
ENDBRANCH   2   3
BRANCH   2  12
ATOM     12  N   LIG    1       26.175 -14.350   3.998  0.00  0.00    -0.160 N 
ATOM     13  C   LIG    1       27.121 -14.143   3.020  0.00  0.00    +0.323 C 
ATOM     14  O   LIG    1       26.929 -14.212   1.813  0.00  0.00    -0.251 OA
ATOM     15  N   LIG    1       28.358 -13.835   3.513  0.00  0.00    -0.312 N 
ATOM     16  H   LIG    1       29.067 -13.816   2.790  0.00  0.00    +0.146 HD
ATOM     17  H   LIG    1       28.618 -14.382   4.328  0.00  0.00    +0.146 HD
BRANCH  12  18
ATOM     18  O   LIG    1       26.436 -13.761   5.265  0.00  0.00    -0.291 OA
ATOM     19  H   LIG    1       26.381 -12.807   5.061  0.00  0.00    +0.242 HD
ENDBRANCH  12  18
ENDBRANCH   2  12
TORSDOF 3
ENDMDL
MODEL 2
REMARK VINA RESULT:      -4.8      1.685      2.365
REMARK  Name = *****
REMARK                            x       y       z     vdW  Elec       q    Type
REMARK                         _______ _______ _______ _____ _____    ______ ____
ROOT
ATOM      1  C   LIG    1       25.729 -12.889   2.387  0.00  0.00    +0.036 C 
ATOM      2  C   LIG    1       26.498 -13.963   3.159  0.00  0.00    +0.140 C 
ENDROOT
BRANCH   2   3
ATOM      3  C   LIG    1       25.666 -15.184   3.484  0.00  0.00    +0.013 A 
ATOM      4  S   LIG    1       24.089 -14.975   4.118  0.00  0.00    -0.091 S 
ATOM      5  C   LIG    1       23.754 -16.661   4.084  0.00  0.00    +0.020 A 
ATOM      6  C   LIG    1       24.861 -17.392   3.652  0.00  0.00    -0.011 A 
ATOM      7  C   LIG    1       24.746 -18.801   3.576  0.00  0.00    +0.009 A 
ATOM      8  C   LIG    1       23.546 -19.432   3.918  0.00  0.00    +0.001 A 
ATOM      9  C   LIG    1       22.454 -18.682   4.336  0.00  0.00    +0.001 A 
ATOM     10  C   LIG    1       22.542 -17.292   4.429  0.00  0.00    +0.015 A 
ATOM     11  C   LIG    1       25.958 -16.525   3.323  0.00  0.00    +0.021 A 
ENDBRANCH   2   3
BRANCH   2  12
ATOM     12  N   LIG    1       27.074 -13.435   4.403  0.00  0.00    -0.160 N 
ATOM     13  C   LIG    1       28.346 -12.916   4.458  0.00  0.00    +0.323 C 
ATOM     14  O   LIG    1       29.181 -12.971   3.564  0.00  0.00    -0.251 OA
ATOM     15  N   LIG    1       28.633 -12.298   5.642  0.00  0.00    -0.312 N 
ATOM     16  H   LIG    1       29.610 -12.039   5.716  0.00  0.00    +0.146 HD
ATOM     17  H   LIG    1       28.278 -12.792   6.455  0.00  0.00    +0.146 HD
BRANCH  12  18
ATOM     18  O   LIG    1       26.119 -12.867   5.290  0.00  0.00    -0.291 OA
ATOM     19  H   LIG    1       26.686 -12.534   6.013  0.00  0.00    +0.242 HD
ENDBRANCH  12  18
ENDBRANCH   2  12
TORSDOF 3
ENDMDL
MODEL 3
REMARK VINA RESULT:      -4.5      1.505      2.399
REMARK  Name = *****
REMARK                            x       y       z     vdW  Elec       q    Type
REMARK                         _______ _______ _______ _____ _____    ______ ____
ROOT
ATOM      1  C   LIG    1       27.278 -14.510   3.527  0.00  0.00    +0.036 C 
ATOM      2  C   LIG    1       25.795 -14.424   3.897  0.00  0.00    +0.140 C 
ENDROOT
BRANCH   2   3
ATOM      3  C   LIG    1       25.090 -15.762   3.877  0.00  0.00    +0.013 A 
ATOM      4  S   LIG    1       25.953 -17.154   3.376  0.00  0.00    -0.091 S 
ATOM      5  C   LIG    1       24.645 -18.208   3.741  0.00  0.00    +0.020 A 
ATOM      6  C   LIG    1       23.528 -17.499   4.184  0.00  0.00    -0.011 A 
ATOM      7  C   LIG    1       22.362 -18.227   4.520  0.00  0.00    +0.009 A 
ATOM      8  C   LIG    1       22.344 -19.622   4.416  0.00  0.00    +0.001 A 
ATOM      9  C   LIG    1       23.472 -20.306   3.982  0.00  0.00    +0.001 A 
ATOM     10  C   LIG    1       24.633 -19.612   3.635  0.00  0.00    +0.015 A 
ATOM     11  C   LIG    1       23.799 -16.089   4.244  0.00  0.00    +0.021 A 
ENDBRANCH   2   3
BRANCH   2  12
ATOM     12  N   LIG    1       25.068 -13.491   3.027  0.00  0.00    -0.160 N 
ATOM     13  C   LIG    1       24.237 -12.517   3.529  0.00  0.00    +0.323 C 
ATOM     14  O   LIG    1       23.886 -12.409   4.697  0.00  0.00    -0.251 OA
ATOM     15  N   LIG    1       23.807 -11.626   2.587  0.00  0.00    -0.312 N 
ATOM     16  H   LIG    1       23.097 -10.999   2.946  0.00  0.00    +0.146 HD
ATOM     17  H   LIG    1       23.564 -12.057   1.701  0.00  0.00    +0.146 HD
BRANCH  12  18
ATOM     18  O   LIG    1       25.742 -13.183   1.813  0.00  0.00    -0.291 OA
ATOM     19  H   LIG    1       25.666 -12.209   1.780  0.00  0.00    +0.242 HD
ENDBRANCH  12  18
ENDBRANCH   2  12
TORSDOF 3
ENDMDL
MODEL 4
REMARK VINA RESULT:      -4.4      1.129      2.148
REMARK  Name = *****
REMARK                            x       y       z     vdW  Elec       q    Type
REMARK                         _______ _______ _______ _____ _____    ______ ____
ROOT
ATOM      1  C   LIG    1       24.516 -12.719   4.445  0.00  0.00    +0.036 C 
ATOM      2  C   LIG    1       24.975 -13.672   3.340  0.00  0.00    +0.140 C 
ENDROOT
BRANCH   2   3
ATOM      3  C   LIG    1       24.653 -15.123   3.623  0.00  0.00    +0.013 A 
ATOM      4  S   LIG    1       23.151 -15.520   4.345  0.00  0.00    -0.091 S 
ATOM      5  C   LIG    1       23.432 -17.211   4.215  0.00  0.00    +0.020 A 
ATOM      6  C   LIG    1       24.694 -17.478   3.682  0.00  0.00    -0.011 A 
ATOM      7  C   LIG    1       25.079 -18.830   3.518  0.00  0.00    +0.009 A 
ATOM      8  C   LIG    1       24.206 -19.863   3.875  0.00  0.00    +0.001 A 
ATOM      9  C   LIG    1       22.952 -19.572   4.395  0.00  0.00    +0.001 A 
ATOM     10  C   LIG    1       22.549 -18.247   4.576  0.00  0.00    +0.015 A 
ATOM     11  C   LIG    1       25.388 -16.263   3.360  0.00  0.00    +0.021 A 
ENDBRANCH   2   3
BRANCH   2  12
ATOM     12  N   LIG    1       26.414 -13.549   3.074  0.00  0.00    -0.160 N 
ATOM     13  C   LIG    1       27.351 -13.587   4.080  0.00  0.00    +0.323 C 
ATOM     14  O   LIG    1       27.112 -13.566   5.281  0.00  0.00    -0.251 OA
ATOM     15  N   LIG    1       28.638 -13.655   3.626  0.00  0.00    -0.312 N 
ATOM     16  H   LIG    1       29.315 -13.550   4.372  0.00  0.00    +0.146 HD
ATOM     17  H   LIG    1       28.817 -13.062   2.823  0.00  0.00    +0.146 HD
BRANCH  12  18
ATOM     18  O   LIG    1       26.818 -14.066   1.813  0.00  0.00    -0.291 OA
ATOM     19  H   LIG    1       26.318 -14.905   1.768  0.00  0.00    +0.242 HD
ENDBRANCH  12  18
ENDBRANCH   2  12
TORSDOF 3
ENDMDL
MODEL 5
REMARK VINA RESULT:      -4.2      3.865      6.075
REMARK  Name = *****
REMARK                            x       y       z     vdW  Elec       q    Type
REMARK                         _______ _______ _______ _____ _____    ______ ____
ROOT
ATOM      1  C   LIG    1       24.689 -20.406   2.842  0.00  0.00    +0.036 C 
ATOM      2  C   LIG    1       23.835 -19.553   3.782  0.00  0.00    +0.140 C 
ENDROOT
BRANCH   2   3
ATOM      3  C   LIG    1       24.247 -18.097   3.815  0.00  0.00    +0.013 A 
ATOM      4  S   LIG    1       25.830 -17.665   3.326  0.00  0.00    -0.091 S 
ATOM      5  C   LIG    1       25.516 -15.981   3.480  0.00  0.00    +0.020 A 
ATOM      6  C   LIG    1       24.229 -15.746   3.964  0.00  0.00    -0.011 A 
ATOM      7  C   LIG    1       23.819 -14.404   4.153  0.00  0.00    +0.009 A 
ATOM      8  C   LIG    1       24.687 -13.350   3.850  0.00  0.00    +0.001 A 
ATOM      9  C   LIG    1       25.960 -13.610   3.359  0.00  0.00    +0.001 A 
ATOM     10  C   LIG    1       26.394 -14.924   3.172  0.00  0.00    +0.015 A 
ATOM     11  C   LIG    1       23.516 -16.977   4.165  0.00  0.00    +0.021 A 
ENDBRANCH   2   3
BRANCH   2  12
ATOM     12  N   LIG    1       23.840 -20.079   5.153  0.00  0.00    -0.160 N 
ATOM     13  C   LIG    1       22.843 -20.900   5.625  0.00  0.00    +0.323 C 
ATOM     14  O   LIG    1       21.793 -21.155   5.049  0.00  0.00    -0.251 OA
ATOM     15  N   LIG    1       23.117 -21.446   6.848  0.00  0.00    -0.312 N 
ATOM     16  H   LIG    1       22.322 -21.938   7.237  0.00  0.00    +0.146 HD
ATOM     17  H   LIG    1       23.553 -20.795   7.494  0.00  0.00    +0.146 HD
BRANCH  12  18
ATOM     18  O   LIG    1       25.139 -20.287   5.691  0.00  0.00    -0.291 OA
ATOM     19  H   LIG    1       24.989 -20.143   6.647  0.00  0.00    +0.242 HD
ENDBRANCH  12  18
ENDBRANCH   2  12
TORSDOF 3
ENDMDL
MODEL 6
REMARK VINA RESULT:      -4.1      3.728      6.106
REMARK  Name = *****
REMARK                            x       y       z     vdW  Elec       q    Type
REMARK                         _______ _______ _______ _____ _____    ______ ____
ROOT
ATOM      1  C   LIG    1       24.604 -20.385   2.603  0.00  0.00    +0.036 C 
ATOM      2  C   LIG    1       24.208 -19.572   3.838  0.00  0.00    +0.140 C 
ENDROOT
BRANCH   2   3
ATOM      3  C   LIG    1       24.537 -18.101   3.721  0.00  0.00    +0.013 A 
ATOM      4  S   LIG    1       23.356 -16.943   4.168  0.00  0.00    -0.091 S 
ATOM      5  C   LIG    1       24.430 -15.621   3.927  0.00  0.00    +0.020 A 
ATOM      6  C   LIG    1       25.667 -16.051   3.446  0.00  0.00    -0.011 A 
ATOM      7  C   LIG    1       26.661 -15.077   3.189  0.00  0.00    +0.009 A 
ATOM      8  C   LIG    1       26.403 -13.723   3.425  0.00  0.00    +0.001 A 
ATOM      9  C   LIG    1       25.167 -13.321   3.913  0.00  0.00    +0.001 A 
ATOM     10  C   LIG    1       24.164 -14.259   4.167  0.00  0.00    +0.015 A 
ATOM     11  C   LIG    1       25.706 -17.482   3.320  0.00  0.00    +0.021 A 
ENDBRANCH   2   3
BRANCH   2  12
ATOM     12  N   LIG    1       24.825 -20.101   5.061  0.00  0.00    -0.160 N 
ATOM     13  C   LIG    1       24.076 -20.604   6.100  0.00  0.00    +0.323 C 
ATOM     14  O   LIG    1       22.859 -20.531   6.205  0.00  0.00    -0.251 OA
ATOM     15  N   LIG    1       24.823 -21.227   7.060  0.00  0.00    -0.312 N 
ATOM     16  H   LIG    1       24.275 -21.473   7.875  0.00  0.00    +0.146 HD
ATOM     17  H   LIG    1       25.689 -20.743   7.279  0.00  0.00    +0.146 HD
BRANCH  12  18
ATOM     18  O   LIG    1       26.104 -20.688   4.860  0.00  0.00    -0.291 OA
ATOM     19  H   LIG    1       26.152 -20.742   3.885  0.00  0.00    +0.242 HD
ENDBRANCH  12  18
ENDBRANCH   2  12
TORSDOF 3
ENDMDL
MODEL 7
REMARK VINA RESULT:      -4.0      1.548      2.310
REMARK  Name = *****
REMARK                            x       y       z     vdW  Elec       q    Type
REMARK                         _______ _______ _______ _____ _____    ______ ____
ROOT
ATOM      1  C   LIG    1       25.220 -13.300   2.446  0.00  0.00    +0.036 C 
ATOM      2  C   LIG    1       26.117 -14.458   2.887  0.00  0.00    +0.140 C 
ENDROOT
BRANCH   2   3
ATOM      3  C   LIG    1       25.346 -15.678   3.340  0.00  0.00    +0.013 A 
ATOM      4  S   LIG    1       23.792 -15.475   4.031  0.00  0.00    -0.091 S 
ATOM      5  C   LIG    1       23.518 -17.169   4.138  0.00  0.00    +0.020 A 
ATOM      6  C   LIG    1       24.631 -17.893   3.709  0.00  0.00    -0.011 A 
ATOM      7  C   LIG    1       24.565 -19.306   3.742  0.00  0.00    +0.009 A 
ATOM      8  C   LIG    1       23.406 -19.950   4.186  0.00  0.00    +0.001 A 
ATOM      9  C   LIG    1       22.307 -19.208   4.599  0.00  0.00    +0.001 A 
ATOM     10  C   LIG    1       22.348 -17.812   4.586  0.00  0.00    +0.015 A 
ATOM     11  C   LIG    1       25.680 -17.017   3.265  0.00  0.00    +0.021 A 
ENDBRANCH   2   3
BRANCH   2  12
ATOM     12  N   LIG    1       27.043 -14.057   3.954  0.00  0.00    -0.160 N 
ATOM     13  C   LIG    1       26.623 -13.360   5.063  0.00  0.00    +0.323 C 
ATOM     14  O   LIG    1       25.514 -12.866   5.220  0.00  0.00    -0.251 OA
ATOM     15  N   LIG    1       27.579 -13.249   6.033  0.00  0.00    -0.312 N 
ATOM     16  H   LIG    1       27.300 -12.625   6.780  0.00  0.00    +0.146 HD
ATOM     17  H   LIG    1       28.508 -13.063   5.669  0.00  0.00    +0.146 HD
BRANCH  12  18
ATOM     18  O   LIG    1       28.134 -14.949   4.142  0.00  0.00    -0.291 OA
ATOM     19  H   LIG    1       27.704 -15.820   4.036  0.00  0.00    +0.242 HD
ENDBRANCH  12  18
ENDBRANCH   2  12
TORSDOF 3
ENDMDL
MODEL 8
REMARK VINA RESULT:      -3.7      1.734      2.932
REMARK  Name = *****
REMARK                            x       y       z     vdW  Elec       q    Type
REMARK                         _______ _______ _______ _____ _____    ______ ____
ROOT
ATOM      1  C   LIG    1       26.952 -14.255   2.599  0.00  0.00    +0.036 C 
ATOM      2  C   LIG    1       25.784 -14.281   3.587  0.00  0.00    +0.140 C 
ENDROOT
BRANCH   2   3
ATOM      3  C   LIG    1       25.177 -15.655   3.766  0.00  0.00    +0.013 A 
ATOM      4  S   LIG    1       23.551 -15.790   4.288  0.00  0.00    -0.091 S 
ATOM      5  C   LIG    1       23.542 -17.501   4.117  0.00  0.00    +0.020 A 
ATOM      6  C   LIG    1       24.792 -17.980   3.723  0.00  0.00    -0.011 A 
ATOM      7  C   LIG    1       24.948 -19.375   3.545  0.00  0.00    +0.009 A 
ATOM      8  C   LIG    1       23.869 -20.241   3.751  0.00  0.00    +0.001 A 
ATOM      9  C   LIG    1       22.632 -19.738   4.132  0.00  0.00    +0.001 A 
ATOM     10  C   LIG    1       22.451 -18.367   4.325  0.00  0.00    +0.015 A 
ATOM     11  C   LIG    1       25.725 -16.903   3.539  0.00  0.00    +0.021 A 
ENDBRANCH   2   3
BRANCH   2  12
ATOM     12  N   LIG    1       24.723 -13.340   3.206  0.00  0.00    -0.160 N 
ATOM     13  C   LIG    1       24.295 -12.340   4.048  0.00  0.00    +0.323 C 
ATOM     14  O   LIG    1       24.609 -12.212   5.225  0.00  0.00    -0.251 OA
ATOM     15  N   LIG    1       23.449 -11.448   3.451  0.00  0.00    -0.312 N 
ATOM     16  H   LIG    1       23.042 -10.800   4.115  0.00  0.00    +0.146 HD
ATOM     17  H   LIG    1       22.770 -11.883   2.833  0.00  0.00    +0.146 HD
BRANCH  12  18
ATOM     18  O   LIG    1       24.666 -13.062   1.813  0.00  0.00    -0.291 OA
ATOM     19  H   LIG    1       25.434 -13.564   1.475  0.00  0.00    +0.242 HD
ENDBRANCH  12  18
ENDBRANCH   2  12
TORSDOF 3
ENDMDL
MODEL 9
REMARK VINA RESULT:      -3.5      1.787      2.215
REMARK  Name = *****
REMARK                            x       y       z     vdW  Elec       q    Type
REMARK                         _______ _______ _______ _____ _____    ______ ____
ROOT
ATOM      1  C   LIG    1       25.720 -13.697   2.343  0.00  0.00    +0.036 C 
ATOM      2  C   LIG    1       26.824 -14.467   3.069  0.00  0.00    +0.140 C 
ENDROOT
BRANCH   2   3
ATOM      3  C   LIG    1       26.474 -15.914   3.337  0.00  0.00    +0.013 A 
ATOM      4  S   LIG    1       27.644 -16.939   4.053  0.00  0.00    -0.091 S 
ATOM      5  C   LIG    1       26.549 -18.260   4.169  0.00  0.00    +0.020 A 
ATOM      6  C   LIG    1       25.312 -17.946   3.607  0.00  0.00    -0.011 A 
ATOM      7  C   LIG    1       24.301 -18.937   3.618  0.00  0.00    +0.009 A 
ATOM      8  C   LIG    1       24.544 -20.190   4.190  0.00  0.00    +0.001 A 
ATOM      9  C   LIG    1       25.781 -20.474   4.753  0.00  0.00    +0.001 A 
ATOM     10  C   LIG    1       26.800 -19.520   4.747  0.00  0.00    +0.015 A 
ATOM     11  C   LIG    1       25.291 -16.595   3.120  0.00  0.00    +0.021 A 
ENDBRANCH   2   3
BRANCH   2  12
ATOM     12  N   LIG    1       27.194 -13.826   4.338  0.00  0.00    -0.160 N 
ATOM     13  C   LIG    1       28.322 -13.049   4.463  0.00  0.00    +0.323 C 
ATOM     14  O   LIG    1       29.205 -12.928   3.624  0.00  0.00    -0.251 OA
ATOM     15  N   LIG    1       28.395 -12.380   5.653  0.00  0.00    -0.312 N 
ATOM     16  H   LIG    1       29.288 -11.920   5.782  0.00  0.00    +0.146 HD
ATOM     17  H   LIG    1       28.101 -12.936   6.450  0.00  0.00    +0.146 HD
BRANCH  12  18
ATOM     18  O   LIG    1       26.086 -13.471   5.154  0.00  0.00    -0.291 OA
ATOM     19  H   LIG    1       25.892 -12.562   4.849  0.00  0.00    +0.242 HD
ENDBRANCH  12  18
ENDBRANCH   2  12
TORSDOF 3
ENDMDL
