MODEL 1
REMARK VINA RESULT:      -6.7      0.000      0.000
REMARK  Name = *****
REMARK                            x       y       z     vdW  Elec       q    Type
REMARK                         _______ _______ _______ _____ _____    ______ ____
ROOT
ATOM      1  C   LIG    1       23.715 -31.693   9.612  0.00  0.00    -0.000 C 
ATOM      2  C   LIG    1       23.961 -31.343  10.888  0.00  0.00    -0.066 C 
ATOM      3  C   LIG    1       22.848 -30.898  11.855  0.00  0.00    +0.021 C 
ATOM      4  C   LIG    1       21.622 -30.312  11.155  0.00  0.00    +0.009 C 
ATOM      5  C   LIG    1       20.880 -29.573  12.248  0.00  0.00    +0.005 C 
ATOM      6  C   LIG    1       21.957 -28.904  13.129  0.00  0.00    -0.002 C 
ATOM      7  C   LIG    1       23.276 -29.751  12.851  0.00  0.00    -0.022 C 
ATOM      8  C   LIG    1       23.725 -30.371  14.198  0.00  0.00    +0.012 C 
ATOM      9  C   LIG    1       24.441 -28.970  12.193  0.00  0.00    +0.008 C 
ATOM     10  C   LIG    1       25.672 -29.836  11.901  0.00  0.00    +0.005 C 
ATOM     11  C   LIG    1       25.341 -31.264  11.489  0.00  0.00    +0.031 C 
ENDROOT
BRANCH   1  19
ATOM     12  C   LIG    1       25.084 -28.867   8.483  0.00  0.00    +0.015 C 
ATOM     13  C   LIG    1       24.856 -29.766   7.512  0.00  0.00    -0.023 C 
ATOM     14  C   LIG    1       24.262 -29.461   6.148  0.00  0.00    +0.147 C 
ATOM     15  C   LIG    1       25.150 -29.989   5.013  0.00  0.00    +0.067 C 
ATOM     16  C   LIG    1       25.569 -31.447   5.215  0.00  0.00    +0.122 C 
ATOM     17  C   LIG    1       26.154 -31.685   6.611  0.00  0.00    +0.067 C 
ATOM     18  C   LIG    1       25.207 -31.177   7.682  0.00  0.00    -0.040 C 
ATOM     19  C   LIG    1       24.703 -32.011   8.603  0.00  0.00    +0.004 C 
BRANCH  14  20
ATOM     20  O   LIG    1       24.071 -28.060   5.963  0.00  0.00    -0.387 OA
ATOM     21  H   LIG    1       24.414 -27.839   5.081  0.00  0.00    +0.210 HD
ENDBRANCH  14  20
BRANCH  16  22
ATOM     22  O   LIG    1       24.463 -32.320   4.975  0.00  0.00    -0.391 OA
ATOM     23  H   LIG    1       23.840 -31.875   4.374  0.00  0.00    +0.210 HD
ENDBRANCH  16  22
ENDBRANCH   1  19
BRANCH   6  24
ATOM     24  C   LIG    1       22.025 -27.341  13.001  0.00  0.00    -0.010 C 
ATOM     25  C   LIG    1       22.733 -26.693  14.210  0.00  0.00    +0.008 C 
BRANCH  24  26
ATOM     26  C   LIG    1       20.610 -26.700  12.870  0.00  0.00    +0.003 C 
BRANCH  26  27
ATOM     27  C   LIG    1       19.782 -26.702  14.168  0.00  0.00    +0.000 C 
BRANCH  27  28
ATOM     28  C   LIG    1       18.355 -26.154  13.981  0.00  0.00    +0.003 C 
BRANCH  28  29
ATOM     29  C   LIG    1       17.218 -26.958  14.647  0.00  0.00    -0.017 C 
ATOM     30  C   LIG    1       17.486 -28.462  14.514  0.00  0.00    +0.007 C 
ATOM     31  C   LIG    1       15.839 -26.639  14.066  0.00  0.00    +0.007 C 
ENDBRANCH  28  29
ENDBRANCH  27  28
ENDBRANCH  26  27
ENDBRANCH  24  26
ENDBRANCH   6  24
TORSDOF 8
ENDMDL
MODEL 2
REMARK VINA RESULT:      -6.6     10.861     13.127
REMARK  Name = *****
REMARK                            x       y       z     vdW  Elec       q    Type
REMARK                         _______ _______ _______ _____ _____    ______ ____
ROOT
ATOM      1  C   LIG    1       27.283 -21.282   6.566  0.00  0.00    -0.000 C 
ATOM      2  C   LIG    1       25.995 -21.550   6.286  0.00  0.00    -0.066 C 
ATOM      3  C   LIG    1       25.307 -21.064   4.997  0.00  0.00    +0.021 C 
ATOM      4  C   LIG    1       25.945 -19.813   4.393  0.00  0.00    +0.009 C 
ATOM      5  C   LIG    1       24.900 -19.280   3.436  0.00  0.00    +0.005 C 
ATOM      6  C   LIG    1       23.535 -19.485   4.125  0.00  0.00    -0.002 C 
ATOM      7  C   LIG    1       23.798 -20.641   5.188  0.00  0.00    -0.022 C 
ATOM      8  C   LIG    1       22.874 -21.830   4.824  0.00  0.00    +0.012 C 
ATOM      9  C   LIG    1       23.609 -20.236   6.671  0.00  0.00    +0.008 C 
ATOM     10  C   LIG    1       23.920 -21.365   7.660  0.00  0.00    +0.005 C 
ATOM     11  C   LIG    1       25.063 -22.274   7.224  0.00  0.00    +0.031 C 
ENDROOT
BRANCH   1  19
ATOM     12  C   LIG    1       29.048 -18.622   7.540  0.00  0.00    +0.015 C 
ATOM     13  C   LIG    1       29.700 -19.782   7.721  0.00  0.00    -0.023 C 
ATOM     14  C   LIG    1       31.161 -20.034   7.394  0.00  0.00    +0.147 C 
ATOM     15  C   LIG    1       31.921 -20.603   8.600  0.00  0.00    +0.067 C 
ATOM     16  C   LIG    1       31.201 -21.784   9.255  0.00  0.00    +0.122 C 
ATOM     17  C   LIG    1       29.733 -21.463   9.552  0.00  0.00    +0.067 C 
ATOM     18  C   LIG    1       29.034 -20.946   8.309  0.00  0.00    -0.040 C 
ATOM     19  C   LIG    1       27.979 -21.595   7.796  0.00  0.00    +0.004 C 
BRANCH  14  20
ATOM     20  O   LIG    1       31.813 -18.841   6.965  0.00  0.00    -0.387 OA
ATOM     21  H   LIG    1       31.308 -18.496   6.209  0.00  0.00    +0.210 HD
ENDBRANCH  14  20
BRANCH  16  22
ATOM     22  O   LIG    1       31.307 -22.949   8.433  0.00  0.00    -0.391 OA
ATOM     23  H   LIG    1       30.817 -22.792   7.606  0.00  0.00    +0.210 HD
ENDBRANCH  16  22
ENDBRANCH   1  19
BRANCH   6  24
ATOM     24  C   LIG    1       22.843 -18.162   4.609  0.00  0.00    -0.010 C 
ATOM     25  C   LIG    1       21.388 -18.053   4.107  0.00  0.00    +0.008 C 
BRANCH  24  26
ATOM     26  C   LIG    1       23.612 -16.891   4.135  0.00  0.00    +0.003 C 
BRANCH  26  27
ATOM     27  C   LIG    1       23.015 -15.559   4.622  0.00  0.00    +0.000 C 
BRANCH  27  28
ATOM     28  C   LIG    1       23.773 -14.324   4.101  0.00  0.00    +0.003 C 
BRANCH  28  29
ATOM     29  C   LIG    1       25.297 -14.481   3.913  0.00  0.00    -0.017 C 
ATOM     30  C   LIG    1       26.046 -13.687   4.990  0.00  0.00    +0.007 C 
ATOM     31  C   LIG    1       25.779 -14.034   2.531  0.00  0.00    +0.007 C 
ENDBRANCH  28  29
ENDBRANCH  27  28
ENDBRANCH  26  27
ENDBRANCH  24  26
ENDBRANCH   6  24
TORSDOF 8
ENDMDL
MODEL 3
REMARK VINA RESULT:      -6.3      8.412     10.963
REMARK  Name = *****
REMARK                            x       y       z     vdW  Elec       q    Type
REMARK                         _______ _______ _______ _____ _____    ______ ____
ROOT
ATOM      1  C   LIG    1       25.148 -24.929   6.504  0.00  0.00    -0.000 C 
ATOM      2  C   LIG    1       25.019 -23.664   6.944  0.00  0.00    -0.066 C 
ATOM      3  C   LIG    1       24.292 -22.574   6.136  0.00  0.00    +0.021 C 
ATOM      4  C   LIG    1       24.275 -22.833   4.629  0.00  0.00    +0.009 C 
ATOM      5  C   LIG    1       23.920 -21.493   4.019  0.00  0.00    +0.005 C 
ATOM      6  C   LIG    1       24.661 -20.426   4.852  0.00  0.00    -0.002 C 
ATOM      7  C   LIG    1       24.945 -21.141   6.246  0.00  0.00    -0.022 C 
ATOM      8  C   LIG    1       24.223 -20.324   7.347  0.00  0.00    +0.012 C 
ATOM      9  C   LIG    1       26.440 -21.334   6.602  0.00  0.00    +0.008 C 
ATOM     10  C   LIG    1       26.666 -22.069   7.928  0.00  0.00    +0.005 C 
ATOM     11  C   LIG    1       25.634 -23.151   8.221  0.00  0.00    +0.031 C 
ENDROOT
BRANCH   1  19
ATOM     12  C   LIG    1       25.078 -27.644   4.565  0.00  0.00    +0.015 C 
ATOM     13  C   LIG    1       24.965 -27.928   5.873  0.00  0.00    -0.023 C 
ATOM     14  C   LIG    1       23.991 -28.921   6.480  0.00  0.00    +0.147 C 
ATOM     15  C   LIG    1       24.708 -29.946   7.371  0.00  0.00    +0.067 C 
ATOM     16  C   LIG    1       25.665 -29.296   8.374  0.00  0.00    +0.122 C 
ATOM     17  C   LIG    1       26.614 -28.303   7.696  0.00  0.00    +0.067 C 
ATOM     18  C   LIG    1       25.836 -27.297   6.867  0.00  0.00    -0.040 C 
ATOM     19  C   LIG    1       25.908 -25.986   7.136  0.00  0.00    +0.004 C 
BRANCH  14  20
ATOM     20  O   LIG    1       23.265 -29.622   5.473  0.00  0.00    -0.387 OA
ATOM     21  H   LIG    1       22.400 -29.187   5.389  0.00  0.00    +0.210 HD
ENDBRANCH  14  20
BRANCH  16  22
ATOM     22  O   LIG    1       24.929 -28.657   9.420  0.00  0.00    -0.391 OA
ATOM     23  H   LIG    1       25.031 -27.693   9.329  0.00  0.00    +0.210 HD
ENDBRANCH  16  22
ENDBRANCH   1  19
BRANCH   6  24
ATOM     24  C   LIG    1       25.854 -19.729   4.107  0.00  0.00    -0.010 C 
ATOM     25  C   LIG    1       27.013 -19.388   5.067  0.00  0.00    +0.008 C 
BRANCH  24  26
ATOM     26  C   LIG    1       25.413 -18.414   3.397  0.00  0.00    +0.003 C 
BRANCH  26  27
ATOM     27  C   LIG    1       26.450 -17.278   3.448  0.00  0.00    +0.000 C 
BRANCH  27  28
ATOM     28  C   LIG    1       25.816 -15.874   3.472  0.00  0.00    +0.003 C 
BRANCH  28  29
ATOM     29  C   LIG    1       26.793 -14.678   3.463  0.00  0.00    -0.017 C 
ATOM     30  C   LIG    1       26.689 -13.901   4.780  0.00  0.00    +0.007 C 
ATOM     31  C   LIG    1       26.556 -13.721   2.293  0.00  0.00    +0.007 C 
ENDBRANCH  28  29
ENDBRANCH  27  28
ENDBRANCH  26  27
ENDBRANCH  24  26
ENDBRANCH   6  24
TORSDOF 8
ENDMDL
MODEL 4
REMARK VINA RESULT:      -6.2      7.867     11.148
REMARK  Name = *****
REMARK                            x       y       z     vdW  Elec       q    Type
REMARK                         _______ _______ _______ _____ _____    ______ ____
ROOT
ATOM      1  C   LIG    1       27.169 -20.842   7.836  0.00  0.00    -0.000 C 
ATOM      2  C   LIG    1       25.959 -21.171   7.348  0.00  0.00    -0.066 C 
ATOM      3  C   LIG    1       25.300 -22.536   7.616  0.00  0.00    +0.021 C 
ATOM      4  C   LIG    1       26.298 -23.653   7.922  0.00  0.00    +0.009 C 
ATOM      5  C   LIG    1       25.509 -24.930   7.727  0.00  0.00    +0.005 C 
ATOM      6  C   LIG    1       24.600 -24.696   6.502  0.00  0.00    -0.002 C 
ATOM      7  C   LIG    1       24.481 -23.112   6.396  0.00  0.00    -0.022 C 
ATOM      8  C   LIG    1       22.985 -22.744   6.553  0.00  0.00    +0.012 C 
ATOM      9  C   LIG    1       25.065 -22.487   5.104  0.00  0.00    +0.008 C 
ATOM     10  C   LIG    1       24.972 -20.957   5.066  0.00  0.00    +0.005 C 
ATOM     11  C   LIG    1       25.157 -20.291   6.423  0.00  0.00    +0.031 C 
ENDROOT
BRANCH   1  19
ATOM     12  C   LIG    1       30.356 -21.635   7.246  0.00  0.00    +0.015 C 
ATOM     13  C   LIG    1       30.218 -20.511   7.969  0.00  0.00    -0.023 C 
ATOM     14  C   LIG    1       31.035 -20.145   9.195  0.00  0.00    +0.147 C 
ATOM     15  C   LIG    1       31.671 -18.755   9.057  0.00  0.00    +0.067 C 
ATOM     16  C   LIG    1       30.670 -17.684   8.613  0.00  0.00    +0.122 C 
ATOM     17  C   LIG    1       29.879 -18.121   7.377  0.00  0.00    +0.067 C 
ATOM     18  C   LIG    1       29.245 -19.482   7.598  0.00  0.00    -0.040 C 
ATOM     19  C   LIG    1       27.915 -19.635   7.544  0.00  0.00    +0.004 C 
BRANCH  14  20
ATOM     20  O   LIG    1       32.068 -21.097   9.438  0.00  0.00    -0.387 OA
ATOM     21  H   LIG    1       32.811 -20.615   9.839  0.00  0.00    +0.210 HD
ENDBRANCH  14  20
BRANCH  16  22
ATOM     22  O   LIG    1       29.788 -17.353   9.688  0.00  0.00    -0.391 OA
ATOM     23  H   LIG    1       29.443 -18.178  10.072  0.00  0.00    +0.210 HD
ENDBRANCH  16  22
ENDBRANCH   1  19
BRANCH   6  24
ATOM     24  C   LIG    1       25.008 -25.508   5.222  0.00  0.00    -0.010 C 
ATOM     25  C   LIG    1       23.858 -26.404   4.716  0.00  0.00    +0.008 C 
BRANCH  24  26
ATOM     26  C   LIG    1       26.251 -26.414   5.474  0.00  0.00    +0.003 C 
BRANCH  26  27
ATOM     27  C   LIG    1       25.936 -27.914   5.607  0.00  0.00    +0.000 C 
BRANCH  27  28
ATOM     28  C   LIG    1       25.508 -28.325   7.028  0.00  0.00    +0.003 C 
BRANCH  28  29
ATOM     29  C   LIG    1       24.307 -29.289   7.134  0.00  0.00    -0.017 C 
ATOM     30  C   LIG    1       24.287 -29.959   8.513  0.00  0.00    +0.007 C 
ATOM     31  C   LIG    1       24.309 -30.368   6.049  0.00  0.00    +0.007 C 
ENDBRANCH  28  29
ENDBRANCH  27  28
ENDBRANCH  26  27
ENDBRANCH  24  26
ENDBRANCH   6  24
TORSDOF 8
ENDMDL
MODEL 5
REMARK VINA RESULT:      -6.2      3.503      7.727
REMARK  Name = *****
REMARK                            x       y       z     vdW  Elec       q    Type
REMARK                         _______ _______ _______ _____ _____    ______ ____
ROOT
ATOM      1  C   LIG    1       24.440 -31.404  11.493  0.00  0.00    -0.000 C 
ATOM      2  C   LIG    1       24.794 -31.692  10.227  0.00  0.00    -0.066 C 
ATOM      3  C   LIG    1       25.717 -30.783   9.396  0.00  0.00    +0.021 C 
ATOM      4  C   LIG    1       25.702 -29.319   9.840  0.00  0.00    +0.009 C 
ATOM      5  C   LIG    1       26.304 -28.564   8.675  0.00  0.00    +0.005 C 
ATOM      6  C   LIG    1       25.763 -29.237   7.395  0.00  0.00    -0.002 C 
ATOM      7  C   LIG    1       25.338 -30.697   7.867  0.00  0.00    -0.022 C 
ATOM      8  C   LIG    1       26.186 -31.714   7.062  0.00  0.00    +0.012 C 
ATOM      9  C   LIG    1       23.829 -31.023   7.740  0.00  0.00    +0.008 C 
ATOM     10  C   LIG    1       23.458 -32.420   8.250  0.00  0.00    +0.005 C 
ATOM     11  C   LIG    1       24.270 -32.876   9.455  0.00  0.00    +0.031 C 
ENDROOT
BRANCH   1  19
ATOM     12  C   LIG    1       21.340 -30.506  10.643  0.00  0.00    +0.015 C 
ATOM     13  C   LIG    1       21.500 -30.660  11.967  0.00  0.00    -0.023 C 
ATOM     14  C   LIG    1       20.966 -29.723  13.036  0.00  0.00    +0.147 C 
ATOM     15  C   LIG    1       20.135 -30.475  14.085  0.00  0.00    +0.067 C 
ATOM     16  C   LIG    1       20.845 -31.720  14.625  0.00  0.00    +0.122 C 
ATOM     17  C   LIG    1       21.362 -32.616  13.495  0.00  0.00    +0.067 C 
ATOM     18  C   LIG    1       22.206 -31.818  12.520  0.00  0.00    -0.040 C 
ATOM     19  C   LIG    1       23.491 -32.134  12.307  0.00  0.00    +0.004 C 
BRANCH  14  20
ATOM     20  O   LIG    1       20.159 -28.692  12.470  0.00  0.00    -0.387 OA
ATOM     21  H   LIG    1       19.250 -28.837  12.782  0.00  0.00    +0.210 HD
ENDBRANCH  14  20
BRANCH  16  22
ATOM     22  O   LIG    1       21.911 -31.344  15.500  0.00  0.00    -0.391 OA
ATOM     23  H   LIG    1       22.591 -30.880  14.980  0.00  0.00    +0.210 HD
ENDBRANCH  16  22
ENDBRANCH   1  19
BRANCH   6  24
ATOM     24  C   LIG    1       24.727 -28.374   6.593  0.00  0.00    -0.010 C 
ATOM     25  C   LIG    1       24.653 -28.792   5.109  0.00  0.00    +0.008 C 
BRANCH  24  26
ATOM     26  C   LIG    1       25.063 -26.852   6.649  0.00  0.00    +0.003 C 
BRANCH  26  27
ATOM     27  C   LIG    1       25.137 -26.160   5.276  0.00  0.00    +0.000 C 
BRANCH  27  28
ATOM     28  C   LIG    1       25.062 -24.624   5.363  0.00  0.00    +0.003 C 
BRANCH  28  29
ATOM     29  C   LIG    1       24.704 -24.030   6.742  0.00  0.00    -0.017 C 
ATOM     30  C   LIG    1       23.234 -23.596   6.764  0.00  0.00    +0.007 C 
ATOM     31  C   LIG    1       25.586 -22.842   7.130  0.00  0.00    +0.007 C 
ENDBRANCH  28  29
ENDBRANCH  27  28
ENDBRANCH  26  27
ENDBRANCH  24  26
ENDBRANCH   6  24
TORSDOF 8
ENDMDL
MODEL 6
REMARK VINA RESULT:      -6.1      2.786      4.557
REMARK  Name = *****
REMARK                            x       y       z     vdW  Elec       q    Type
REMARK                         _______ _______ _______ _____ _____    ______ ____
ROOT
ATOM      1  C   LIG    1       23.559 -30.295   9.372  0.00  0.00    -0.000 C 
ATOM      2  C   LIG    1       24.087 -30.747  10.524  0.00  0.00    -0.066 C 
ATOM      3  C   LIG    1       23.590 -30.279  11.904  0.00  0.00    +0.021 C 
ATOM      4  C   LIG    1       22.936 -28.897  11.887  0.00  0.00    +0.009 C 
ATOM      5  C   LIG    1       22.922 -28.468  13.339  0.00  0.00    +0.005 C 
ATOM      6  C   LIG    1       24.257 -28.946  13.947  0.00  0.00    -0.002 C 
ATOM      7  C   LIG    1       24.729 -30.124  12.985  0.00  0.00    -0.022 C 
ATOM      8  C   LIG    1       24.818 -31.415  13.836  0.00  0.00    +0.012 C 
ATOM      9  C   LIG    1       26.059 -29.874  12.231  0.00  0.00    +0.008 C 
ATOM     10  C   LIG    1       26.450 -31.012  11.281  0.00  0.00    +0.005 C 
ATOM     11  C   LIG    1       25.265 -31.684  10.599  0.00  0.00    +0.031 C 
ENDROOT
BRANCH   1  19
ATOM     12  C   LIG    1       26.347 -28.555   8.791  0.00  0.00    +0.015 C 
ATOM     13  C   LIG    1       25.525 -28.602   7.730  0.00  0.00    -0.023 C 
ATOM     14  C   LIG    1       25.176 -27.429   6.831  0.00  0.00    +0.147 C 
ATOM     15  C   LIG    1       25.432 -27.753   5.353  0.00  0.00    +0.067 C 
ATOM     16  C   LIG    1       24.822 -29.091   4.923  0.00  0.00    +0.122 C 
ATOM     17  C   LIG    1       25.210 -30.226   5.875  0.00  0.00    +0.067 C 
ATOM     18  C   LIG    1       24.893 -29.854   7.311  0.00  0.00    -0.040 C 
ATOM     19  C   LIG    1       24.035 -30.586   8.035  0.00  0.00    +0.004 C 
BRANCH  14  20
ATOM     20  O   LIG    1       25.923 -26.265   7.178  0.00  0.00    -0.387 OA
ATOM     21  H   LIG    1       25.547 -25.920   8.005  0.00  0.00    +0.210 HD
ENDBRANCH  14  20
BRANCH  16  22
ATOM     22  O   LIG    1       23.401 -28.979   4.822  0.00  0.00    -0.391 OA
ATOM     23  H   LIG    1       23.012 -29.160   5.696  0.00  0.00    +0.210 HD
ENDBRANCH  16  22
ENDBRANCH   1  19
BRANCH   6  24
ATOM     24  C   LIG    1       25.271 -27.796  14.281  0.00  0.00    -0.010 C 
ATOM     25  C   LIG    1       26.153 -28.139  15.500  0.00  0.00    +0.008 C 
BRANCH  24  26
ATOM     26  C   LIG    1       24.550 -26.445  14.573  0.00  0.00    +0.003 C 
BRANCH  26  27
ATOM     27  C   LIG    1       25.100 -25.240  13.790  0.00  0.00    +0.000 C 
BRANCH  27  28
ATOM     28  C   LIG    1       26.607 -25.344  13.492  0.00  0.00    +0.003 C 
BRANCH  28  29
ATOM     29  C   LIG    1       27.545 -24.504  14.386  0.00  0.00    -0.017 C 
ATOM     30  C   LIG    1       28.540 -25.417  15.111  0.00  0.00    +0.007 C 
ATOM     31  C   LIG    1       26.792 -23.660  15.416  0.00  0.00    +0.007 C 
ENDBRANCH  28  29
ENDBRANCH  27  28
ENDBRANCH  26  27
ENDBRANCH  24  26
ENDBRANCH   6  24
TORSDOF 8
ENDMDL
MODEL 7
REMARK VINA RESULT:      -6.1     10.787     12.997
REMARK  Name = *****
REMARK                            x       y       z     vdW  Elec       q    Type
REMARK                         _______ _______ _______ _____ _____    ______ ____
ROOT
ATOM      1  C   LIG    1       27.134 -20.265   6.904  0.00  0.00    -0.000 C 
ATOM      2  C   LIG    1       25.992 -20.976   6.931  0.00  0.00    -0.066 C 
ATOM      3  C   LIG    1       25.163 -21.262   5.666  0.00  0.00    +0.021 C 
ATOM      4  C   LIG    1       25.362 -20.232   4.553  0.00  0.00    +0.009 C 
ATOM      5  C   LIG    1       24.186 -20.446   3.625  0.00  0.00    +0.005 C 
ATOM      6  C   LIG    1       22.968 -20.736   4.526  0.00  0.00    -0.002 C 
ATOM      7  C   LIG    1       23.602 -21.244   5.895  0.00  0.00    -0.022 C 
ATOM      8  C   LIG    1       23.095 -22.688   6.138  0.00  0.00    +0.012 C 
ATOM      9  C   LIG    1       23.321 -20.352   7.130  0.00  0.00    +0.008 C 
ATOM     10  C   LIG    1       23.990 -20.853   8.415  0.00  0.00    +0.005 C 
ATOM     11  C   LIG    1       25.353 -21.495   8.194  0.00  0.00    +0.031 C 
ENDROOT
BRANCH   1  19
ATOM     12  C   LIG    1       29.380 -17.993   5.940  0.00  0.00    +0.015 C 
ATOM     13  C   LIG    1       29.867 -18.869   6.834  0.00  0.00    -0.023 C 
ATOM     14  C   LIG    1       31.225 -19.544   6.758  0.00  0.00    +0.147 C 
ATOM     15  C   LIG    1       32.029 -19.347   8.052  0.00  0.00    +0.067 C 
ATOM     16  C   LIG    1       31.221 -19.676   9.310  0.00  0.00    +0.122 C 
ATOM     17  C   LIG    1       29.863 -18.968   9.318  0.00  0.00    +0.067 C 
ATOM     18  C   LIG    1       29.108 -19.239   8.030  0.00  0.00    -0.040 C 
ATOM     19  C   LIG    1       27.915 -19.849   8.051  0.00  0.00    +0.004 C 
BRANCH  14  20
ATOM     20  O   LIG    1       31.994 -19.049   5.664  0.00  0.00    -0.387 OA
ATOM     21  H   LIG    1       32.452 -19.811   5.270  0.00  0.00    +0.210 HD
ENDBRANCH  14  20
BRANCH  16  22
ATOM     22  O   LIG    1       31.054 -21.091   9.437  0.00  0.00    -0.391 OA
ATOM     23  H   LIG    1       30.471 -21.400   8.721  0.00  0.00    +0.210 HD
ENDBRANCH  16  22
ENDBRANCH   1  19
BRANCH   6  24
ATOM     24  C   LIG    1       21.902 -19.584   4.573  0.00  0.00    -0.010 C 
ATOM     25  C   LIG    1       20.593 -19.980   3.856  0.00  0.00    +0.008 C 
BRANCH  24  26
ATOM     26  C   LIG    1       22.430 -18.270   3.921  0.00  0.00    +0.003 C 
BRANCH  26  27
ATOM     27  C   LIG    1       22.543 -17.076   4.885  0.00  0.00    +0.000 C 
BRANCH  27  28
ATOM     28  C   LIG    1       22.723 -15.726   4.165  0.00  0.00    +0.003 C 
BRANCH  28  29
ATOM     29  C   LIG    1       24.093 -15.034   4.334  0.00  0.00    -0.017 C 
ATOM     30  C   LIG    1       24.009 -13.575   3.869  0.00  0.00    +0.007 C 
ATOM     31  C   LIG    1       25.218 -15.740   3.575  0.00  0.00    +0.007 C 
ENDBRANCH  28  29
ENDBRANCH  27  28
ENDBRANCH  26  27
ENDBRANCH  24  26
ENDBRANCH   6  24
TORSDOF 8
ENDMDL
MODEL 8
REMARK VINA RESULT:      -6.0      7.254     10.286
REMARK  Name = *****
REMARK                            x       y       z     vdW  Elec       q    Type
REMARK                         _______ _______ _______ _____ _____    ______ ____
ROOT
ATOM      1  C   LIG    1       25.013 -24.613   6.461  0.00  0.00    -0.000 C 
ATOM      2  C   LIG    1       24.596 -23.412   6.902  0.00  0.00    -0.066 C 
ATOM      3  C   LIG    1       24.001 -22.345   5.964  0.00  0.00    +0.021 C 
ATOM      4  C   LIG    1       24.461 -22.477   4.512  0.00  0.00    +0.009 C 
ATOM      5  C   LIG    1       24.127 -21.139   3.887  0.00  0.00    +0.005 C 
ATOM      6  C   LIG    1       24.444 -20.070   4.954  0.00  0.00    -0.002 C 
ATOM      7  C   LIG    1       24.399 -20.864   6.334  0.00  0.00    -0.022 C 
ATOM      8  C   LIG    1       23.286 -20.227   7.203  0.00  0.00    +0.012 C 
ATOM      9  C   LIG    1       25.737 -20.918   7.113  0.00  0.00    +0.008 C 
ATOM     10  C   LIG    1       25.659 -21.732   8.410  0.00  0.00    +0.005 C 
ATOM     11  C   LIG    1       24.738 -22.943   8.327  0.00  0.00    +0.031 C 
ENDROOT
BRANCH   1  19
ATOM     12  C   LIG    1       26.064 -27.045   4.432  0.00  0.00    +0.015 C 
ATOM     13  C   LIG    1       25.570 -27.505   5.593  0.00  0.00    -0.023 C 
ATOM     14  C   LIG    1       24.634 -28.690   5.746  0.00  0.00    +0.147 C 
ATOM     15  C   LIG    1       25.175 -29.712   6.756  0.00  0.00    +0.067 C 
ATOM     16  C   LIG    1       25.614 -29.070   8.075  0.00  0.00    +0.122 C 
ATOM     17  C   LIG    1       26.550 -27.880   7.846  0.00  0.00    +0.067 C 
ATOM     18  C   LIG    1       25.936 -26.893   6.872  0.00  0.00    -0.040 C 
ATOM     19  C   LIG    1       25.687 -25.629   7.242  0.00  0.00    +0.004 C 
BRANCH  14  20
ATOM     20  O   LIG    1       24.419 -29.350   4.501  0.00  0.00    -0.387 OA
ATOM     21  H   LIG    1       24.151 -28.670   3.860  0.00  0.00    +0.210 HD
ENDBRANCH  14  20
BRANCH  16  22
ATOM     22  O   LIG    1       24.473 -28.676   8.840  0.00  0.00    -0.391 OA
ATOM     23  H   LIG    1       24.629 -27.783   9.193  0.00  0.00    +0.210 HD
ENDBRANCH  16  22
ENDBRANCH   1  19
BRANCH   6  24
ATOM     24  C   LIG    1       25.701 -19.184   4.636  0.00  0.00    -0.010 C 
ATOM     25  C   LIG    1       25.610 -18.534   3.240  0.00  0.00    +0.008 C 
BRANCH  24  26
ATOM     26  C   LIG    1       27.026 -20.002   4.702  0.00  0.00    +0.003 C 
BRANCH  26  27
ATOM     27  C   LIG    1       28.180 -19.297   5.436  0.00  0.00    +0.000 C 
BRANCH  27  28
ATOM     28  C   LIG    1       29.126 -20.271   6.163  0.00  0.00    +0.003 C 
BRANCH  28  29
ATOM     29  C   LIG    1       29.326 -20.036   7.676  0.00  0.00    -0.017 C 
ATOM     30  C   LIG    1       30.007 -18.683   7.915  0.00  0.00    +0.007 C 
ATOM     31  C   LIG    1       30.145 -21.139   8.350  0.00  0.00    +0.007 C 
ENDBRANCH  28  29
ENDBRANCH  27  28
ENDBRANCH  26  27
ENDBRANCH  24  26
ENDBRANCH   6  24
TORSDOF 8
ENDMDL
MODEL 9
REMARK VINA RESULT:      -5.8      2.081      4.283
REMARK  Name = *****
REMARK                            x       y       z     vdW  Elec       q    Type
REMARK                         _______ _______ _______ _____ _____    ______ ____
ROOT
ATOM      1  C   LIG    1       22.237 -30.964  10.339  0.00  0.00    -0.000 C 
ATOM      2  C   LIG    1       22.370 -31.075  11.673  0.00  0.00    -0.066 C 
ATOM      3  C   LIG    1       21.711 -30.092  12.658  0.00  0.00    +0.021 C 
ATOM      4  C   LIG    1       21.435 -28.713  12.059  0.00  0.00    +0.009 C 
ATOM      5  C   LIG    1       21.206 -27.819  13.259  0.00  0.00    +0.005 C 
ATOM      6  C   LIG    1       22.215 -28.269  14.336  0.00  0.00    -0.002 C 
ATOM      7  C   LIG    1       22.586 -29.763  13.929  0.00  0.00    -0.022 C 
ATOM      8  C   LIG    1       22.167 -30.684  15.103  0.00  0.00    +0.012 C 
ATOM      9  C   LIG    1       24.069 -30.001  13.551  0.00  0.00    +0.008 C 
ATOM     10  C   LIG    1       24.370 -31.441  13.121  0.00  0.00    +0.005 C 
ATOM     11  C   LIG    1       23.237 -32.107  12.350  0.00  0.00    +0.031 C 
ENDROOT
BRANCH   1  19
ATOM     12  C   LIG    1       25.341 -29.817   9.915  0.00  0.00    +0.015 C 
ATOM     13  C   LIG    1       24.750 -30.173   8.764  0.00  0.00    -0.023 C 
ATOM     14  C   LIG    1       24.792 -29.383   7.468  0.00  0.00    +0.147 C 
ATOM     15  C   LIG    1       25.275 -30.247   6.294  0.00  0.00    +0.067 C 
ATOM     16  C   LIG    1       24.542 -31.587   6.200  0.00  0.00    +0.122 C 
ATOM     17  C   LIG    1       24.532 -32.327   7.541  0.00  0.00    +0.067 C 
ATOM     18  C   LIG    1       24.007 -31.429   8.646  0.00  0.00    -0.040 C 
ATOM     19  C   LIG    1       22.909 -31.765   9.338  0.00  0.00    +0.004 C 
BRANCH  14  20
ATOM     20  O   LIG    1       25.646 -28.246   7.578  0.00  0.00    -0.387 OA
ATOM     21  H   LIG    1       25.307 -27.705   8.311  0.00  0.00    +0.210 HD
ENDBRANCH  14  20
BRANCH  16  22
ATOM     22  O   LIG    1       23.209 -31.392   5.721  0.00  0.00    -0.391 OA
ATOM     23  H   LIG    1       22.661 -31.058   6.453  0.00  0.00    +0.210 HD
ENDBRANCH  16  22
ENDBRANCH   1  19
BRANCH   6  24
ATOM     24  C   LIG    1       23.380 -27.251  14.604  0.00  0.00    -0.010 C 
ATOM     25  C   LIG    1       22.928 -26.079  15.500  0.00  0.00    +0.008 C 
BRANCH  24  26
ATOM     26  C   LIG    1       23.953 -26.655  13.282  0.00  0.00    +0.003 C 
BRANCH  26  27
ATOM     27  C   LIG    1       25.462 -26.354  13.314  0.00  0.00    +0.000 C 
BRANCH  27  28
ATOM     28  C   LIG    1       26.313 -27.427  12.611  0.00  0.00    +0.003 C 
BRANCH  28  29
ATOM     29  C   LIG    1       27.431 -28.079  13.453  0.00  0.00    -0.017 C 
ATOM     30  C   LIG    1       27.868 -29.404  12.816  0.00  0.00    +0.007 C 
ATOM     31  C   LIG    1       27.018 -28.330  14.905  0.00  0.00    +0.007 C 
ENDBRANCH  28  29
ENDBRANCH  27  28
ENDBRANCH  26  27
ENDBRANCH  24  26
ENDBRANCH   6  24
TORSDOF 8
ENDMDL
