MODEL 1
REMARK VINA RESULT:      -5.4      0.000      0.000
REMARK  Name = *****
REMARK                            x       y       z     vdW  Elec       q    Type
REMARK                         _______ _______ _______ _____ _____    ______ ____
ROOT
ATOM      1  C   LIG    1       23.689 -17.731   3.975  0.00  0.00    +0.039 A 
ATOM      2  C   LIG    1       24.411 -18.930   4.203  0.00  0.00    +0.057 A 
ATOM      3  C   LIG    1       23.781 -20.122   4.619  0.00  0.00    +0.028 A 
ATOM      4  S   LIG    1       24.750 -21.572   5.048  0.00  0.00    -0.088 S 
ATOM      5  C   LIG    1       26.256 -20.796   5.588  0.00  0.00    +0.024 A 
ATOM      6  C   LIG    1       26.724 -19.629   4.981  0.00  0.00    +0.036 A 
ATOM      7  C   LIG    1       27.956 -19.072   5.346  0.00  0.00    +0.013 A 
ATOM      8  C   LIG    1       28.700 -19.658   6.369  0.00  0.00    +0.001 A 
ATOM      9  C   LIG    1       28.220 -20.800   7.010  0.00  0.00    +0.001 A 
ATOM     10  C   LIG    1       27.011 -21.377   6.611  0.00  0.00    +0.016 A 
ATOM     11  C   LIG    1       22.378 -20.158   4.732  0.00  0.00    -0.036 A 
ATOM     12  C   LIG    1       21.618 -21.411   5.083  0.00  0.00    +0.045 C 
ATOM     13  C   LIG    1       21.661 -18.967   4.549  0.00  0.00    +0.006 A 
ATOM     14  C   LIG    1       25.886 -18.925   3.995  0.00  0.00    +0.197 A 
ATOM     15  O   LIG    1       26.396 -18.286   3.090  0.00  0.00    -0.286 OA
ATOM     16  C   LIG    1       22.308 -17.771   4.212  0.00  0.00    +0.024 A 
ENDROOT
BRANCH   1  17
ATOM     17  N   LIG    1       24.367 -16.520   3.699  0.00  0.00    -0.342 N 
ATOM     18  H   LIG    1       24.540 -16.453   2.687  0.00  0.00    +0.146 HD
BRANCH  17  19
ATOM     19  C   LIG    1       23.834 -15.261   4.246  0.00  0.00    +0.117 C 
BRANCH  19  20
ATOM     20  C   LIG    1       24.860 -14.093   4.111  0.00  0.00    +0.103 C 
BRANCH  20  21
ATOM     21  N   LIG    1       25.396 -13.826   2.747  0.00  0.00    -0.301 NA
BRANCH  21  23
ATOM     22  C   LIG    1       23.883 -11.762   3.063  0.00  0.00    +0.020 C 
ATOM     23  C   LIG    1       24.920 -12.524   2.231  0.00  0.00    +0.081 C 
ENDBRANCH  21  23
BRANCH  21  24
ATOM     24  C   LIG    1       26.852 -14.000   2.658  0.00  0.00    +0.081 C 
ATOM     25  C   LIG    1       27.490 -14.723   3.843  0.00  0.00    +0.020 C 
ENDBRANCH  21  24
ENDBRANCH  20  21
ENDBRANCH  19  20
ENDBRANCH  17  19
ENDBRANCH   1  17
TORSDOF 6
ENDMDL
