MODEL 1
REMARK VINA RESULT:      -5.5      0.000      0.000
REMARK  Name = *****
REMARK                            x       y       z     vdW  Elec       q    Type
REMARK                         _______ _______ _______ _____ _____    ______ ____
ROOT
ATOM      1  C   LIG    1       22.722 -20.205   4.736  0.00  0.00    +0.084 C 
ATOM      2  C   LIG    1       22.431 -21.417   5.634  0.00  0.00    +0.027 C 
ENDROOT
BRANCH   1   3
ATOM      3  N   LIG    1       22.647 -18.923   5.509  0.00  0.00    -0.305 NA
ATOM      4  H   LIG    1       22.040 -19.077   6.319  0.00  0.00    +0.123 HD
BRANCH   3   6
ATOM      5  C   LIG    1       21.103 -18.226   3.677  0.00  0.00    +0.027 C 
ATOM      6  C   LIG    1       22.112 -17.766   4.737  0.00  0.00    +0.088 C 
BRANCH   6   7
ATOM      7  C   LIG    1       23.249 -16.968   4.033  0.00  0.00    +0.247 C 
BRANCH   7   8
ATOM      8  O   LIG    1       23.276 -15.591   4.455  0.00  0.00    -0.490 OA
BRANCH   8   9
ATOM      9  C   LIG    1       24.143 -14.739   3.830  0.00  0.00    +0.121 A 
ATOM     10  C   LIG    1       23.838 -13.445   3.412  0.00  0.00    +0.045 A 
ATOM     11  C   LIG    1       24.803 -12.658   2.781  0.00  0.00    +0.004 A 
ATOM     12  C   LIG    1       26.093 -13.150   2.585  0.00  0.00    +0.000 A 
ATOM     13  C   LIG    1       26.421 -14.425   3.039  0.00  0.00    +0.004 A 
ATOM     14  C   LIG    1       25.450 -15.213   3.665  0.00  0.00    +0.045 A 
ENDBRANCH   8   9
ENDBRANCH   7   8
ENDBRANCH   6   7
ENDBRANCH   3   6
ENDBRANCH   1   3
BRANCH   1  15
ATOM     15  C   LIG    1       24.110 -20.334   4.007  0.00  0.00    +0.161 C 
BRANCH  15  16
ATOM     16  C   LIG    1       25.365 -20.283   4.871  0.00  0.00    -0.018 A 
ATOM     17  C   LIG    1       26.500 -19.521   4.536  0.00  0.00    +0.010 A 
ATOM     18  C   LIG    1       27.686 -19.627   5.259  0.00  0.00    +0.046 A 
ATOM     19  C   LIG    1       27.732 -20.430   6.386  0.00  0.00    +0.117 A 
ATOM     20  C   LIG    1       26.605 -21.137   6.796  0.00  0.00    +0.046 A 
ATOM     21  C   LIG    1       25.431 -21.064   6.031  0.00  0.00    +0.010 A 
BRANCH  19  22
ATOM     22  O   LIG    1       28.912 -20.488   7.061  0.00  0.00    -0.507 OA
ATOM     23  H   LIG    1       28.841 -21.156   7.763  0.00  0.00    +0.292 HD
ENDBRANCH  19  22
ENDBRANCH  15  16
BRANCH  15  24
ATOM     24  O   LIG    1       24.137 -21.572   3.287  0.00  0.00    -0.386 OA
ATOM     25  H   LIG    1       25.060 -21.888   3.364  0.00  0.00    +0.210 HD
ENDBRANCH  15  24
ENDBRANCH   1  15
TORSDOF 9
ENDMDL
MODEL 2
REMARK VINA RESULT:      -4.9      1.992      6.204
REMARK  Name = *****
REMARK                            x       y       z     vdW  Elec       q    Type
REMARK                         _______ _______ _______ _____ _____    ______ ____
ROOT
ATOM      1  C   LIG    1       23.783 -16.256   3.673  0.00  0.00    +0.084 C 
ATOM      2  C   LIG    1       25.086 -17.071   3.652  0.00  0.00    +0.027 C 
ENDROOT
BRANCH   1   3
ATOM      3  N   LIG    1       22.754 -16.895   4.557  0.00  0.00    -0.305 NA
ATOM      4  H   LIG    1       23.132 -16.929   5.508  0.00  0.00    +0.123 HD
BRANCH   3   6
ATOM      5  C   LIG    1       20.973 -18.305   3.525  0.00  0.00    +0.027 C 
ATOM      6  C   LIG    1       22.370 -18.278   4.156  0.00  0.00    +0.088 C 
BRANCH   6   7
ATOM      7  C   LIG    1       22.392 -19.255   5.369  0.00  0.00    +0.247 C 
BRANCH   7   8
ATOM      8  O   LIG    1       23.182 -20.427   5.098  0.00  0.00    -0.490 OA
BRANCH   8   9
ATOM      9  C   LIG    1       24.488 -20.438   5.503  0.00  0.00    +0.121 A 
ATOM     10  C   LIG    1       24.939 -20.866   6.750  0.00  0.00    +0.045 A 
ATOM     11  C   LIG    1       26.300 -20.834   7.060  0.00  0.00    +0.004 A 
ATOM     12  C   LIG    1       27.227 -20.396   6.114  0.00  0.00    +0.000 A 
ATOM     13  C   LIG    1       26.790 -20.008   4.849  0.00  0.00    +0.004 A 
ATOM     14  C   LIG    1       25.425 -20.036   4.544  0.00  0.00    +0.045 A 
ENDBRANCH   8   9
ENDBRANCH   7   8
ENDBRANCH   6   7
ENDBRANCH   3   6
ENDBRANCH   1   3
BRANCH   1  15
ATOM     15  C   LIG    1       24.032 -14.762   4.100  0.00  0.00    +0.161 C 
BRANCH  15  16
ATOM     16  C   LIG    1       25.439 -14.205   3.918  0.00  0.00    -0.018 A 
ATOM     17  C   LIG    1       26.081 -14.129   2.667  0.00  0.00    +0.010 A 
ATOM     18  C   LIG    1       27.423 -13.770   2.559  0.00  0.00    +0.046 A 
ATOM     19  C   LIG    1       28.125 -13.396   3.692  0.00  0.00    +0.117 A 
ATOM     20  C   LIG    1       27.502 -13.382   4.937  0.00  0.00    +0.046 A 
ATOM     21  C   LIG    1       26.165 -13.793   5.042  0.00  0.00    +0.010 A 
BRANCH  19  22
ATOM     22  O   LIG    1       29.430 -13.045   3.528  0.00  0.00    -0.507 OA
ATOM     23  H   LIG    1       29.981 -13.842   3.588  0.00  0.00    +0.292 HD
ENDBRANCH  19  22
ENDBRANCH  15  16
BRANCH  15  24
ATOM     24  O   LIG    1       23.140 -13.919   3.362  0.00  0.00    -0.386 OA
ATOM     25  H   LIG    1       23.023 -13.125   3.921  0.00  0.00    +0.210 HD
ENDBRANCH  15  24
ENDBRANCH   1  15
TORSDOF 9
ENDMDL
MODEL 3
REMARK VINA RESULT:      -4.4      1.494      2.123
REMARK  Name = *****
REMARK                            x       y       z     vdW  Elec       q    Type
REMARK                         _______ _______ _______ _____ _____    ______ ____
ROOT
ATOM      1  C   LIG    1       22.567 -18.911   3.718  0.00  0.00    +0.084 C 
ATOM      2  C   LIG    1       21.031 -18.853   3.688  0.00  0.00    +0.027 C 
ENDROOT
BRANCH   1   3
ATOM      3  N   LIG    1       23.140 -17.780   4.519  0.00  0.00    -0.305 NA
ATOM      4  H   LIG    1       22.394 -17.402   5.110  0.00  0.00    +0.123 HD
BRANCH   3   6
ATOM      5  C   LIG    1       25.169 -16.919   3.349  0.00  0.00    +0.027 C 
ATOM      6  C   LIG    1       23.698 -16.666   3.702  0.00  0.00    +0.088 C 
BRANCH   6   7
ATOM      7  C   LIG    1       23.587 -15.299   4.441  0.00  0.00    +0.247 C 
BRANCH   7   8
ATOM      8  O   LIG    1       24.113 -14.218   3.648  0.00  0.00    -0.490 OA
BRANCH   8   9
ATOM      9  C   LIG    1       25.441 -13.915   3.765  0.00  0.00    +0.121 A 
ATOM     10  C   LIG    1       26.324 -13.747   2.701  0.00  0.00    +0.045 A 
ATOM     11  C   LIG    1       27.666 -13.438   2.935  0.00  0.00    +0.004 A 
ATOM     12  C   LIG    1       28.130 -13.267   4.239  0.00  0.00    +0.000 A 
ATOM     13  C   LIG    1       27.245 -13.387   5.308  0.00  0.00    +0.004 A 
ATOM     14  C   LIG    1       25.904 -13.703   5.070  0.00  0.00    +0.045 A 
ENDBRANCH   8   9
ENDBRANCH   7   8
ENDBRANCH   6   7
ENDBRANCH   3   6
ENDBRANCH   1   3
BRANCH   1  15
ATOM     15  C   LIG    1       23.092 -20.294   4.254  0.00  0.00    +0.161 C 
BRANCH  15  16
ATOM     16  C   LIG    1       24.410 -20.295   5.020  0.00  0.00    -0.018 A 
ATOM     17  C   LIG    1       25.639 -19.937   4.435  0.00  0.00    +0.010 A 
ATOM     18  C   LIG    1       26.844 -20.108   5.113  0.00  0.00    +0.046 A 
ATOM     19  C   LIG    1       26.835 -20.558   6.422  0.00  0.00    +0.117 A 
ATOM     20  C   LIG    1       25.632 -20.846   7.062  0.00  0.00    +0.046 A 
ATOM     21  C   LIG    1       24.429 -20.720   6.353  0.00  0.00    +0.010 A 
BRANCH  19  22
ATOM     22  O   LIG    1       28.039 -20.696   7.041  0.00  0.00    -0.507 OA
ATOM     23  H   LIG    1       28.698 -20.157   6.574  0.00  0.00    +0.292 HD
ENDBRANCH  19  22
ENDBRANCH  15  16
BRANCH  15  24
ATOM     24  O   LIG    1       22.097 -20.859   5.115  0.00  0.00    -0.386 OA
ATOM     25  H   LIG    1       22.601 -21.323   5.813  0.00  0.00    +0.210 HD
ENDBRANCH  15  24
ENDBRANCH   1  15
TORSDOF 9
ENDMDL
MODEL 4
REMARK VINA RESULT:      -4.3      1.950      3.932
REMARK  Name = *****
REMARK                            x       y       z     vdW  Elec       q    Type
REMARK                         _______ _______ _______ _____ _____    ______ ____
ROOT
ATOM      1  C   LIG    1       27.456 -19.639   5.551  0.00  0.00    +0.084 C 
ATOM      2  C   LIG    1       28.766 -20.407   5.316  0.00  0.00    +0.027 C 
ENDROOT
BRANCH   1   3
ATOM      3  N   LIG    1       26.725 -19.401   4.264  0.00  0.00    -0.305 NA
ATOM      4  H   LIG    1       27.402 -19.465   3.499  0.00  0.00    +0.123 HD
BRANCH   3   6
ATOM      5  C   LIG    1       24.637 -18.213   3.585  0.00  0.00    +0.027 C 
ATOM      6  C   LIG    1       26.046 -18.077   4.175  0.00  0.00    +0.088 C 
BRANCH   6   7
ATOM      7  C   LIG    1       26.859 -17.071   3.306  0.00  0.00    +0.247 C 
BRANCH   7   8
ATOM      8  O   LIG    1       27.010 -15.798   3.962  0.00  0.00    -0.490 OA
BRANCH   8   9
ATOM      9  C   LIG    1       26.236 -14.754   3.536  0.00  0.00    +0.121 A 
ATOM     10  C   LIG    1       26.437 -14.031   2.362  0.00  0.00    +0.045 A 
ATOM     11  C   LIG    1       25.584 -12.979   2.022  0.00  0.00    +0.004 A 
ATOM     12  C   LIG    1       24.504 -12.657   2.844  0.00  0.00    +0.000 A 
ATOM     13  C   LIG    1       24.268 -13.402   3.997  0.00  0.00    +0.004 A 
ATOM     14  C   LIG    1       25.129 -14.451   4.337  0.00  0.00    +0.045 A 
ENDBRANCH   8   9
ENDBRANCH   7   8
ENDBRANCH   6   7
ENDBRANCH   3   6
ENDBRANCH   1   3
BRANCH   1  15
ATOM     15  C   LIG    1       26.526 -20.368   6.590  0.00  0.00    +0.161 C 
BRANCH  15  16
ATOM     16  C   LIG    1       25.142 -20.795   6.116  0.00  0.00    -0.018 A 
ATOM     17  C   LIG    1       24.870 -21.188   4.792  0.00  0.00    +0.010 A 
ATOM     18  C   LIG    1       23.567 -21.412   4.353  0.00  0.00    +0.046 A 
ATOM     19  C   LIG    1       22.519 -21.333   5.253  0.00  0.00    +0.117 A 
ATOM     20  C   LIG    1       22.757 -21.025   6.590  0.00  0.00    +0.046 A 
ATOM     21  C   LIG    1       24.066 -20.752   7.010  0.00  0.00    +0.010 A 
BRANCH  19  22
ATOM     22  O   LIG    1       21.267 -21.572   4.774  0.00  0.00    -0.507 OA
ATOM     23  H   LIG    1       21.241 -22.464   4.392  0.00  0.00    +0.292 HD
ENDBRANCH  19  22
ENDBRANCH  15  16
BRANCH  15  24
ATOM     24  O   LIG    1       27.198 -21.542   7.062  0.00  0.00    -0.386 OA
ATOM     25  H   LIG    1       27.509 -21.996   6.253  0.00  0.00    +0.210 HD
ENDBRANCH  15  24
ENDBRANCH   1  15
TORSDOF 9
ENDMDL
MODEL 5
REMARK VINA RESULT:      -4.2      1.569      6.283
REMARK  Name = *****
REMARK                            x       y       z     vdW  Elec       q    Type
REMARK                         _______ _______ _______ _____ _____    ______ ____
ROOT
ATOM      1  C   LIG    1       23.479 -18.179   3.741  0.00  0.00    +0.084 C 
ATOM      2  C   LIG    1       24.838 -18.815   3.412  0.00  0.00    +0.027 C 
ENDROOT
BRANCH   1   3
ATOM      3  N   LIG    1       22.605 -19.127   4.508  0.00  0.00    -0.305 NA
ATOM      4  H   LIG    1       22.356 -18.680   5.395  0.00  0.00    +0.123 HD
BRANCH   3   6
ATOM      5  C   LIG    1       22.179 -21.526   5.044  0.00  0.00    +0.027 C 
ATOM      6  C   LIG    1       23.238 -20.442   4.809  0.00  0.00    +0.088 C 
BRANCH   6   7
ATOM      7  C   LIG    1       24.161 -20.363   6.062  0.00  0.00    +0.247 C 
BRANCH   7   8
ATOM      8  O   LIG    1       25.232 -21.323   5.999  0.00  0.00    -0.490 OA
BRANCH   8   9
ATOM      9  C   LIG    1       26.513 -20.878   6.170  0.00  0.00    +0.121 A 
ATOM     10  C   LIG    1       27.481 -21.498   6.956  0.00  0.00    +0.045 A 
ATOM     11  C   LIG    1       28.763 -20.956   7.062  0.00  0.00    +0.004 A 
ATOM     12  C   LIG    1       29.096 -19.798   6.359  0.00  0.00    +0.000 A 
ATOM     13  C   LIG    1       28.149 -19.195   5.534  0.00  0.00    +0.004 A 
ATOM     14  C   LIG    1       26.864 -19.738   5.436  0.00  0.00    +0.045 A 
ENDBRANCH   8   9
ENDBRANCH   7   8
ENDBRANCH   6   7
ENDBRANCH   3   6
ENDBRANCH   1   3
BRANCH   1  15
ATOM     15  C   LIG    1       23.638 -16.820   4.516  0.00  0.00    +0.161 C 
BRANCH  15  16
ATOM     16  C   LIG    1       24.423 -15.708   3.830  0.00  0.00    -0.018 A 
ATOM     17  C   LIG    1       25.740 -15.873   3.359  0.00  0.00    +0.010 A 
ATOM     18  C   LIG    1       26.484 -14.794   2.888  0.00  0.00    +0.046 A 
ATOM     19  C   LIG    1       25.896 -13.545   2.797  0.00  0.00    +0.117 A 
ATOM     20  C   LIG    1       24.570 -13.358   3.179  0.00  0.00    +0.046 A 
ATOM     21  C   LIG    1       23.846 -14.440   3.699  0.00  0.00    +0.010 A 
BRANCH  19  22
ATOM     22  O   LIG    1       26.666 -12.528   2.320  0.00  0.00    -0.507 OA
ATOM     23  H   LIG    1       26.096 -11.893   1.855  0.00  0.00    +0.292 HD
ENDBRANCH  19  22
ENDBRANCH  15  16
BRANCH  15  24
ATOM     24  O   LIG    1       22.335 -16.304   4.811  0.00  0.00    -0.386 OA
ATOM     25  H   LIG    1       22.168 -15.631   4.120  0.00  0.00    +0.210 HD
ENDBRANCH  15  24
ENDBRANCH   1  15
TORSDOF 9
ENDMDL
MODEL 6
REMARK VINA RESULT:      -3.6      2.082      4.863
REMARK  Name = *****
REMARK                            x       y       z     vdW  Elec       q    Type
REMARK                         _______ _______ _______ _____ _____    ______ ____
ROOT
ATOM      1  C   LIG    1       25.208 -20.617   4.774  0.00  0.00    +0.084 C 
ATOM      2  C   LIG    1       24.764 -21.556   3.643  0.00  0.00    +0.027 C 
ENDROOT
BRANCH   1   3
ATOM      3  N   LIG    1       25.881 -19.391   4.232  0.00  0.00    -0.305 NA
ATOM      4  H   LIG    1       25.785 -19.401   3.213  0.00  0.00    +0.123 HD
BRANCH   3   6
ATOM      5  C   LIG    1       27.622 -19.842   5.962  0.00  0.00    +0.027 C 
ATOM      6  C   LIG    1       27.330 -19.284   4.564  0.00  0.00    +0.088 C 
BRANCH   6   7
ATOM      7  C   LIG    1       27.828 -17.810   4.497  0.00  0.00    +0.247 C 
BRANCH   7   8
ATOM      8  O   LIG    1       27.202 -17.082   3.424  0.00  0.00    -0.490 OA
BRANCH   8   9
ATOM      9  C   LIG    1       26.724 -15.827   3.684  0.00  0.00    +0.121 A 
ATOM     10  C   LIG    1       27.509 -14.709   3.958  0.00  0.00    +0.045 A 
ATOM     11  C   LIG    1       26.914 -13.471   4.211  0.00  0.00    +0.004 A 
ATOM     12  C   LIG    1       25.527 -13.335   4.165  0.00  0.00    +0.000 A 
ATOM     13  C   LIG    1       24.736 -14.437   3.847  0.00  0.00    +0.004 A 
ATOM     14  C   LIG    1       25.335 -15.677   3.601  0.00  0.00    +0.045 A 
ENDBRANCH   8   9
ENDBRANCH   7   8
ENDBRANCH   6   7
ENDBRANCH   3   6
ENDBRANCH   1   3
BRANCH   1  15
ATOM     15  C   LIG    1       24.011 -20.223   5.715  0.00  0.00    +0.161 C 
BRANCH  15  16
ATOM     16  C   LIG    1       22.724 -19.748   5.052  0.00  0.00    -0.018 A 
ATOM     17  C   LIG    1       21.643 -20.604   4.768  0.00  0.00    +0.010 A 
ATOM     18  C   LIG    1       20.553 -20.173   4.015  0.00  0.00    +0.046 A 
ATOM     19  C   LIG    1       20.482 -18.853   3.605  0.00  0.00    +0.117 A 
ATOM     20  C   LIG    1       21.495 -17.956   3.934  0.00  0.00    +0.046 A 
ATOM     21  C   LIG    1       22.612 -18.411   4.649  0.00  0.00    +0.010 A 
BRANCH  19  22
ATOM     22  O   LIG    1       19.391 -18.484   2.880  0.00  0.00    -0.507 OA
ATOM     23  H   LIG    1       19.665 -18.306   1.966  0.00  0.00    +0.292 HD
ENDBRANCH  19  22
ENDBRANCH  15  16
BRANCH  15  24
ATOM     24  O   LIG    1       23.679 -21.352   6.532  0.00  0.00    -0.386 OA
ATOM     25  H   LIG    1       22.727 -21.510   6.369  0.00  0.00    +0.210 HD
ENDBRANCH  15  24
ENDBRANCH   1  15
TORSDOF 9
ENDMDL
MODEL 7
REMARK VINA RESULT:      -3.4      1.832      6.019
REMARK  Name = *****
REMARK                            x       y       z     vdW  Elec       q    Type
REMARK                         _______ _______ _______ _____ _____    ______ ____
ROOT
ATOM      1  C   LIG    1       24.454 -14.859   3.608  0.00  0.00    +0.084 C 
ATOM      2  C   LIG    1       24.125 -13.385   3.323  0.00  0.00    +0.027 C 
ENDROOT
BRANCH   1   3
ATOM      3  N   LIG    1       25.552 -14.987   4.621  0.00  0.00    -0.305 NA
ATOM      4  H   LIG    1       25.566 -14.131   5.182  0.00  0.00    +0.123 HD
BRANCH   3   6
ATOM      5  C   LIG    1       27.065 -14.420   2.719  0.00  0.00    +0.027 C 
ATOM      6  C   LIG    1       26.909 -15.186   4.038  0.00  0.00    +0.088 C 
BRANCH   6   7
ATOM      7  C   LIG    1       27.210 -16.693   3.782  0.00  0.00    +0.247 C 
BRANCH   7   8
ATOM      8  O   LIG    1       28.462 -17.095   4.368  0.00  0.00    -0.490 OA
BRANCH   8   9
ATOM      9  C   LIG    1       28.489 -18.236   5.122  0.00  0.00    +0.121 A 
ATOM     10  C   LIG    1       29.475 -18.562   6.051  0.00  0.00    +0.045 A 
ATOM     11  C   LIG    1       29.404 -19.758   6.768  0.00  0.00    +0.004 A 
ATOM     12  C   LIG    1       28.330 -20.628   6.581  0.00  0.00    +0.000 A 
ATOM     13  C   LIG    1       27.315 -20.288   5.688  0.00  0.00    +0.004 A 
ATOM     14  C   LIG    1       27.394 -19.093   4.966  0.00  0.00    +0.045 A 
ENDBRANCH   8   9
ENDBRANCH   7   8
ENDBRANCH   6   7
ENDBRANCH   3   6
ENDBRANCH   1   3
BRANCH   1  15
ATOM     15  C   LIG    1       23.183 -15.667   4.062  0.00  0.00    +0.161 C 
BRANCH  15  16
ATOM     16  C   LIG    1       23.314 -17.182   4.167  0.00  0.00    -0.018 A 
ATOM     17  C   LIG    1       24.373 -17.905   3.586  0.00  0.00    +0.010 A 
ATOM     18  C   LIG    1       24.375 -19.297   3.560  0.00  0.00    +0.046 A 
ATOM     19  C   LIG    1       23.361 -19.995   4.192  0.00  0.00    +0.117 A 
ATOM     20  C   LIG    1       22.337 -19.316   4.847  0.00  0.00    +0.046 A 
ATOM     21  C   LIG    1       22.317 -17.914   4.824  0.00  0.00    +0.010 A 
BRANCH  19  22
ATOM     22  O   LIG    1       23.417 -21.355   4.145  0.00  0.00    -0.507 OA
ATOM     23  H   LIG    1       24.221 -21.653   4.599  0.00  0.00    +0.292 HD
ENDBRANCH  19  22
ENDBRANCH  15  16
BRANCH  15  24
ATOM     24  O   LIG    1       22.766 -15.184   5.344  0.00  0.00    -0.386 OA
ATOM     25  H   LIG    1       23.287 -15.701   5.990  0.00  0.00    +0.210 HD
ENDBRANCH  15  24
ENDBRANCH   1  15
TORSDOF 9
ENDMDL
MODEL 8
REMARK VINA RESULT:      -3.4      1.363      2.346
REMARK  Name = *****
REMARK                            x       y       z     vdW  Elec       q    Type
REMARK                         _______ _______ _______ _____ _____    ______ ____
ROOT
ATOM      1  C   LIG    1       21.650 -19.182   3.737  0.00  0.00    +0.084 C 
ATOM      2  C   LIG    1       20.116 -19.110   3.720  0.00  0.00    +0.027 C 
ENDROOT
BRANCH   1   3
ATOM      3  N   LIG    1       22.236 -18.119   4.617  0.00  0.00    -0.305 NA
ATOM      4  H   LIG    1       21.471 -17.679   5.134  0.00  0.00    +0.123 HD
BRANCH   3   6
ATOM      5  C   LIG    1       24.432 -17.466   3.628  0.00  0.00    +0.027 C 
ATOM      6  C   LIG    1       22.978 -17.053   3.886  0.00  0.00    +0.088 C 
BRANCH   6   7
ATOM      7  C   LIG    1       22.971 -15.706   4.669  0.00  0.00    +0.247 C 
BRANCH   7   8
ATOM      8  O   LIG    1       23.031 -14.572   3.784  0.00  0.00    -0.490 OA
BRANCH   8   9
ATOM      9  C   LIG    1       24.248 -13.993   3.554  0.00  0.00    +0.121 A 
ATOM     10  C   LIG    1       25.443 -14.361   4.169  0.00  0.00    +0.045 A 
ATOM     11  C   LIG    1       26.633 -13.701   3.859  0.00  0.00    +0.004 A 
ATOM     12  C   LIG    1       26.643 -12.680   2.908  0.00  0.00    +0.000 A 
ATOM     13  C   LIG    1       25.462 -12.336   2.254  0.00  0.00    +0.004 A 
ATOM     14  C   LIG    1       24.271 -12.996   2.572  0.00  0.00    +0.045 A 
ENDBRANCH   8   9
ENDBRANCH   7   8
ENDBRANCH   6   7
ENDBRANCH   3   6
ENDBRANCH   1   3
BRANCH   1  15
ATOM     15  C   LIG    1       22.167 -20.605   4.166  0.00  0.00    +0.161 C 
BRANCH  15  16
ATOM     16  C   LIG    1       23.468 -20.671   4.956  0.00  0.00    -0.018 A 
ATOM     17  C   LIG    1       23.516 -20.659   6.363  0.00  0.00    +0.010 A 
ATOM     18  C   LIG    1       24.724 -20.553   7.048  0.00  0.00    +0.046 A 
ATOM     19  C   LIG    1       25.914 -20.545   6.342  0.00  0.00    +0.117 A 
ATOM     20  C   LIG    1       25.911 -20.636   4.952  0.00  0.00    +0.046 A 
ATOM     21  C   LIG    1       24.688 -20.690   4.269  0.00  0.00    +0.010 A 
BRANCH  19  22
ATOM     22  O   LIG    1       27.065 -20.451   7.062  0.00  0.00    -0.507 OA
ATOM     23  H   LIG    1       27.016 -21.061   7.816  0.00  0.00    +0.292 HD
ENDBRANCH  19  22
ENDBRANCH  15  16
BRANCH  15  24
ATOM     24  O   LIG    1       21.155 -21.241   4.955  0.00  0.00    -0.386 OA
ATOM     25  H   LIG    1       20.334 -20.747   4.758  0.00  0.00    +0.210 HD
ENDBRANCH  15  24
ENDBRANCH   1  15
TORSDOF 9
ENDMDL
MODEL 9
REMARK VINA RESULT:      -3.4      2.030      4.934
REMARK  Name = *****
REMARK                            x       y       z     vdW  Elec       q    Type
REMARK                         _______ _______ _______ _____ _____    ______ ____
ROOT
ATOM      1  C   LIG    1       26.536 -15.642   3.907  0.00  0.00    +0.084 C 
ATOM      2  C   LIG    1       27.549 -14.487   3.945  0.00  0.00    +0.027 C 
ENDROOT
BRANCH   1   3
ATOM      3  N   LIG    1       25.342 -15.293   3.071  0.00  0.00    -0.305 NA
ATOM      4  H   LIG    1       25.596 -14.504   2.470  0.00  0.00    +0.123 HD
BRANCH   3   6
ATOM      5  C   LIG    1       24.479 -13.920   4.967  0.00  0.00    +0.027 C 
ATOM      6  C   LIG    1       24.131 -14.913   3.852  0.00  0.00    +0.088 C 
BRANCH   6   7
ATOM      7  C   LIG    1       23.441 -16.158   4.485  0.00  0.00    +0.247 C 
BRANCH   7   8
ATOM      8  O   LIG    1       23.444 -17.284   3.589  0.00  0.00    -0.490 OA
BRANCH   8   9
ATOM      9  C   LIG    1       23.321 -18.538   4.122  0.00  0.00    +0.121 A 
ATOM     10  C   LIG    1       22.564 -18.863   5.246  0.00  0.00    +0.045 A 
ATOM     11  C   LIG    1       22.510 -20.180   5.706  0.00  0.00    +0.004 A 
ATOM     12  C   LIG    1       23.193 -21.190   5.030  0.00  0.00    +0.000 A 
ATOM     13  C   LIG    1       23.916 -20.883   3.879  0.00  0.00    +0.004 A 
ATOM     14  C   LIG    1       23.973 -19.561   3.425  0.00  0.00    +0.045 A 
ENDBRANCH   8   9
ENDBRANCH   7   8
ENDBRANCH   6   7
ENDBRANCH   3   6
ENDBRANCH   1   3
BRANCH   1  15
ATOM     15  C   LIG    1       27.192 -16.982   3.407  0.00  0.00    +0.161 C 
BRANCH  15  16
ATOM     16  C   LIG    1       27.711 -17.947   4.466  0.00  0.00    -0.018 A 
ATOM     17  C   LIG    1       28.961 -17.798   5.096  0.00  0.00    +0.010 A 
ATOM     18  C   LIG    1       29.475 -18.785   5.935  0.00  0.00    +0.046 A 
ATOM     19  C   LIG    1       28.710 -19.900   6.228  0.00  0.00    +0.117 A 
ATOM     20  C   LIG    1       27.435 -20.046   5.687  0.00  0.00    +0.046 A 
ATOM     21  C   LIG    1       26.948 -19.071   4.804  0.00  0.00    +0.010 A 
BRANCH  19  22
ATOM     22  O   LIG    1       29.256 -20.828   7.061  0.00  0.00    -0.507 OA
ATOM     23  H   LIG    1       29.914 -20.394   7.629  0.00  0.00    +0.292 HD
ENDBRANCH  19  22
ENDBRANCH  15  16
BRANCH  15  24
ATOM     24  O   LIG    1       26.235 -17.692   2.613  0.00  0.00    -0.386 OA
ATOM     25  H   LIG    1       25.928 -17.044   1.948  0.00  0.00    +0.210 HD
ENDBRANCH  15  24
ENDBRANCH   1  15
TORSDOF 9
ENDMDL
