MODEL 1
REMARK VINA RESULT:      -4.2      0.000      0.000
REMARK  Name = *****
REMARK                            x       y       z     vdW  Elec       q    Type
REMARK                         _______ _______ _______ _____ _____    ______ ____
ROOT
ATOM      1  C   LIG    1       23.934 -21.572   7.062  0.00  0.00    +0.155 C 
ATOM      2  N   LIG    1       24.404 -20.705   6.001  0.00  0.00    -0.280 N 
ATOM      3  C   LIG    1       23.464 -20.101   5.161  0.00  0.00    +0.333 C 
ATOM      4  O   LIG    1       22.253 -20.290   5.308  0.00  0.00    -0.246 OA
ATOM      5  N   LIG    1       23.956 -19.266   4.136  0.00  0.00    -0.262 N 
ATOM      6  C   LIG    1       22.965 -18.655   3.272  0.00  0.00    +0.157 C 
ATOM      7  C   LIG    1       25.302 -18.987   3.893  0.00  0.00    +0.282 C 
ATOM      8  O   LIG    1       25.723 -18.256   3.003  0.00  0.00    -0.265 OA
ATOM      9  C   LIG    1       26.168 -19.648   4.800  0.00  0.00    +0.149 A 
ATOM     10  N   LIG    1       27.528 -19.635   4.892  0.00  0.00    -0.339 N 
ATOM     11  H   LIG    1       28.165 -19.125   4.293  0.00  0.00    +0.167 HD
ATOM     12  C   LIG    1       27.856 -20.448   5.945  0.00  0.00    +0.199 A 
ATOM     13  N   LIG    1       26.785 -20.965   6.516  0.00  0.00    -0.218 NA
ATOM     14  C   LIG    1       25.740 -20.463   5.800  0.00  0.00    +0.168 A 
ENDROOT
TORSDOF 0
ENDMDL
MODEL 2
REMARK VINA RESULT:      -3.9      1.547      1.916
REMARK  Name = *****
REMARK                            x       y       z     vdW  Elec       q    Type
REMARK                         _______ _______ _______ _____ _____    ______ ____
ROOT
ATOM      1  C   LIG    1       26.696 -21.572   7.024  0.00  0.00    +0.155 C 
ATOM      2  N   LIG    1       26.539 -20.585   5.976  0.00  0.00    -0.280 N 
ATOM      3  C   LIG    1       25.335 -20.543   5.267  0.00  0.00    +0.333 C 
ATOM      4  O   LIG    1       24.412 -21.323   5.519  0.00  0.00    -0.246 OA
ATOM      5  N   LIG    1       25.217 -19.572   4.251  0.00  0.00    -0.262 N 
ATOM      6  C   LIG    1       23.963 -19.550   3.524  0.00  0.00    +0.157 C 
ATOM      7  C   LIG    1       26.199 -18.645   3.896  0.00  0.00    +0.282 C 
ATOM      8  O   LIG    1       26.088 -17.800   3.015  0.00  0.00    -0.265 OA
ATOM      9  C   LIG    1       27.376 -18.774   4.675  0.00  0.00    +0.149 A 
ATOM     10  N   LIG    1       28.544 -18.070   4.636  0.00  0.00    -0.339 N 
ATOM     11  H   LIG    1       28.762 -17.306   4.010  0.00  0.00    +0.167 HD
ATOM     12  C   LIG    1       29.355 -18.605   5.603  0.00  0.00    +0.199 A 
ATOM     13  N   LIG    1       28.765 -19.596   6.243  0.00  0.00    -0.218 NA
ATOM     14  C   LIG    1       27.536 -19.696   5.661  0.00  0.00    +0.168 A 
ENDROOT
TORSDOF 0
ENDMDL
MODEL 3
REMARK VINA RESULT:      -3.9      1.413      2.942
REMARK  Name = *****
REMARK                            x       y       z     vdW  Elec       q    Type
REMARK                         _______ _______ _______ _____ _____    ______ ____
ROOT
ATOM      1  C   LIG    1       26.101 -18.583   3.302  0.00  0.00    +0.155 C 
ATOM      2  N   LIG    1       25.329 -19.365   4.245  0.00  0.00    -0.280 N 
ATOM      3  C   LIG    1       23.942 -19.439   4.080  0.00  0.00    +0.333 C 
ATOM      4  O   LIG    1       23.372 -18.857   3.153  0.00  0.00    -0.246 OA
ATOM      5  N   LIG    1       23.220 -20.206   5.019  0.00  0.00    -0.262 N 
ATOM      6  C   LIG    1       21.784 -20.264   4.833  0.00  0.00    +0.157 C 
ATOM      7  C   LIG    1       23.774 -20.902   6.095  0.00  0.00    +0.282 C 
ATOM      8  O   LIG    1       23.140 -21.572   6.904  0.00  0.00    -0.265 OA
ATOM      9  C   LIG    1       25.182 -20.761   6.169  0.00  0.00    +0.149 A 
ATOM     10  N   LIG    1       26.076 -21.275   7.062  0.00  0.00    -0.339 N 
ATOM     11  H   LIG    1       25.860 -21.868   7.852  0.00  0.00    +0.167 HD
ATOM     12  C   LIG    1       27.313 -20.827   6.677  0.00  0.00    +0.199 A 
ATOM     13  N   LIG    1       27.245 -20.067   5.601  0.00  0.00    -0.218 NA
ATOM     14  C   LIG    1       25.918 -20.030   5.291  0.00  0.00    +0.168 A 
ENDROOT
TORSDOF 0
ENDMDL
MODEL 4
REMARK VINA RESULT:      -3.8      1.651      4.534
REMARK  Name = *****
REMARK                            x       y       z     vdW  Elec       q    Type
REMARK                         _______ _______ _______ _____ _____    ______ ____
ROOT
ATOM      1  C   LIG    1       25.977 -18.367   3.294  0.00  0.00    +0.155 C 
ATOM      2  N   LIG    1       25.313 -19.204   4.271  0.00  0.00    -0.280 N 
ATOM      3  C   LIG    1       26.094 -19.972   5.140  0.00  0.00    +0.333 C 
ATOM      4  O   LIG    1       27.327 -19.946   5.090  0.00  0.00    -0.246 OA
ATOM      5  N   LIG    1       25.415 -20.779   6.077  0.00  0.00    -0.262 N 
ATOM      6  C   LIG    1       26.244 -21.571   6.964  0.00  0.00    +0.157 C 
ATOM      7  C   LIG    1       24.028 -20.871   6.214  0.00  0.00    +0.282 C 
ATOM      8  O   LIG    1       23.445 -21.571   7.034  0.00  0.00    -0.265 OA
ATOM      9  C   LIG    1       23.334 -20.054   5.287  0.00  0.00    +0.149 A 
ATOM     10  N   LIG    1       21.995 -19.871   5.101  0.00  0.00    -0.339 N 
ATOM     11  H   LIG    1       21.251 -20.314   5.623  0.00  0.00    +0.167 HD
ATOM     12  C   LIG    1       21.863 -18.976   4.071  0.00  0.00    +0.199 A 
ATOM     13  N   LIG    1       23.036 -18.591   3.605  0.00  0.00    -0.218 NA
ATOM     14  C   LIG    1       23.944 -19.264   4.365  0.00  0.00    +0.168 A 
ENDROOT
TORSDOF 0
ENDMDL
MODEL 5
REMARK VINA RESULT:      -3.8      1.585      3.489
REMARK  Name = *****
REMARK                            x       y       z     vdW  Elec       q    Type
REMARK                         _______ _______ _______ _____ _____    ______ ____
ROOT
ATOM      1  C   LIG    1       23.310 -21.571   7.062  0.00  0.00    +0.155 C 
ATOM      2  N   LIG    1       24.032 -20.766   6.099  0.00  0.00    -0.280 N 
ATOM      3  C   LIG    1       25.429 -20.773   6.130  0.00  0.00    +0.333 C 
ATOM      4  O   LIG    1       26.052 -21.449   6.954  0.00  0.00    -0.246 OA
ATOM      5  N   LIG    1       26.101 -19.975   5.180  0.00  0.00    -0.262 N 
ATOM      6  C   LIG    1       27.549 -19.992   5.234  0.00  0.00    +0.157 C 
ATOM      7  C   LIG    1       25.487 -19.183   4.208  0.00  0.00    +0.282 C 
ATOM      8  O   LIG    1       26.077 -18.495   3.381  0.00  0.00    -0.265 OA
ATOM      9  C   LIG    1       24.073 -19.248   4.264  0.00  0.00    +0.149 A 
ATOM     10  N   LIG    1       23.128 -18.629   3.500  0.00  0.00    -0.339 N 
ATOM     11  H   LIG    1       23.301 -17.991   2.734  0.00  0.00    +0.167 HD
ATOM     12  C   LIG    1       21.910 -19.037   3.978  0.00  0.00    +0.199 A 
ATOM     13  N   LIG    1       22.038 -19.873   4.991  0.00  0.00    -0.218 NA
ATOM     14  C   LIG    1       23.383 -20.000   5.163  0.00  0.00    +0.168 A 
ENDROOT
TORSDOF 0
ENDMDL
MODEL 6
REMARK VINA RESULT:      -3.7      1.598      3.300
REMARK  Name = *****
REMARK                            x       y       z     vdW  Elec       q    Type
REMARK                         _______ _______ _______ _____ _____    ______ ____
ROOT
ATOM      1  C   LIG    1       26.931 -21.027   7.062  0.00  0.00    +0.155 C 
ATOM      2  N   LIG    1       26.011 -20.472   6.092  0.00  0.00    -0.280 N 
ATOM      3  C   LIG    1       26.509 -19.616   5.106  0.00  0.00    +0.333 C 
ATOM      4  O   LIG    1       27.709 -19.330   5.047  0.00  0.00    -0.246 OA
ATOM      5  N   LIG    1       25.585 -19.089   4.179  0.00  0.00    -0.262 N 
ATOM      6  C   LIG    1       26.122 -18.199   3.169  0.00  0.00    +0.157 C 
ATOM      7  C   LIG    1       24.214 -19.357   4.160  0.00  0.00    +0.282 C 
ATOM      8  O   LIG    1       23.417 -18.900   3.348  0.00  0.00    -0.265 OA
ATOM      9  C   LIG    1       23.816 -20.234   5.199  0.00  0.00    +0.149 A 
ATOM     10  N   LIG    1       22.584 -20.726   5.516  0.00  0.00    -0.339 N 
ATOM     11  H   LIG    1       21.718 -20.530   5.033  0.00  0.00    +0.167 HD
ATOM     12  C   LIG    1       22.755 -21.529   6.614  0.00  0.00    +0.199 A 
ATOM     13  N   LIG    1       24.017 -21.568   6.999  0.00  0.00    -0.218 NA
ATOM     14  C   LIG    1       24.669 -20.761   6.116  0.00  0.00    +0.168 A 
ENDROOT
TORSDOF 0
ENDMDL
MODEL 7
REMARK VINA RESULT:      -3.3      1.726      3.955
REMARK  Name = *****
REMARK                            x       y       z     vdW  Elec       q    Type
REMARK                         _______ _______ _______ _____ _____    ______ ____
ROOT
ATOM      1  C   LIG    1       23.558 -18.830   3.364  0.00  0.00    +0.155 C 
ATOM      2  N   LIG    1       24.460 -19.420   4.331  0.00  0.00    -0.280 N 
ATOM      3  C   LIG    1       25.824 -19.123   4.247  0.00  0.00    +0.333 C 
ATOM      4  O   LIG    1       26.267 -18.373   3.373  0.00  0.00    -0.246 OA
ATOM      5  N   LIG    1       26.674 -19.718   5.203  0.00  0.00    -0.262 N 
ATOM      6  C   LIG    1       28.085 -19.402   5.094  0.00  0.00    +0.157 C 
ATOM      7  C   LIG    1       26.269 -20.573   6.230  0.00  0.00    +0.282 C 
ATOM      8  O   LIG    1       27.013 -21.082   7.061  0.00  0.00    -0.265 OA
ATOM      9  C   LIG    1       24.871 -20.806   6.224  0.00  0.00    +0.149 A 
ATOM     10  N   LIG    1       24.099 -21.572   7.048  0.00  0.00    -0.339 N 
ATOM     11  H   LIG    1       24.423 -22.121   7.832  0.00  0.00    +0.167 HD
ATOM     12  C   LIG    1       22.810 -21.450   6.600  0.00  0.00    +0.199 A 
ATOM     13  N   LIG    1       22.730 -20.655   5.549  0.00  0.00    -0.218 NA
ATOM     14  C   LIG    1       24.014 -20.259   5.322  0.00  0.00    +0.168 A 
ENDROOT
TORSDOF 0
ENDMDL
MODEL 8
REMARK VINA RESULT:      -2.8      2.340      4.576
REMARK  Name = *****
REMARK                            x       y       z     vdW  Elec       q    Type
REMARK                         _______ _______ _______ _____ _____    ______ ____
ROOT
ATOM      1  C   LIG    1       26.190 -17.716   3.257  0.00  0.00    +0.155 C 
ATOM      2  N   LIG    1       26.559 -18.711   4.242  0.00  0.00    -0.280 N 
ATOM      3  C   LIG    1       27.795 -18.595   4.884  0.00  0.00    +0.333 C 
ATOM      4  O   LIG    1       28.568 -17.667   4.629  0.00  0.00    -0.246 OA
ATOM      5  N   LIG    1       28.125 -19.583   5.835  0.00  0.00    -0.262 N 
ATOM      6  C   LIG    1       29.414 -19.447   6.484  0.00  0.00    +0.157 C 
ATOM      7  C   LIG    1       27.318 -20.665   6.194  0.00  0.00    +0.282 C 
ATOM      8  O   LIG    1       27.608 -21.517   7.026  0.00  0.00    -0.265 OA
ATOM      9  C   LIG    1       26.090 -20.687   5.486  0.00  0.00    +0.149 A 
ATOM     10  N   LIG    1       25.051 -21.567   5.548  0.00  0.00    -0.339 N 
ATOM     11  H   LIG    1       24.992 -22.385   6.141  0.00  0.00    +0.167 HD
ATOM     12  C   LIG    1       24.112 -21.127   4.651  0.00  0.00    +0.199 A 
ATOM     13  N   LIG    1       24.503 -20.027   4.036  0.00  0.00    -0.218 NA
ATOM     14  C   LIG    1       25.732 -19.760   4.559  0.00  0.00    +0.168 A 
ENDROOT
TORSDOF 0
ENDMDL
MODEL 9
REMARK VINA RESULT:      -2.6      1.959      3.270
REMARK  Name = *****
REMARK                            x       y       z     vdW  Elec       q    Type
REMARK                         _______ _______ _______ _____ _____    ______ ____
ROOT
ATOM      1  C   LIG    1       26.000 -17.713   3.048  0.00  0.00    +0.155 C 
ATOM      2  N   LIG    1       26.095 -18.721   4.082  0.00  0.00    -0.280 N 
ATOM      3  C   LIG    1       24.987 -19.537   4.329  0.00  0.00    +0.333 C 
ATOM      4  O   LIG    1       23.941 -19.416   3.684  0.00  0.00    -0.246 OA
ATOM      5  N   LIG    1       25.112 -20.506   5.346  0.00  0.00    -0.262 N 
ATOM      6  C   LIG    1       23.950 -21.338   5.590  0.00  0.00    +0.157 C 
ATOM      7  C   LIG    1       26.252 -20.724   6.124  0.00  0.00    +0.282 C 
ATOM      8  O   LIG    1       26.356 -21.572   7.004  0.00  0.00    -0.265 OA
ATOM      9  C   LIG    1       27.313 -19.845   5.793  0.00  0.00    +0.149 A 
ATOM     10  N   LIG    1       28.568 -19.738   6.316  0.00  0.00    -0.339 N 
ATOM     11  H   LIG    1       28.956 -20.299   7.062  0.00  0.00    +0.167 HD
ATOM     12  C   LIG    1       29.189 -18.723   5.635  0.00  0.00    +0.199 A 
ATOM     13  N   LIG    1       28.400 -18.193   4.721  0.00  0.00    -0.218 NA
ATOM     14  C   LIG    1       27.237 -18.894   4.824  0.00  0.00    +0.168 A 
ENDROOT
TORSDOF 0
ENDMDL
