MODEL 1
REMARK VINA RESULT:      -2.7      0.000      0.000
REMARK  Name = *****
REMARK                            x       y       z     vdW  Elec       q    Type
REMARK                         _______ _______ _______ _____ _____    ______ ____
ROOT
ATOM      1  C   LIG    1       24.531 -19.680   4.047  0.00  0.00    +0.086 C 
ENDROOT
BRANCH   1   2
ATOM      2  C   LIG    1       24.790 -18.174   3.771  0.00  0.00    -0.027 A 
ATOM      3  C   LIG    1       23.814 -17.188   4.035  0.00  0.00    +0.005 A 
ATOM      4  C   LIG    1       24.102 -15.826   3.916  0.00  0.00    +0.000 A 
ATOM      5  C   LIG    1       25.373 -15.414   3.533  0.00  0.00    +0.000 A 
ATOM      6  C   LIG    1       26.340 -16.364   3.217  0.00  0.00    +0.000 A 
ATOM      7  C   LIG    1       26.049 -17.728   3.321  0.00  0.00    +0.005 A 
ENDBRANCH   1   2
BRANCH   1   9
ATOM      8  C   LIG    1       23.147 -21.184   5.734  0.00  0.00    +0.009 C 
ATOM      9  C   LIG    1       23.420 -19.762   5.204  0.00  0.00    +0.007 C 
ATOM     10  C   LIG    1       22.057 -19.139   4.835  0.00  0.00    +0.009 C 
ENDBRANCH   1   9
BRANCH   1  11
ATOM     11  C   LIG    1       23.994 -20.393   2.847  0.00  0.00    +0.074 C 
ATOM     12  N   LIG    1       23.577 -20.962   1.932  0.00  0.00    -0.196 NA
ENDBRANCH   1  11
BRANCH   1  13
ATOM     13  C   LIG    1       25.829 -20.451   4.519  0.00  0.00    +0.045 C 
BRANCH  13  14
ATOM     14  C   LIG    1       26.593 -19.995   5.815  0.00  0.00    +0.055 C 
ATOM     15  C   LIG    1       26.136 -20.762   7.062  0.00  0.00    +0.024 C 
BRANCH  14  16
ATOM     16  N   LIG    1       28.075 -20.041   5.618  0.00  0.00    -0.306 NA
ATOM     17  C   LIG    1       28.818 -20.774   6.641  0.00  0.00    +0.105 C 
ATOM     18  C   LIG    1       28.686 -18.720   5.413  0.00  0.00    +0.105 C 
ENDBRANCH  14  16
ENDBRANCH  13  14
ENDBRANCH   1  13
TORSDOF 6
ENDMDL
MODEL 2
REMARK VINA RESULT:      -1.8      2.059      4.630
REMARK  Name = *****
REMARK                            x       y       z     vdW  Elec       q    Type
REMARK                         _______ _______ _______ _____ _____    ______ ____
ROOT
ATOM      1  C   LIG    1       24.800 -19.012   3.793  0.00  0.00    +0.086 C 
ENDROOT
BRANCH   1   2
ATOM      2  C   LIG    1       25.521 -19.659   5.006  0.00  0.00    -0.027 A 
ATOM      3  C   LIG    1       24.809 -20.309   6.038  0.00  0.00    +0.005 A 
ATOM      4  C   LIG    1       25.469 -21.008   7.052  0.00  0.00    +0.000 A 
ATOM      5  C   LIG    1       26.857 -21.077   7.061  0.00  0.00    +0.000 A 
ATOM      6  C   LIG    1       27.587 -20.404   6.086  0.00  0.00    +0.000 A 
ATOM      7  C   LIG    1       26.929 -19.691   5.077  0.00  0.00    +0.005 A 
ENDBRANCH   1   2
BRANCH   1   9
ATOM      8  C   LIG    1       23.227 -19.914   1.861  0.00  0.00    +0.009 C 
ATOM      9  C   LIG    1       24.436 -20.198   2.773  0.00  0.00    +0.007 C 
ATOM     10  C   LIG    1       24.199 -21.571   3.439  0.00  0.00    +0.009 C 
ENDBRANCH   1   9
BRANCH   1  11
ATOM     11  C   LIG    1       23.523 -18.339   4.184  0.00  0.00    +0.074 C 
ATOM     12  N   LIG    1       22.531 -17.816   4.466  0.00  0.00    -0.196 NA
ENDBRANCH   1  11
BRANCH   1  13
ATOM     13  C   LIG    1       25.693 -17.942   3.045  0.00  0.00    +0.045 C 
BRANCH  13  14
ATOM     14  C   LIG    1       26.096 -16.605   3.766  0.00  0.00    +0.055 C 
ATOM     15  C   LIG    1       27.613 -16.478   3.954  0.00  0.00    +0.024 C 
BRANCH  14  16
ATOM     16  N   LIG    1       25.495 -15.415   3.087  0.00  0.00    -0.306 NA
ATOM     17  C   LIG    1       26.455 -14.446   2.562  0.00  0.00    +0.105 C 
ATOM     18  C   LIG    1       24.481 -14.722   3.892  0.00  0.00    +0.105 C 
ENDBRANCH  14  16
ENDBRANCH  13  14
ENDBRANCH   1  13
TORSDOF 6
ENDMDL
MODEL 3
REMARK VINA RESULT:      -1.4      4.060      6.361
REMARK  Name = *****
REMARK                            x       y       z     vdW  Elec       q    Type
REMARK                         _______ _______ _______ _____ _____    ______ ____
ROOT
ATOM      1  C   LIG    1       24.876 -14.204   3.969  0.00  0.00    +0.086 C 
ENDROOT
BRANCH   1   2
ATOM      2  C   LIG    1       24.053 -15.518   4.055  0.00  0.00    -0.027 A 
ATOM      3  C   LIG    1       24.586 -16.760   3.648  0.00  0.00    +0.005 A 
ATOM      4  C   LIG    1       23.894 -17.956   3.856  0.00  0.00    +0.000 A 
ATOM      5  C   LIG    1       22.651 -17.941   4.478  0.00  0.00    +0.000 A 
ATOM      6  C   LIG    1       22.077 -16.727   4.844  0.00  0.00    +0.000 A 
ATOM      7  C   LIG    1       22.763 -15.527   4.623  0.00  0.00    +0.005 A 
ENDBRANCH   1   2
BRANCH   1   9
ATOM      8  C   LIG    1       26.432 -14.020   1.833  0.00  0.00    +0.009 C 
ATOM      9  C   LIG    1       25.016 -13.836   2.412  0.00  0.00    +0.007 C 
ATOM     10  C   LIG    1       24.547 -12.412   2.042  0.00  0.00    +0.009 C 
ENDBRANCH   1   9
BRANCH   1  11
ATOM     11  C   LIG    1       24.193 -13.061   4.649  0.00  0.00    +0.074 C 
ATOM     12  N   LIG    1       23.680 -12.178   5.190  0.00  0.00    -0.196 NA
ENDBRANCH   1  11
BRANCH   1  13
ATOM     13  C   LIG    1       26.320 -14.341   4.601  0.00  0.00    +0.045 C 
BRANCH  13  14
ATOM     14  C   LIG    1       26.955 -13.140   5.391  0.00  0.00    +0.055 C 
ATOM     15  C   LIG    1       27.318 -13.518   6.833  0.00  0.00    +0.024 C 
BRANCH  14  16
ATOM     16  N   LIG    1       28.104 -12.540   4.643  0.00  0.00    -0.306 NA
ATOM     17  C   LIG    1       28.730 -13.417   3.655  0.00  0.00    +0.105 C 
ATOM     18  C   LIG    1       29.134 -11.954   5.510  0.00  0.00    +0.105 C 
ENDBRANCH  14  16
ENDBRANCH  13  14
ENDBRANCH   1  13
TORSDOF 6
ENDMDL
MODEL 4
REMARK VINA RESULT:      -1.2      3.343      5.649
REMARK  Name = *****
REMARK                            x       y       z     vdW  Elec       q    Type
REMARK                         _______ _______ _______ _____ _____    ______ ____
ROOT
ATOM      1  C   LIG    1       24.988 -14.052   4.024  0.00  0.00    +0.086 C 
ENDROOT
BRANCH   1   2
ATOM      2  C   LIG    1       26.467 -13.600   4.159  0.00  0.00    -0.027 A 
ATOM      3  C   LIG    1       27.290 -13.390   3.031  0.00  0.00    +0.005 A 
ATOM      4  C   LIG    1       28.573 -12.852   3.153  0.00  0.00    +0.000 A 
ATOM      5  C   LIG    1       29.067 -12.508   4.406  0.00  0.00    +0.000 A 
ATOM      6  C   LIG    1       28.300 -12.751   5.541  0.00  0.00    +0.000 A 
ATOM      7  C   LIG    1       27.020 -13.303   5.422  0.00  0.00    +0.005 A 
ENDBRANCH   1   2
BRANCH   1   9
ATOM      8  C   LIG    1       22.940 -14.224   5.697  0.00  0.00    +0.009 C 
ATOM      9  C   LIG    1       24.188 -13.428   5.269  0.00  0.00    +0.007 C 
ATOM     10  C   LIG    1       23.756 -11.956   5.086  0.00  0.00    +0.009 C 
ENDBRANCH   1   9
BRANCH   1  11
ATOM     11  C   LIG    1       24.351 -13.542   2.770  0.00  0.00    +0.074 C 
ATOM     12  N   LIG    1       23.845 -13.137   1.814  0.00  0.00    -0.196 NA
ENDBRANCH   1  11
BRANCH   1  13
ATOM     13  C   LIG    1       24.821 -15.625   4.038  0.00  0.00    +0.045 C 
BRANCH  13  14
ATOM     14  C   LIG    1       25.838 -16.535   3.259  0.00  0.00    +0.055 C 
ATOM     15  C   LIG    1       27.261 -16.436   3.825  0.00  0.00    +0.024 C 
BRANCH  14  16
ATOM     16  N   LIG    1       25.349 -17.946   3.168  0.00  0.00    -0.306 NA
ATOM     17  C   LIG    1       23.990 -18.168   3.657  0.00  0.00    +0.105 C 
ATOM     18  C   LIG    1       26.260 -18.929   3.770  0.00  0.00    +0.105 C 
ENDBRANCH  14  16
ENDBRANCH  13  14
ENDBRANCH   1  13
TORSDOF 6
ENDMDL
MODEL 5
REMARK VINA RESULT:      -1.1      3.782      6.040
REMARK  Name = *****
REMARK                            x       y       z     vdW  Elec       q    Type
REMARK                         _______ _______ _______ _____ _____    ______ ____
ROOT
ATOM      1  C   LIG    1       24.917 -14.335   4.037  0.00  0.00    +0.086 C 
ENDROOT
BRANCH   1   2
ATOM      2  C   LIG    1       24.036 -15.595   4.246  0.00  0.00    -0.027 A 
ATOM      3  C   LIG    1       22.747 -15.518   4.818  0.00  0.00    +0.005 A 
ATOM      4  C   LIG    1       21.905 -16.633   4.875  0.00  0.00    +0.000 A 
ATOM      5  C   LIG    1       22.330 -17.852   4.362  0.00  0.00    +0.000 A 
ATOM      6  C   LIG    1       23.614 -17.971   3.838  0.00  0.00    +0.000 A 
ATOM      7  C   LIG    1       24.463 -16.860   3.793  0.00  0.00    +0.005 A 
ENDBRANCH   1   2
BRANCH   1   9
ATOM      8  C   LIG    1       24.885 -12.894   1.814  0.00  0.00    +0.009 C 
ATOM      9  C   LIG    1       24.106 -13.349   3.063  0.00  0.00    +0.007 C 
ATOM     10  C   LIG    1       23.550 -12.081   3.747  0.00  0.00    +0.009 C 
ENDBRANCH   1   9
BRANCH   1  11
ATOM     11  C   LIG    1       25.175 -13.604   5.315  0.00  0.00    +0.074 C 
ATOM     12  N   LIG    1       25.396 -13.040   6.300  0.00  0.00    -0.196 NA
ENDBRANCH   1  11
BRANCH   1  13
ATOM     13  C   LIG    1       26.320 -14.667   3.386  0.00  0.00    +0.045 C 
BRANCH  13  14
ATOM     14  C   LIG    1       27.612 -14.731   4.279  0.00  0.00    +0.055 C 
ATOM     15  C   LIG    1       28.272 -16.115   4.252  0.00  0.00    +0.024 C 
BRANCH  14  16
ATOM     16  N   LIG    1       28.565 -13.628   3.941  0.00  0.00    -0.306 NA
ATOM     17  C   LIG    1       28.724 -12.603   4.970  0.00  0.00    +0.105 C 
ATOM     18  C   LIG    1       28.297 -12.991   2.644  0.00  0.00    +0.105 C 
ENDBRANCH  14  16
ENDBRANCH  13  14
ENDBRANCH   1  13
TORSDOF 6
ENDMDL
MODEL 6
REMARK VINA RESULT:      -0.8      3.933      6.550
REMARK  Name = *****
REMARK                            x       y       z     vdW  Elec       q    Type
REMARK                         _______ _______ _______ _____ _____    ______ ____
ROOT
ATOM      1  C   LIG    1       24.750 -13.320   4.337  0.00  0.00    +0.086 C 
ENDROOT
BRANCH   1   2
ATOM      2  C   LIG    1       24.092 -14.723   4.421  0.00  0.00    -0.027 A 
ATOM      3  C   LIG    1       22.842 -14.925   5.048  0.00  0.00    +0.005 A 
ATOM      4  C   LIG    1       22.192 -16.161   4.998  0.00  0.00    +0.000 A 
ATOM      5  C   LIG    1       22.772 -17.226   4.319  0.00  0.00    +0.000 A 
ATOM      6  C   LIG    1       24.026 -17.071   3.736  0.00  0.00    +0.000 A 
ATOM      7  C   LIG    1       24.685 -15.839   3.796  0.00  0.00    +0.005 A 
ENDBRANCH   1   2
BRANCH   1   9
ATOM      8  C   LIG    1       25.202 -11.477   2.488  0.00  0.00    +0.009 C 
ATOM      9  C   LIG    1       24.893 -12.958   2.779  0.00  0.00    +0.007 C 
ATOM     10  C   LIG    1       23.678 -13.354   1.911  0.00  0.00    +0.009 C 
ENDBRANCH   1   9
BRANCH   1  11
ATOM     11  C   LIG    1       23.911 -12.259   4.977  0.00  0.00    +0.074 C 
ATOM     12  N   LIG    1       23.269 -11.448   5.491  0.00  0.00    -0.196 NA
ENDBRANCH   1  11
BRANCH   1  13
ATOM     13  C   LIG    1       26.179 -13.269   5.013  0.00  0.00    +0.045 C 
BRANCH  13  14
ATOM     14  C   LIG    1       27.455 -12.969   4.146  0.00  0.00    +0.055 C 
ATOM     15  C   LIG    1       28.569 -12.300   4.960  0.00  0.00    +0.024 C 
BRANCH  14  16
ATOM     16  N   LIG    1       27.922 -14.192   3.420  0.00  0.00    -0.306 NA
ATOM     17  C   LIG    1       27.330 -14.398   2.100  0.00  0.00    +0.105 C 
ATOM     18  C   LIG    1       27.815 -15.426   4.210  0.00  0.00    +0.105 C 
ENDBRANCH  14  16
ENDBRANCH  13  14
ENDBRANCH   1  13
TORSDOF 6
ENDMDL
MODEL 7
REMARK VINA RESULT:      -0.5      1.990      4.895
REMARK  Name = *****
REMARK                            x       y       z     vdW  Elec       q    Type
REMARK                         _______ _______ _______ _____ _____    ______ ____
ROOT
ATOM      1  C   LIG    1       25.030 -20.078   5.111  0.00  0.00    +0.086 C 
ENDROOT
BRANCH   1   2
ATOM      2  C   LIG    1       26.503 -20.206   5.583  0.00  0.00    -0.027 A 
ATOM      3  C   LIG    1       27.498 -19.287   5.180  0.00  0.00    +0.005 A 
ATOM      4  C   LIG    1       28.788 -19.326   5.717  0.00  0.00    +0.000 A 
ATOM      5  C   LIG    1       29.116 -20.282   6.670  0.00  0.00    +0.000 A 
ATOM      6  C   LIG    1       28.172 -21.232   7.049  0.00  0.00    +0.000 A 
ATOM      7  C   LIG    1       26.885 -21.204   6.502  0.00  0.00    +0.005 A 
ENDBRANCH   1   2
BRANCH   1   9
ATOM      8  C   LIG    1       25.131 -19.836   2.474  0.00  0.00    +0.009 C 
ATOM      9  C   LIG    1       24.932 -20.785   3.673  0.00  0.00    +0.007 C 
ATOM     10  C   LIG    1       23.626 -21.570   3.427  0.00  0.00    +0.009 C 
ENDBRANCH   1   9
BRANCH   1  11
ATOM     11  C   LIG    1       24.077 -20.776   6.029  0.00  0.00    +0.074 C 
ATOM     12  N   LIG    1       23.353 -21.333   6.735  0.00  0.00    -0.196 NA
ENDBRANCH   1  11
BRANCH   1  13
ATOM     13  C   LIG    1       24.553 -18.575   4.982  0.00  0.00    +0.045 C 
BRANCH  13  14
ATOM     14  C   LIG    1       23.292 -18.216   4.116  0.00  0.00    +0.055 C 
ATOM     15  C   LIG    1       22.009 -18.853   4.663  0.00  0.00    +0.024 C 
BRANCH  14  16
ATOM     16  N   LIG    1       23.167 -16.738   3.920  0.00  0.00    -0.306 NA
ATOM     17  C   LIG    1       24.431 -16.012   3.825  0.00  0.00    +0.105 C 
ATOM     18  C   LIG    1       22.291 -16.083   4.901  0.00  0.00    +0.105 C 
ENDBRANCH  14  16
ENDBRANCH  13  14
ENDBRANCH   1  13
TORSDOF 6
ENDMDL
MODEL 8
REMARK VINA RESULT:      -0.1      2.260      5.141
REMARK  Name = *****
REMARK                            x       y       z     vdW  Elec       q    Type
REMARK                         _______ _______ _______ _____ _____    ______ ____
ROOT
ATOM      1  C   LIG    1       24.479 -20.141   4.789  0.00  0.00    +0.086 C 
ENDROOT
BRANCH   1   2
ATOM      2  C   LIG    1       25.891 -20.077   5.431  0.00  0.00    -0.027 A 
ATOM      3  C   LIG    1       26.226 -20.837   6.573  0.00  0.00    +0.005 A 
ATOM      4  C   LIG    1       27.535 -20.881   7.062  0.00  0.00    +0.000 A 
ATOM      5  C   LIG    1       28.542 -20.169   6.422  0.00  0.00    +0.000 A 
ATOM      6  C   LIG    1       28.231 -19.370   5.325  0.00  0.00    +0.000 A 
ATOM      7  C   LIG    1       26.919 -19.313   4.842  0.00  0.00    +0.005 A 
ENDBRANCH   1   2
BRANCH   1   9
ATOM      8  C   LIG    1       25.233 -20.115   2.248  0.00  0.00    +0.009 C 
ATOM      9  C   LIG    1       24.628 -20.938   3.402  0.00  0.00    +0.007 C 
ATOM     10  C   LIG    1       23.320 -21.572   2.879  0.00  0.00    +0.009 C 
ENDBRANCH   1   9
BRANCH   1  11
ATOM     11  C   LIG    1       23.500 -20.885   5.640  0.00  0.00    +0.074 C 
ATOM     12  N   LIG    1       22.761 -21.470   6.308  0.00  0.00    -0.196 NA
ENDBRANCH   1  11
BRANCH   1  13
ATOM     13  C   LIG    1       23.869 -18.710   4.500  0.00  0.00    +0.045 C 
BRANCH  13  14
ATOM     14  C   LIG    1       22.355 -18.419   4.807  0.00  0.00    +0.055 C 
ATOM     15  C   LIG    1       22.104 -16.947   5.157  0.00  0.00    +0.024 C 
BRANCH  14  16
ATOM     16  N   LIG    1       21.470 -18.912   3.707  0.00  0.00    -0.306 NA
ATOM     17  C   LIG    1       20.613 -17.898   3.094  0.00  0.00    +0.105 C 
ATOM     18  C   LIG    1       20.666 -20.085   4.074  0.00  0.00    +0.105 C 
ENDBRANCH  14  16
ENDBRANCH  13  14
ENDBRANCH   1  13
TORSDOF 6
ENDMDL
MODEL 9
REMARK VINA RESULT:      -0.1      3.694      5.979
REMARK  Name = *****
REMARK                            x       y       z     vdW  Elec       q    Type
REMARK                         _______ _______ _______ _____ _____    ______ ____
ROOT
ATOM      1  C   LIG    1       24.828 -13.300   3.538  0.00  0.00    +0.086 C 
ENDROOT
BRANCH   1   2
ATOM      2  C   LIG    1       26.335 -13.098   3.851  0.00  0.00    -0.027 A 
ATOM      3  C   LIG    1       26.833 -13.124   5.172  0.00  0.00    +0.005 A 
ATOM      4  C   LIG    1       28.205 -13.081   5.435  0.00  0.00    +0.000 A 
ATOM      5  C   LIG    1       29.114 -13.012   4.386  0.00  0.00    +0.000 A 
ATOM      6  C   LIG    1       28.650 -12.933   3.076  0.00  0.00    +0.000 A 
ATOM      7  C   LIG    1       27.277 -12.962   2.811  0.00  0.00    +0.005 A 
ENDBRANCH   1   2
BRANCH   1   9
ATOM      8  C   LIG    1       22.810 -14.020   5.098  0.00  0.00    +0.009 C 
ATOM      9  C   LIG    1       24.029 -13.094   4.917  0.00  0.00    +0.007 C 
ATOM     10  C   LIG    1       23.553 -11.649   5.176  0.00  0.00    +0.009 C 
ENDBRANCH   1   9
BRANCH   1  11
ATOM     11  C   LIG    1       24.311 -12.297   2.557  0.00  0.00    +0.074 C 
ATOM     12  N   LIG    1       23.895 -11.518   1.812  0.00  0.00    -0.196 NA
ENDBRANCH   1  11
BRANCH   1  13
ATOM     13  C   LIG    1       24.506 -14.738   2.964  0.00  0.00    +0.045 C 
BRANCH  13  14
ATOM     14  C   LIG    1       24.820 -16.020   3.817  0.00  0.00    +0.055 C 
ATOM     15  C   LIG    1       23.563 -16.849   4.108  0.00  0.00    +0.024 C 
BRANCH  14  16
ATOM     16  N   LIG    1       25.918 -16.830   3.203  0.00  0.00    -0.306 NA
ATOM     17  C   LIG    1       25.755 -18.279   3.302  0.00  0.00    +0.105 C 
ATOM     18  C   LIG    1       27.261 -16.450   3.660  0.00  0.00    +0.105 C 
ENDBRANCH  14  16
ENDBRANCH  13  14
ENDBRANCH   1  13
TORSDOF 6
ENDMDL
