MODEL 1
REMARK VINA RESULT:      -6.7      0.000      0.000
REMARK  Name = *****
REMARK                            x       y       z     vdW  Elec       q    Type
REMARK                         _______ _______ _______ _____ _____    ______ ____
ROOT
ATOM      1  C   LIG    1       25.038 -20.614   4.930  0.00  0.00    +0.105 C 
ATOM      2  N   LIG    1       25.505 -20.382   6.284  0.00  0.00    -0.298 NA
ATOM      3  C   LIG    1       24.898 -21.210   7.338  0.00  0.00    +0.088 C 
ATOM      4  C   LIG    1       25.816 -20.910   8.530  0.00  0.00    +0.025 C 
ATOM      5  C   LIG    1       27.165 -20.519   7.930  0.00  0.00    +0.017 C 
ATOM      6  C   LIG    1       26.952 -20.481   6.424  0.00  0.00    +0.085 C 
ENDROOT
BRANCH   3   7
ATOM      7  C   LIG    1       24.729 -22.685   7.024  0.00  0.00    -0.012 A 
ATOM      8  C   LIG    1       23.496 -23.296   6.811  0.00  0.00    +0.115 A 
ATOM      9  N   LIG    1       23.327 -24.612   6.534  0.00  0.00    -0.263 NA
ATOM     10  C   LIG    1       24.442 -25.367   6.467  0.00  0.00    +0.111 A 
ATOM     11  C   LIG    1       25.717 -24.870   6.665  0.00  0.00    +0.020 A 
ATOM     12  C   LIG    1       25.858 -23.514   6.948  0.00  0.00    +0.008 A 
ENDBRANCH   3   7
TORSDOF 1
ENDMDL
MODEL 2
REMARK VINA RESULT:      -6.7      1.731      4.170
REMARK  Name = *****
REMARK                            x       y       z     vdW  Elec       q    Type
REMARK                         _______ _______ _______ _____ _____    ______ ____
ROOT
ATOM      1  C   LIG    1       25.685 -20.682   8.175  0.00  0.00    +0.105 C 
ATOM      2  N   LIG    1       25.140 -21.997   7.891  0.00  0.00    -0.298 NA
ATOM      3  C   LIG    1       23.897 -22.036   7.106  0.00  0.00    +0.088 C 
ATOM      4  C   LIG    1       23.799 -23.527   6.762  0.00  0.00    +0.025 C 
ATOM      5  C   LIG    1       25.232 -24.056   6.777  0.00  0.00    +0.017 C 
ATOM      6  C   LIG    1       26.094 -22.895   7.252  0.00  0.00    +0.085 C 
ENDROOT
BRANCH   3   7
ATOM      7  C   LIG    1       23.824 -21.104   5.911  0.00  0.00    -0.012 A 
ATOM      8  C   LIG    1       24.710 -21.150   4.837  0.00  0.00    +0.115 A 
ATOM      9  N   LIG    1       24.663 -20.325   3.764  0.00  0.00    -0.263 NA
ATOM     10  C   LIG    1       23.684 -19.397   3.753  0.00  0.00    +0.111 A 
ATOM     11  C   LIG    1       22.753 -19.255   4.765  0.00  0.00    +0.020 A 
ATOM     12  C   LIG    1       22.827 -20.119   5.854  0.00  0.00    +0.008 A 
ENDBRANCH   3   7
TORSDOF 1
ENDMDL
MODEL 3
REMARK VINA RESULT:      -6.3      1.048      1.502
REMARK  Name = *****
REMARK                            x       y       z     vdW  Elec       q    Type
REMARK                         _______ _______ _______ _____ _____    ______ ____
ROOT
ATOM      1  C   LIG    1       24.308 -20.987   4.801  0.00  0.00    +0.105 C 
ATOM      2  N   LIG    1       24.858 -20.648   6.101  0.00  0.00    -0.298 NA
ATOM      3  C   LIG    1       24.591 -21.597   7.193  0.00  0.00    +0.088 C 
ATOM      4  C   LIG    1       25.542 -21.084   8.282  0.00  0.00    +0.025 C 
ATOM      5  C   LIG    1       26.682 -20.383   7.547  0.00  0.00    +0.017 C 
ATOM      6  C   LIG    1       26.294 -20.398   6.075  0.00  0.00    +0.085 C 
ENDROOT
BRANCH   3   7
ATOM      7  C   LIG    1       24.744 -23.069   6.861  0.00  0.00    -0.012 A 
ATOM      8  C   LIG    1       25.973 -23.711   6.733  0.00  0.00    +0.115 A 
ATOM      9  N   LIG    1       26.129 -25.024   6.433  0.00  0.00    -0.263 NA
ATOM     10  C   LIG    1       25.003 -25.742   6.246  0.00  0.00    +0.111 A 
ATOM     11  C   LIG    1       23.731 -25.211   6.344  0.00  0.00    +0.020 A 
ATOM     12  C   LIG    1       23.604 -23.859   6.653  0.00  0.00    +0.008 A 
ENDBRANCH   3   7
TORSDOF 1
ENDMDL
MODEL 4
REMARK VINA RESULT:      -6.2      1.695      3.962
REMARK  Name = *****
REMARK                            x       y       z     vdW  Elec       q    Type
REMARK                         _______ _______ _______ _____ _____    ______ ____
ROOT
ATOM      1  C   LIG    1       25.673 -20.689   8.258  0.00  0.00    +0.105 C 
ATOM      2  N   LIG    1       25.179 -22.013   7.931  0.00  0.00    -0.298 NA
ATOM      3  C   LIG    1       23.935 -22.074   7.148  0.00  0.00    +0.088 C 
ATOM      4  C   LIG    1       23.894 -23.556   6.753  0.00  0.00    +0.025 C 
ATOM      5  C   LIG    1       25.347 -24.028   6.748  0.00  0.00    +0.017 C 
ATOM      6  C   LIG    1       26.165 -22.851   7.260  0.00  0.00    +0.085 C 
ENDROOT
BRANCH   3   7
ATOM      7  C   LIG    1       23.823 -21.106   5.985  0.00  0.00    -0.012 A 
ATOM      8  C   LIG    1       22.842 -20.121   5.888  0.00  0.00    +0.115 A 
ATOM      9  N   LIG    1       22.723 -19.252   4.855  0.00  0.00    -0.263 NA
ATOM     10  C   LIG    1       23.626 -19.364   3.859  0.00  0.00    +0.111 A 
ATOM     11  C   LIG    1       24.639 -20.305   3.847  0.00  0.00    +0.020 A 
ATOM     12  C   LIG    1       24.734 -21.184   4.922  0.00  0.00    +0.008 A 
ENDBRANCH   3   7
TORSDOF 1
ENDMDL
MODEL 5
REMARK VINA RESULT:      -6.0      1.817      4.033
REMARK  Name = *****
REMARK                            x       y       z     vdW  Elec       q    Type
REMARK                         _______ _______ _______ _____ _____    ______ ____
ROOT
ATOM      1  C   LIG    1       25.052 -23.403   5.812  0.00  0.00    +0.105 C 
ATOM      2  N   LIG    1       25.805 -22.515   6.678  0.00  0.00    -0.298 NA
ATOM      3  C   LIG    1       26.091 -21.172   6.150  0.00  0.00    +0.088 C 
ATOM      4  C   LIG    1       26.608 -20.455   7.404  0.00  0.00    +0.025 C 
ATOM      5  C   LIG    1       25.970 -21.173   8.591  0.00  0.00    +0.017 C 
ATOM      6  C   LIG    1       25.213 -22.354   7.999  0.00  0.00    +0.085 C 
ENDROOT
BRANCH   3   7
ATOM      7  C   LIG    1       24.947 -20.467   5.445  0.00  0.00    -0.012 A 
ATOM      8  C   LIG    1       25.062 -19.863   4.194  0.00  0.00    +0.115 A 
ATOM      9  N   LIG    1       24.054 -19.226   3.551  0.00  0.00    -0.263 NA
ATOM     10  C   LIG    1       22.863 -19.181   4.183  0.00  0.00    +0.111 A 
ATOM     11  C   LIG    1       22.634 -19.741   5.426  0.00  0.00    +0.020 A 
ATOM     12  C   LIG    1       23.690 -20.389   6.061  0.00  0.00    +0.008 A 
ENDBRANCH   3   7
TORSDOF 1
ENDMDL
MODEL 6
REMARK VINA RESULT:      -6.0      1.481      4.317
REMARK  Name = *****
REMARK                            x       y       z     vdW  Elec       q    Type
REMARK                         _______ _______ _______ _____ _____    ______ ____
ROOT
ATOM      1  C   LIG    1       25.754 -23.707   7.232  0.00  0.00    +0.105 C 
ATOM      2  N   LIG    1       24.638 -22.778   7.217  0.00  0.00    -0.298 NA
ATOM      3  C   LIG    1       24.921 -21.408   7.670  0.00  0.00    +0.088 C 
ATOM      4  C   LIG    1       23.643 -20.675   7.242  0.00  0.00    +0.025 C 
ATOM      5  C   LIG    1       23.084 -21.463   6.059  0.00  0.00    +0.017 C 
ATOM      6  C   LIG    1       23.977 -22.688   5.921  0.00  0.00    +0.085 C 
ENDROOT
BRANCH   3   7
ATOM      7  C   LIG    1       26.208 -20.782   7.166  0.00  0.00    -0.012 A 
ATOM      8  C   LIG    1       26.418 -20.400   5.842  0.00  0.00    +0.115 A 
ATOM      9  N   LIG    1       27.561 -19.844   5.373  0.00  0.00    -0.263 NA
ATOM     10  C   LIG    1       28.556 -19.657   6.265  0.00  0.00    +0.111 A 
ATOM     11  C   LIG    1       28.462 -20.001   7.601  0.00  0.00    +0.020 A 
ATOM     12  C   LIG    1       27.274 -20.570   8.052  0.00  0.00    +0.008 A 
ENDBRANCH   3   7
TORSDOF 1
ENDMDL
MODEL 7
REMARK VINA RESULT:      -6.0      1.636      4.071
REMARK  Name = *****
REMARK                            x       y       z     vdW  Elec       q    Type
REMARK                         _______ _______ _______ _____ _____    ______ ____
ROOT
ATOM      1  C   LIG    1       23.101 -20.640   6.195  0.00  0.00    +0.105 C 
ATOM      2  N   LIG    1       23.408 -22.031   5.917  0.00  0.00    -0.298 NA
ATOM      3  C   LIG    1       24.813 -22.345   5.618  0.00  0.00    +0.088 C 
ATOM      4  C   LIG    1       24.804 -23.877   5.678  0.00  0.00    +0.025 C 
ATOM      5  C   LIG    1       23.658 -24.253   6.616  0.00  0.00    +0.017 C 
ATOM      6  C   LIG    1       22.965 -22.943   6.964  0.00  0.00    +0.085 C 
ENDROOT
BRANCH   3   7
ATOM      7  C   LIG    1       25.855 -21.683   6.500  0.00  0.00    -0.012 A 
ATOM      8  C   LIG    1       26.052 -22.004   7.841  0.00  0.00    +0.115 A 
ATOM      9  N   LIG    1       26.974 -21.421   8.645  0.00  0.00    -0.263 NA
ATOM     10  C   LIG    1       27.745 -20.463   8.091  0.00  0.00    +0.111 A 
ATOM     11  C   LIG    1       27.636 -20.061   6.773  0.00  0.00    +0.020 A 
ATOM     12  C   LIG    1       26.679 -20.678   5.973  0.00  0.00    +0.008 A 
ENDBRANCH   3   7
TORSDOF 1
ENDMDL
MODEL 8
REMARK VINA RESULT:      -5.9      1.757      4.085
REMARK  Name = *****
REMARK                            x       y       z     vdW  Elec       q    Type
REMARK                         _______ _______ _______ _____ _____    ______ ____
ROOT
ATOM      1  C   LIG    1       25.149 -23.707   5.735  0.00  0.00    +0.105 C 
ATOM      2  N   LIG    1       24.253 -22.652   6.172  0.00  0.00    -0.298 NA
ATOM      3  C   LIG    1       24.732 -21.799   7.271  0.00  0.00    +0.088 C 
ATOM      4  C   LIG    1       23.699 -20.665   7.251  0.00  0.00    +0.025 C 
ATOM      5  C   LIG    1       23.174 -20.604   5.818  0.00  0.00    +0.017 C 
ATOM      6  C   LIG    1       23.817 -21.776   5.092  0.00  0.00    +0.085 C 
ENDROOT
BRANCH   3   7
ATOM      7  C   LIG    1       26.176 -21.341   7.190  0.00  0.00    -0.012 A 
ATOM      8  C   LIG    1       27.187 -21.811   8.026  0.00  0.00    +0.115 A 
ATOM      9  N   LIG    1       28.480 -21.411   7.971  0.00  0.00    -0.263 NA
ATOM     10  C   LIG    1       28.792 -20.490   7.036  0.00  0.00    +0.111 A 
ATOM     11  C   LIG    1       27.872 -19.950   6.156  0.00  0.00    +0.020 A 
ATOM     12  C   LIG    1       26.551 -20.382   6.238  0.00  0.00    +0.008 A 
ENDBRANCH   3   7
TORSDOF 1
ENDMDL
MODEL 9
REMARK VINA RESULT:      -5.8      4.415      7.439
REMARK  Name = *****
REMARK                            x       y       z     vdW  Elec       q    Type
REMARK                         _______ _______ _______ _____ _____    ______ ____
ROOT
ATOM      1  C   LIG    1       29.485 -18.483   5.634  0.00  0.00    +0.105 C 
ATOM      2  N   LIG    1       29.432 -19.741   6.355  0.00  0.00    -0.298 NA
ATOM      3  C   LIG    1       30.470 -19.956   7.376  0.00  0.00    +0.088 C 
ATOM      4  C   LIG    1       29.933 -21.196   8.101  0.00  0.00    +0.025 C 
ATOM      5  C   LIG    1       28.418 -21.172   7.908  0.00  0.00    +0.017 C 
ATOM      6  C   LIG    1       28.140 -20.000   6.977  0.00  0.00    +0.085 C 
ENDROOT
BRANCH   3   7
ATOM      7  C   LIG    1       30.780 -18.778   8.281  0.00  0.00    -0.012 A 
ATOM      8  C   LIG    1       31.922 -17.990   8.164  0.00  0.00    +0.115 A 
ATOM      9  N   LIG    1       32.217 -16.938   8.966  0.00  0.00    -0.263 NA
ATOM     10  C   LIG    1       31.331 -16.651   9.942  0.00  0.00    +0.111 A 
ATOM     11  C   LIG    1       30.168 -17.365  10.154  0.00  0.00    +0.020 A 
ATOM     12  C   LIG    1       29.893 -18.441   9.314  0.00  0.00    +0.008 A 
ENDBRANCH   3   7
TORSDOF 1
ENDMDL
