MODEL 1
REMARK VINA RESULT:      -5.8      0.000      0.000
REMARK  Name = *****
REMARK                            x       y       z     vdW  Elec       q    Type
REMARK                         _______ _______ _______ _____ _____    ______ ____
ROOT
ATOM      1  O   LIG    1       25.818 -18.670   3.363  0.00  0.00    -0.489 OA
ENDROOT
BRANCH   1   2
ATOM      2  C   LIG    1       24.893 -19.298   4.158  0.00  0.00    +0.130 C 
ATOM      3  C   LIG    1       25.368 -20.072   5.244  0.00  0.00    +0.041 C 
ATOM      4  C   LIG    1       24.459 -20.695   6.095  0.00  0.00    +0.050 C 
ATOM      5  N   LIG    1       25.184 -21.368   7.060  0.00  0.00    -0.360 NA
ATOM      6  H   LIG    1       24.783 -21.910   7.808  0.00  0.00    +0.165 HD
ATOM      7  C   LIG    1       26.528 -21.190   6.848  0.00  0.00    +0.083 C 
ATOM      8  C   LIG    1       23.071 -20.602   5.925  0.00  0.00    +0.026 C 
ATOM      9  C   LIG    1       22.618 -19.871   4.817  0.00  0.00    +0.006 C 
ATOM     10  C   LIG    1       26.672 -20.396   5.735  0.00  0.00    +0.031 C 
ATOM     11  C   LIG    1       23.503 -19.242   3.953  0.00  0.00    +0.046 C 
ENDBRANCH   1   2
BRANCH   1  12
ATOM     12  C   LIG    1       25.664 -17.249   3.223  0.00  0.00    +0.261 C 
BRANCH  12  13
ATOM     13  C   LIG    1       26.849 -16.564   3.925  0.00  0.00    +0.166 C 
BRANCH  13  14
ATOM     14  O   LIG    1       28.031 -17.379   3.857  0.00  0.00    -0.387 OA
ATOM     15  H   LIG    1       27.724 -18.276   3.606  0.00  0.00    +0.210 HD
ENDBRANCH  13  14
BRANCH  13  16
ATOM     16  C   LIG    1       27.161 -15.191   3.300  0.00  0.00    +0.115 C 
BRANCH  16  17
ATOM     17  N   LIG    1       26.005 -14.682   2.544  0.00  0.00    -0.311 NA
ATOM     18  H   LIG    1       26.363 -14.368   1.635  0.00  0.00    +0.122 HD
BRANCH  17  20
ATOM     19  C   LIG    1       24.806 -12.609   2.120  0.00  0.00    +0.024 C 
ATOM     20  C   LIG    1       25.312 -13.570   3.202  0.00  0.00    +0.048 C 
ATOM     21  C   LIG    1       24.127 -14.043   4.047  0.00  0.00    +0.024 C 
ENDBRANCH  17  20
ENDBRANCH  16  17
ENDBRANCH  13  16
ENDBRANCH  12  13
ENDBRANCH   1  12
TORSDOF 7
ENDMDL
MODEL 2
REMARK VINA RESULT:      -5.5      1.609      1.742
REMARK  Name = *****
REMARK                            x       y       z     vdW  Elec       q    Type
REMARK                         _______ _______ _______ _____ _____    ______ ____
ROOT
ATOM      1  O   LIG    1       26.192 -17.507   3.107  0.00  0.00    -0.489 OA
ENDROOT
BRANCH   1   2
ATOM      2  C   LIG    1       25.550 -18.563   3.701  0.00  0.00    +0.130 C 
ATOM      3  C   LIG    1       26.284 -19.355   4.617  0.00  0.00    +0.041 C 
ATOM      4  C   LIG    1       25.657 -20.414   5.268  0.00  0.00    +0.050 C 
ATOM      5  N   LIG    1       26.589 -21.003   6.101  0.00  0.00    -0.360 NA
ATOM      6  H   LIG    1       26.411 -21.797   6.694  0.00  0.00    +0.165 HD
ATOM      7  C   LIG    1       27.790 -20.348   6.000  0.00  0.00    +0.083 C 
ATOM      8  C   LIG    1       24.313 -20.751   5.053  0.00  0.00    +0.026 C 
ATOM      9  C   LIG    1       23.614 -19.988   4.106  0.00  0.00    +0.006 C 
ATOM     10  C   LIG    1       27.633 -19.328   5.092  0.00  0.00    +0.031 C 
ATOM     11  C   LIG    1       24.217 -18.928   3.444  0.00  0.00    +0.046 C 
ENDBRANCH   1   2
BRANCH   1  12
ATOM     12  C   LIG    1       25.630 -16.209   3.359  0.00  0.00    +0.261 C 
BRANCH  12  13
ATOM     13  C   LIG    1       26.766 -15.173   3.306  0.00  0.00    +0.166 C 
BRANCH  13  14
ATOM     14  O   LIG    1       26.821 -14.532   2.021  0.00  0.00    -0.387 OA
ATOM     15  H   LIG    1       26.861 -13.570   2.203  0.00  0.00    +0.210 HD
ENDBRANCH  13  14
BRANCH  13  16
ATOM     16  C   LIG    1       26.597 -14.091   4.389  0.00  0.00    +0.115 C 
BRANCH  16  17
ATOM     17  N   LIG    1       25.173 -13.814   4.639  0.00  0.00    -0.311 NA
ATOM     18  H   LIG    1       24.647 -14.611   4.262  0.00  0.00    +0.122 HD
BRANCH  17  20
ATOM     19  C   LIG    1       23.849 -12.950   2.791  0.00  0.00    +0.024 C 
ATOM     20  C   LIG    1       24.693 -12.577   4.015  0.00  0.00    +0.048 C 
ATOM     21  C   LIG    1       23.846 -11.735   4.971  0.00  0.00    +0.024 C 
ENDBRANCH  17  20
ENDBRANCH  16  17
ENDBRANCH  13  16
ENDBRANCH  12  13
ENDBRANCH   1  12
TORSDOF 7
ENDMDL
MODEL 3
REMARK VINA RESULT:      -5.4      1.787      6.346
REMARK  Name = *****
REMARK                            x       y       z     vdW  Elec       q    Type
REMARK                         _______ _______ _______ _____ _____    ______ ____
ROOT
ATOM      1  O   LIG    1       25.593 -17.182   3.269  0.00  0.00    -0.489 OA
ENDROOT
BRANCH   1   2
ATOM      2  C   LIG    1       25.227 -15.914   3.642  0.00  0.00    +0.130 C 
ATOM      3  C   LIG    1       26.243 -14.932   3.737  0.00  0.00    +0.041 C 
ATOM      4  C   LIG    1       25.906 -13.624   4.076  0.00  0.00    +0.050 C 
ATOM      5  N   LIG    1       27.072 -12.882   4.088  0.00  0.00    -0.360 NA
ATOM      6  H   LIG    1       27.128 -11.901   4.304  0.00  0.00    +0.165 HD
ATOM      7  C   LIG    1       28.140 -13.680   3.764  0.00  0.00    +0.083 C 
ATOM      8  C   LIG    1       24.590 -13.221   4.344  0.00  0.00    +0.026 C 
ATOM      9  C   LIG    1       23.603 -14.217   4.293  0.00  0.00    +0.006 C 
ATOM     10  C   LIG    1       27.660 -14.949   3.543  0.00  0.00    +0.031 C 
ATOM     11  C   LIG    1       23.913 -15.527   3.958  0.00  0.00    +0.046 C 
ENDBRANCH   1   2
BRANCH   1  12
ATOM     12  C   LIG    1       24.686 -18.232   3.643  0.00  0.00    +0.261 C 
BRANCH  12  13
ATOM     13  C   LIG    1       25.397 -19.580   3.435  0.00  0.00    +0.166 C 
BRANCH  13  14
ATOM     14  O   LIG    1       26.450 -19.762   4.396  0.00  0.00    -0.387 OA
ATOM     15  H   LIG    1       27.170 -19.156   4.123  0.00  0.00    +0.210 HD
ENDBRANCH  13  14
BRANCH  13  16
ATOM     16  C   LIG    1       24.416 -20.761   3.550  0.00  0.00    +0.115 C 
BRANCH  16  17
ATOM     17  N   LIG    1       24.675 -21.544   4.770  0.00  0.00    -0.311 NA
ATOM     18  H   LIG    1       24.865 -22.506   4.468  0.00  0.00    +0.122 HD
BRANCH  17  20
ATOM     19  C   LIG    1       24.021 -20.856   7.009  0.00  0.00    +0.024 C 
ATOM     20  C   LIG    1       23.558 -21.544   5.720  0.00  0.00    +0.048 C 
ATOM     21  C   LIG    1       22.330 -20.813   5.173  0.00  0.00    +0.024 C 
ENDBRANCH  17  20
ENDBRANCH  16  17
ENDBRANCH  13  16
ENDBRANCH  12  13
ENDBRANCH   1  12
TORSDOF 7
ENDMDL
MODEL 4
REMARK VINA RESULT:      -5.3      1.870      6.515
REMARK  Name = *****
REMARK                            x       y       z     vdW  Elec       q    Type
REMARK                         _______ _______ _______ _____ _____    ______ ____
ROOT
ATOM      1  O   LIG    1       25.724 -16.727   2.869  0.00  0.00    -0.489 OA
ENDROOT
BRANCH   1   2
ATOM      2  C   LIG    1       26.236 -15.625   3.504  0.00  0.00    +0.130 C 
ATOM      3  C   LIG    1       25.344 -14.576   3.835  0.00  0.00    +0.041 C 
ATOM      4  C   LIG    1       25.819 -13.456   4.513  0.00  0.00    +0.050 C 
ATOM      5  N   LIG    1       24.750 -12.605   4.715  0.00  0.00    -0.360 NA
ATOM      6  H   LIG    1       24.803 -11.714   5.180  0.00  0.00    +0.165 HD
ATOM      7  C   LIG    1       23.608 -13.151   4.187  0.00  0.00    +0.083 C 
ATOM      8  C   LIG    1       27.163 -13.304   4.884  0.00  0.00    +0.026 C 
ATOM      9  C   LIG    1       28.042 -14.330   4.505  0.00  0.00    +0.006 C 
ATOM     10  C   LIG    1       23.943 -14.366   3.637  0.00  0.00    +0.031 C 
ATOM     11  C   LIG    1       27.593 -15.455   3.829  0.00  0.00    +0.046 C 
ENDBRANCH   1   2
BRANCH   1  12
ATOM     12  C   LIG    1       24.999 -17.649   3.699  0.00  0.00    +0.261 C 
BRANCH  12  13
ATOM     13  C   LIG    1       25.551 -19.062   3.445  0.00  0.00    +0.166 C 
BRANCH  13  14
ATOM     14  O   LIG    1       26.535 -19.418   4.431  0.00  0.00    -0.387 OA
ATOM     15  H   LIG    1       26.791 -20.342   4.231  0.00  0.00    +0.210 HD
ENDBRANCH  13  14
BRANCH  13  16
ATOM     16  C   LIG    1       24.431 -20.120   3.463  0.00  0.00    +0.115 C 
BRANCH  16  17
ATOM     17  N   LIG    1       24.448 -20.882   4.722  0.00  0.00    -0.311 NA
ATOM     18  H   LIG    1       24.650 -21.857   4.474  0.00  0.00    +0.122 HD
BRANCH  17  20
ATOM     19  C   LIG    1       23.508 -20.748   6.961  0.00  0.00    +0.024 C 
ATOM     20  C   LIG    1       23.184 -20.824   5.465  0.00  0.00    +0.048 C 
ATOM     21  C   LIG    1       22.336 -19.613   5.073  0.00  0.00    +0.024 C 
ENDBRANCH  17  20
ENDBRANCH  16  17
ENDBRANCH  13  16
ENDBRANCH  12  13
ENDBRANCH   1  12
TORSDOF 7
ENDMDL
MODEL 5
REMARK VINA RESULT:      -5.3      1.491      1.859
REMARK  Name = *****
REMARK                            x       y       z     vdW  Elec       q    Type
REMARK                         _______ _______ _______ _____ _____    ______ ____
ROOT
ATOM      1  O   LIG    1       25.540 -18.417   3.079  0.00  0.00    -0.489 OA
ENDROOT
BRANCH   1   2
ATOM      2  C   LIG    1       24.642 -19.022   3.920  0.00  0.00    +0.130 C 
ATOM      3  C   LIG    1       25.150 -19.872   4.933  0.00  0.00    +0.041 C 
ATOM      4  C   LIG    1       24.273 -20.476   5.830  0.00  0.00    +0.050 C 
ATOM      5  N   LIG    1       25.026 -21.234   6.705  0.00  0.00    -0.360 NA
ATOM      6  H   LIG    1       24.652 -21.783   7.461  0.00  0.00    +0.165 HD
ATOM      7  C   LIG    1       26.358 -21.128   6.393  0.00  0.00    +0.083 C 
ATOM      8  C   LIG    1       22.884 -20.292   5.776  0.00  0.00    +0.026 C 
ATOM      9  C   LIG    1       22.393 -19.486   4.738  0.00  0.00    +0.006 C 
ATOM     10  C   LIG    1       26.465 -20.295   5.304  0.00  0.00    +0.031 C 
ATOM     11  C   LIG    1       23.246 -18.874   3.832  0.00  0.00    +0.046 C 
ENDBRANCH   1   2
BRANCH   1  12
ATOM     12  C   LIG    1       26.238 -17.282   3.617  0.00  0.00    +0.261 C 
BRANCH  12  13
ATOM     13  C   LIG    1       25.564 -16.005   3.087  0.00  0.00    +0.166 C 
BRANCH  13  14
ATOM     14  O   LIG    1       24.508 -15.576   3.963  0.00  0.00    -0.387 OA
ATOM     15  H   LIG    1       23.943 -16.364   4.107  0.00  0.00    +0.210 HD
ENDBRANCH  13  14
BRANCH  13  16
ATOM     16  C   LIG    1       26.575 -14.853   2.933  0.00  0.00    +0.115 C 
BRANCH  16  17
ATOM     17  N   LIG    1       27.716 -15.029   3.846  0.00  0.00    -0.311 NA
ATOM     18  H   LIG    1       27.516 -15.862   4.411  0.00  0.00    +0.122 HD
BRANCH  17  20
ATOM     19  C   LIG    1       28.669 -12.794   3.937  0.00  0.00    +0.024 C 
ATOM     20  C   LIG    1       27.945 -13.884   4.734  0.00  0.00    +0.048 C 
ATOM     21  C   LIG    1       26.640 -13.315   5.293  0.00  0.00    +0.024 C 
ENDBRANCH  17  20
ENDBRANCH  16  17
ENDBRANCH  13  16
ENDBRANCH  12  13
ENDBRANCH   1  12
TORSDOF 7
ENDMDL
MODEL 6
REMARK VINA RESULT:      -5.2      1.880      3.011
REMARK  Name = *****
REMARK                            x       y       z     vdW  Elec       q    Type
REMARK                         _______ _______ _______ _____ _____    ______ ____
ROOT
ATOM      1  O   LIG    1       25.632 -17.120   3.070  0.00  0.00    -0.489 OA
ENDROOT
BRANCH   1   2
ATOM      2  C   LIG    1       25.341 -18.307   3.690  0.00  0.00    +0.130 C 
ATOM      3  C   LIG    1       23.988 -18.575   4.010  0.00  0.00    +0.041 C 
ATOM      4  C   LIG    1       23.647 -19.786   4.608  0.00  0.00    +0.050 C 
ATOM      5  N   LIG    1       22.279 -19.787   4.799  0.00  0.00    -0.360 NA
ATOM      6  H   LIG    1       21.757 -20.540   5.216  0.00  0.00    +0.165 HD
ATOM      7  C   LIG    1       21.739 -18.613   4.338  0.00  0.00    +0.083 C 
ATOM      8  C   LIG    1       24.594 -20.770   4.926  0.00  0.00    +0.026 C 
ATOM      9  C   LIG    1       25.935 -20.469   4.647  0.00  0.00    +0.006 C 
ATOM     10  C   LIG    1       22.768 -17.846   3.847  0.00  0.00    +0.031 C 
ATOM     11  C   LIG    1       26.300 -19.270   4.052  0.00  0.00    +0.046 C 
ENDBRANCH   1   2
BRANCH   1  12
ATOM     12  C   LIG    1       26.855 -16.483   3.475  0.00  0.00    +0.261 C 
BRANCH  12  13
ATOM     13  C   LIG    1       26.656 -14.960   3.390  0.00  0.00    +0.166 C 
BRANCH  13  14
ATOM     14  O   LIG    1       26.652 -14.515   2.023  0.00  0.00    -0.387 OA
ATOM     15  H   LIG    1       25.739 -14.659   1.697  0.00  0.00    +0.210 HD
ENDBRANCH  13  14
BRANCH  13  16
ATOM     16  C   LIG    1       25.336 -14.523   4.053  0.00  0.00    +0.115 C 
BRANCH  16  17
ATOM     17  N   LIG    1       25.297 -13.063   4.235  0.00  0.00    -0.311 NA
ATOM     18  H   LIG    1       25.380 -12.889   5.243  0.00  0.00    +0.122 HD
BRANCH  17  20
ATOM     19  C   LIG    1       23.566 -11.448   4.790  0.00  0.00    +0.024 C 
ATOM     20  C   LIG    1       24.069 -12.438   3.733  0.00  0.00    +0.048 C 
ATOM     21  C   LIG    1       24.292 -11.695   2.415  0.00  0.00    +0.024 C 
ENDBRANCH  17  20
ENDBRANCH  16  17
ENDBRANCH  13  16
ENDBRANCH  12  13
ENDBRANCH   1  12
TORSDOF 7
ENDMDL
MODEL 7
REMARK VINA RESULT:      -5.1      0.954      2.230
REMARK  Name = *****
REMARK                            x       y       z     vdW  Elec       q    Type
REMARK                         _______ _______ _______ _____ _____    ______ ____
ROOT
ATOM      1  O   LIG    1       26.034 -19.147   3.385  0.00  0.00    -0.489 OA
ENDROOT
BRANCH   1   2
ATOM      2  C   LIG    1       25.854 -19.764   4.596  0.00  0.00    +0.130 C 
ATOM      3  C   LIG    1       24.541 -20.158   4.951  0.00  0.00    +0.041 C 
ATOM      4  C   LIG    1       24.323 -20.820   6.157  0.00  0.00    +0.050 C 
ATOM      5  N   LIG    1       22.971 -21.093   6.245  0.00  0.00    -0.360 NA
ATOM      6  H   LIG    1       22.528 -21.564   7.016  0.00  0.00    +0.165 HD
ATOM      7  C   LIG    1       22.323 -20.626   5.129  0.00  0.00    +0.083 C 
ATOM      8  C   LIG    1       25.353 -21.113   7.061  0.00  0.00    +0.026 C 
ATOM      9  C   LIG    1       26.639 -20.672   6.717  0.00  0.00    +0.006 C 
ATOM     10  C   LIG    1       23.265 -20.044   4.314  0.00  0.00    +0.031 C 
ATOM     11  C   LIG    1       26.883 -20.011   5.522  0.00  0.00    +0.046 C 
ENDBRANCH   1   2
BRANCH   1  12
ATOM     12  C   LIG    1       25.559 -17.795   3.291  0.00  0.00    +0.261 C 
BRANCH  12  13
ATOM     13  C   LIG    1       26.637 -16.864   3.872  0.00  0.00    +0.166 C 
BRANCH  13  14
ATOM     14  O   LIG    1       27.950 -17.420   3.694  0.00  0.00    -0.387 OA
ATOM     15  H   LIG    1       28.214 -17.769   4.571  0.00  0.00    +0.210 HD
ENDBRANCH  13  14
BRANCH  13  16
ATOM     16  C   LIG    1       26.598 -15.472   3.214  0.00  0.00    +0.115 C 
BRANCH  16  17
ATOM     17  N   LIG    1       26.273 -14.431   4.203  0.00  0.00    -0.311 NA
ATOM     18  H   LIG    1       26.106 -14.912   5.093  0.00  0.00    +0.122 HD
BRANCH  17  20
ATOM     19  C   LIG    1       25.201 -13.232   2.379  0.00  0.00    +0.024 C 
ATOM     20  C   LIG    1       25.093 -13.633   3.855  0.00  0.00    +0.048 C 
ATOM     21  C   LIG    1       23.788 -14.400   4.072  0.00  0.00    +0.024 C 
ENDBRANCH  17  20
ENDBRANCH  16  17
ENDBRANCH  13  16
ENDBRANCH  12  13
ENDBRANCH   1  12
TORSDOF 7
ENDMDL
MODEL 8
REMARK VINA RESULT:      -5.0      1.400      2.595
REMARK  Name = *****
REMARK                            x       y       z     vdW  Elec       q    Type
REMARK                         _______ _______ _______ _____ _____    ______ ____
ROOT
ATOM      1  O   LIG    1       25.894 -19.203   3.376  0.00  0.00    -0.489 OA
ENDROOT
BRANCH   1   2
ATOM      2  C   LIG    1       25.788 -19.834   4.589  0.00  0.00    +0.130 C 
ATOM      3  C   LIG    1       24.507 -20.280   4.995  0.00  0.00    +0.041 C 
ATOM      4  C   LIG    1       24.365 -20.958   6.204  0.00  0.00    +0.050 C 
ATOM      5  N   LIG    1       23.030 -21.283   6.346  0.00  0.00    -0.360 NA
ATOM      6  H   LIG    1       22.637 -21.776   7.130  0.00  0.00    +0.165 HD
ATOM      7  C   LIG    1       22.318 -20.834   5.262  0.00  0.00    +0.083 C 
ATOM      8  C   LIG    1       25.443 -21.217   7.062  0.00  0.00    +0.026 C 
ATOM      9  C   LIG    1       26.696 -20.726   6.668  0.00  0.00    +0.006 C 
ATOM     10  C   LIG    1       23.202 -20.211   4.413  0.00  0.00    +0.031 C 
ATOM     11  C   LIG    1       26.864 -20.047   5.469  0.00  0.00    +0.046 C 
ENDBRANCH   1   2
BRANCH   1  12
ATOM     12  C   LIG    1       25.248 -17.923   3.275  0.00  0.00    +0.261 C 
BRANCH  12  13
ATOM     13  C   LIG    1       26.232 -16.847   3.766  0.00  0.00    +0.166 C 
BRANCH  13  14
ATOM     14  O   LIG    1       27.568 -17.123   3.314  0.00  0.00    -0.387 OA
ATOM     15  H   LIG    1       27.470 -17.577   2.451  0.00  0.00    +0.210 HD
ENDBRANCH  13  14
BRANCH  13  16
ATOM     16  C   LIG    1       25.826 -15.444   3.278  0.00  0.00    +0.115 C 
BRANCH  16  17
ATOM     17  N   LIG    1       27.014 -14.630   2.971  0.00  0.00    -0.311 NA
ATOM     18  H   LIG    1       27.677 -15.247   2.488  0.00  0.00    +0.122 HD
BRANCH  17  20
ATOM     19  C   LIG    1       28.685 -13.017   3.690  0.00  0.00    +0.024 C 
ATOM     20  C   LIG    1       27.660 -14.057   4.157  0.00  0.00    +0.048 C 
ATOM     21  C   LIG    1       26.657 -13.387   5.097  0.00  0.00    +0.024 C 
ENDBRANCH  17  20
ENDBRANCH  16  17
ENDBRANCH  13  16
ENDBRANCH  12  13
ENDBRANCH   1  12
TORSDOF 7
ENDMDL
MODEL 9
REMARK VINA RESULT:      -4.9      1.696      6.694
REMARK  Name = *****
REMARK                            x       y       z     vdW  Elec       q    Type
REMARK                         _______ _______ _______ _____ _____    ______ ____
ROOT
ATOM      1  O   LIG    1       25.530 -16.742   3.094  0.00  0.00    -0.489 OA
ENDROOT
BRANCH   1   2
ATOM      2  C   LIG    1       26.092 -15.585   3.570  0.00  0.00    +0.130 C 
ATOM      3  C   LIG    1       25.223 -14.532   3.947  0.00  0.00    +0.041 C 
ATOM      4  C   LIG    1       25.754 -13.355   4.468  0.00  0.00    +0.050 C 
ATOM      5  N   LIG    1       24.698 -12.513   4.757  0.00  0.00    -0.360 NA
ATOM      6  H   LIG    1       24.788 -11.588   5.144  0.00  0.00    +0.165 HD
ATOM      7  C   LIG    1       23.510 -13.120   4.436  0.00  0.00    +0.083 C 
ATOM      8  C   LIG    1       27.131 -13.149   4.634  0.00  0.00    +0.026 C 
ATOM      9  C   LIG    1       27.979 -14.182   4.210  0.00  0.00    +0.006 C 
ATOM     10  C   LIG    1       23.802 -14.366   3.933  0.00  0.00    +0.031 C 
ATOM     11  C   LIG    1       27.476 -15.365   3.687  0.00  0.00    +0.046 C 
ENDBRANCH   1   2
BRANCH   1  12
ATOM     12  C   LIG    1       26.041 -17.964   3.653  0.00  0.00    +0.261 C 
BRANCH  12  13
ATOM     13  C   LIG    1       25.059 -19.097   3.312  0.00  0.00    +0.166 C 
BRANCH  13  14
ATOM     14  O   LIG    1       25.724 -20.371   3.297  0.00  0.00    -0.387 OA
ATOM     15  H   LIG    1       26.130 -20.450   2.408  0.00  0.00    +0.210 HD
ENDBRANCH  13  14
BRANCH  13  16
ATOM     16  C   LIG    1       23.896 -19.161   4.321  0.00  0.00    +0.115 C 
BRANCH  16  17
ATOM     17  N   LIG    1       23.807 -20.496   4.936  0.00  0.00    -0.311 NA
ATOM     18  H   LIG    1       22.864 -20.849   4.737  0.00  0.00    +0.122 HD
BRANCH  17  20
ATOM     19  C   LIG    1       23.100 -21.538   7.016  0.00  0.00    +0.024 C 
ATOM     20  C   LIG    1       24.028 -20.494   6.386  0.00  0.00    +0.048 C 
ATOM     21  C   LIG    1       25.476 -20.822   6.753  0.00  0.00    +0.024 C 
ENDBRANCH  17  20
ENDBRANCH  16  17
ENDBRANCH  13  16
ENDBRANCH  12  13
ENDBRANCH   1  12
TORSDOF 7
ENDMDL
