MODEL 1
REMARK VINA RESULT:      -6.6      0.000      0.000
REMARK  Name = *****
REMARK                            x       y       z     vdW  Elec       q    Type
REMARK                         _______ _______ _______ _____ _____    ______ ____
ROOT
ATOM      1  O   LIG    1       25.819 -21.381   5.909  0.00  0.00    -0.489 OA
ENDROOT
BRANCH   1   4
ATOM      2  C   LIG    1       23.279 -21.267   7.236  0.00  0.00    +0.048 C 
ATOM      3  C   LIG    1       23.591 -20.510   5.977  0.00  0.00    -0.009 A 
ATOM      4  C   LIG    1       24.844 -20.588   5.333  0.00  0.00    +0.123 A 
ATOM      5  C   LIG    1       25.041 -19.855   4.154  0.00  0.00    +0.046 A 
ATOM      6  C   LIG    1       24.045 -19.036   3.627  0.00  0.00    +0.004 A 
ATOM      7  C   LIG    1       22.806 -18.962   4.260  0.00  0.00    +0.001 A 
ATOM      8  C   LIG    1       22.584 -19.703   5.415  0.00  0.00    +0.007 A 
ENDBRANCH   1   4
BRANCH   1   9
ATOM      9  C   LIG    1       26.899 -20.643   6.498  0.00  0.00    +0.262 C 
BRANCH   9  10
ATOM     10  C   LIG    1       27.752 -21.472   7.467  0.00  0.00    +0.177 C 
BRANCH  10  11
ATOM     11  O   LIG    1       27.104 -21.452   8.753  0.00  0.00    -0.386 OA
ATOM     12  H   LIG    1       27.767 -21.098   9.379  0.00  0.00    +0.210 HD
ENDBRANCH  10  11
BRANCH  10  13
ATOM     13  C   LIG    1       29.191 -20.975   7.638  0.00  0.00    +0.190 C 
BRANCH  13  14
ATOM     14  O   LIG    1       29.782 -21.540   8.810  0.00  0.00    -0.392 OA
ATOM     15  H   LIG    1       30.576 -21.004   8.998  0.00  0.00    +0.209 HD
ENDBRANCH  13  14
ENDBRANCH  10  13
ENDBRANCH   9  10
ENDBRANCH   1   9
TORSDOF 6
ENDMDL
MODEL 2
REMARK VINA RESULT:      -6.5      2.191      3.595
REMARK  Name = *****
REMARK                            x       y       z     vdW  Elec       q    Type
REMARK                         _______ _______ _______ _____ _____    ______ ____
ROOT
ATOM      1  O   LIG    1       26.236 -21.281   7.218  0.00  0.00    -0.489 OA
ENDROOT
BRANCH   1   4
ATOM      2  C   LIG    1       23.409 -20.807   7.128  0.00  0.00    +0.048 C 
ATOM      3  C   LIG    1       24.027 -22.165   6.964  0.00  0.00    -0.009 A 
ATOM      4  C   LIG    1       25.420 -22.380   7.022  0.00  0.00    +0.123 A 
ATOM      5  C   LIG    1       25.907 -23.686   6.870  0.00  0.00    +0.046 A 
ATOM      6  C   LIG    1       25.053 -24.762   6.635  0.00  0.00    +0.004 A 
ATOM      7  C   LIG    1       23.677 -24.551   6.582  0.00  0.00    +0.001 A 
ATOM      8  C   LIG    1       23.175 -23.267   6.758  0.00  0.00    +0.007 A 
ENDBRANCH   1   4
BRANCH   1   9
ATOM      9  C   LIG    1       27.510 -21.595   7.800  0.00  0.00    +0.262 C 
BRANCH   9  10
ATOM     10  C   LIG    1       28.700 -21.245   6.898  0.00  0.00    +0.177 C 
BRANCH  10  11
ATOM     11  O   LIG    1       29.879 -21.194   7.723  0.00  0.00    -0.386 OA
ATOM     12  H   LIG    1       29.681 -21.749   8.503  0.00  0.00    +0.210 HD
ENDBRANCH  10  11
BRANCH  10  13
ATOM     13  C   LIG    1       28.567 -19.913   6.153  0.00  0.00    +0.190 C 
BRANCH  13  14
ATOM     14  O   LIG    1       27.687 -20.048   5.034  0.00  0.00    -0.392 OA
ATOM     15  H   LIG    1       26.825 -20.323   5.399  0.00  0.00    +0.209 HD
ENDBRANCH  13  14
ENDBRANCH  10  13
ENDBRANCH   9  10
ENDBRANCH   1   9
TORSDOF 6
ENDMDL
MODEL 3
REMARK VINA RESULT:      -6.5      2.170      3.513
REMARK  Name = *****
REMARK                            x       y       z     vdW  Elec       q    Type
REMARK                         _______ _______ _______ _____ _____    ______ ____
ROOT
ATOM      1  O   LIG    1       27.911 -20.013   5.689  0.00  0.00    -0.489 OA
ENDROOT
BRANCH   1   4
ATOM      2  C   LIG    1       25.477 -20.106   4.176  0.00  0.00    +0.048 C 
ATOM      3  C   LIG    1       25.549 -20.398   5.647  0.00  0.00    -0.009 A 
ATOM      4  C   LIG    1       26.755 -20.336   6.376  0.00  0.00    +0.123 A 
ATOM      5  C   LIG    1       26.726 -20.613   7.750  0.00  0.00    +0.046 A 
ATOM      6  C   LIG    1       25.546 -20.974   8.398  0.00  0.00    +0.004 A 
ATOM      7  C   LIG    1       24.354 -21.030   7.679  0.00  0.00    +0.001 A 
ATOM      8  C   LIG    1       24.360 -20.732   6.322  0.00  0.00    +0.007 A 
ENDBRANCH   1   4
BRANCH   1   9
ATOM      9  C   LIG    1       29.111 -20.167   6.461  0.00  0.00    +0.262 C 
BRANCH   9  10
ATOM     10  C   LIG    1       29.851 -18.847   6.713  0.00  0.00    +0.177 C 
BRANCH  10  11
ATOM     11  O   LIG    1       30.039 -18.196   5.443  0.00  0.00    -0.386 OA
ATOM     12  H   LIG    1       30.096 -18.915   4.782  0.00  0.00    +0.210 HD
ENDBRANCH  10  11
BRANCH  10  13
ATOM     13  C   LIG    1       31.217 -18.999   7.391  0.00  0.00    +0.190 C 
BRANCH  13  14
ATOM     14  O   LIG    1       31.552 -20.380   7.543  0.00  0.00    -0.392 OA
ATOM     15  H   LIG    1       31.041 -20.860   6.863  0.00  0.00    +0.209 HD
ENDBRANCH  13  14
ENDBRANCH  10  13
ENDBRANCH   9  10
ENDBRANCH   1   9
TORSDOF 6
ENDMDL
MODEL 4
REMARK VINA RESULT:      -6.5      2.015      2.540
REMARK  Name = *****
REMARK                            x       y       z     vdW  Elec       q    Type
REMARK                         _______ _______ _______ _____ _____    ______ ____
ROOT
ATOM      1  O   LIG    1       27.464 -20.637   6.478  0.00  0.00    -0.489 OA
ENDROOT
BRANCH   1   4
ATOM      2  C   LIG    1       25.790 -20.997   8.779  0.00  0.00    +0.048 C 
ATOM      3  C   LIG    1       25.257 -20.757   7.396  0.00  0.00    -0.009 A 
ATOM      4  C   LIG    1       26.097 -20.594   6.274  0.00  0.00    +0.123 A 
ATOM      5  C   LIG    1       25.510 -20.386   5.018  0.00  0.00    +0.046 A 
ATOM      6  C   LIG    1       24.127 -20.309   4.861  0.00  0.00    +0.004 A 
ATOM      7  C   LIG    1       23.298 -20.475   5.967  0.00  0.00    +0.001 A 
ATOM      8  C   LIG    1       23.861 -20.709   7.216  0.00  0.00    +0.007 A 
ENDBRANCH   1   4
BRANCH   1   9
ATOM      9  C   LIG    1       28.211 -19.766   5.616  0.00  0.00    +0.262 C 
BRANCH   9  10
ATOM     10  C   LIG    1       29.277 -18.944   6.351  0.00  0.00    +0.177 C 
BRANCH  10  11
ATOM     11  O   LIG    1       29.986 -18.164   5.369  0.00  0.00    -0.386 OA
ATOM     12  H   LIG    1       30.921 -18.443   5.434  0.00  0.00    +0.210 HD
ENDBRANCH  10  11
BRANCH  10  13
ATOM     13  C   LIG    1       30.293 -19.774   7.142  0.00  0.00    +0.190 C 
BRANCH  13  14
ATOM     14  O   LIG    1       29.701 -20.288   8.336  0.00  0.00    -0.392 OA
ATOM     15  H   LIG    1       30.429 -20.684   8.852  0.00  0.00    +0.209 HD
ENDBRANCH  13  14
ENDBRANCH  10  13
ENDBRANCH   9  10
ENDBRANCH   1   9
TORSDOF 6
ENDMDL
MODEL 5
REMARK VINA RESULT:      -6.4      2.586      3.657
REMARK  Name = *****
REMARK                            x       y       z     vdW  Elec       q    Type
REMARK                         _______ _______ _______ _____ _____    ______ ____
ROOT
ATOM      1  O   LIG    1       26.842 -22.630   7.156  0.00  0.00    -0.489 OA
ENDROOT
BRANCH   1   4
ATOM      2  C   LIG    1       25.983 -25.271   6.440  0.00  0.00    +0.048 C 
ATOM      3  C   LIG    1       25.037 -24.135   6.702  0.00  0.00    -0.009 A 
ATOM      4  C   LIG    1       25.480 -22.839   7.042  0.00  0.00    +0.123 A 
ATOM      5  C   LIG    1       24.525 -21.836   7.256  0.00  0.00    +0.046 A 
ATOM      6  C   LIG    1       23.158 -22.097   7.170  0.00  0.00    +0.004 A 
ATOM      7  C   LIG    1       22.721 -23.374   6.829  0.00  0.00    +0.001 A 
ATOM      8  C   LIG    1       23.655 -24.375   6.587  0.00  0.00    +0.007 A 
ENDBRANCH   1   4
BRANCH   1   9
ATOM      9  C   LIG    1       27.192 -21.379   7.766  0.00  0.00    +0.262 C 
BRANCH   9  10
ATOM     10  C   LIG    1       28.514 -20.795   7.252  0.00  0.00    +0.177 C 
BRANCH  10  11
ATOM     11  O   LIG    1       29.092 -20.012   8.313  0.00  0.00    -0.386 OA
ATOM     12  H   LIG    1       29.164 -20.615   9.079  0.00  0.00    +0.210 HD
ENDBRANCH  10  11
BRANCH  10  13
ATOM     13  C   LIG    1       28.381 -19.910   6.008  0.00  0.00    +0.190 C 
BRANCH  13  14
ATOM     14  O   LIG    1       27.320 -20.374   5.172  0.00  0.00    -0.392 OA
ATOM     15  H   LIG    1       26.496 -20.235   5.676  0.00  0.00    +0.209 HD
ENDBRANCH  13  14
ENDBRANCH  10  13
ENDBRANCH   9  10
ENDBRANCH   1   9
TORSDOF 6
ENDMDL
MODEL 6
REMARK VINA RESULT:      -6.4      2.010      3.187
REMARK  Name = *****
REMARK                            x       y       z     vdW  Elec       q    Type
REMARK                         _______ _______ _______ _____ _____    ______ ____
ROOT
ATOM      1  O   LIG    1       28.372 -20.327   7.970  0.00  0.00    -0.489 OA
ENDROOT
BRANCH   1   4
ATOM      2  C   LIG    1       25.825 -21.134   9.012  0.00  0.00    +0.048 C 
ATOM      3  C   LIG    1       26.046 -20.739   7.581  0.00  0.00    -0.009 A 
ATOM      4  C   LIG    1       27.310 -20.356   7.084  0.00  0.00    +0.123 A 
ATOM      5  C   LIG    1       27.425 -20.015   5.729  0.00  0.00    +0.046 A 
ATOM      6  C   LIG    1       26.322 -20.018   4.878  0.00  0.00    +0.004 A 
ATOM      7  C   LIG    1       25.075 -20.401   5.367  0.00  0.00    +0.001 A 
ATOM      8  C   LIG    1       24.948 -20.769   6.701  0.00  0.00    +0.007 A 
ENDBRANCH   1   4
BRANCH   1   9
ATOM      9  C   LIG    1       29.492 -19.554   7.514  0.00  0.00    +0.262 C 
BRANCH   9  10
ATOM     10  C   LIG    1       30.795 -19.864   8.260  0.00  0.00    +0.177 C 
BRANCH  10  11
ATOM     11  O   LIG    1       31.888 -19.645   7.349  0.00  0.00    -0.386 OA
ATOM     12  H   LIG    1       31.489 -19.261   6.543  0.00  0.00    +0.210 HD
ENDBRANCH  10  11
BRANCH  10  13
ATOM     13  C   LIG    1       30.895 -21.292   8.807  0.00  0.00    +0.190 C 
BRANCH  13  14
ATOM     14  O   LIG    1       32.154 -21.498   9.450  0.00  0.00    -0.392 OA
ATOM     15  H   LIG    1       32.765 -21.810   8.756  0.00  0.00    +0.209 HD
ENDBRANCH  13  14
ENDBRANCH  10  13
ENDBRANCH   9  10
ENDBRANCH   1   9
TORSDOF 6
ENDMDL
MODEL 7
REMARK VINA RESULT:      -6.2      4.107      5.262
REMARK  Name = *****
REMARK                            x       y       z     vdW  Elec       q    Type
REMARK                         _______ _______ _______ _____ _____    ______ ____
ROOT
ATOM      1  O   LIG    1       24.685 -24.856   6.553  0.00  0.00    -0.489 OA
ENDROOT
BRANCH   1   4
ATOM      2  C   LIG    1       22.366 -23.175   6.687  0.00  0.00    +0.048 C 
ATOM      3  C   LIG    1       23.753 -22.700   7.010  0.00  0.00    -0.009 A 
ATOM      4  C   LIG    1       24.884 -23.540   6.927  0.00  0.00    +0.123 A 
ATOM      5  C   LIG    1       26.143 -23.006   7.236  0.00  0.00    +0.046 A 
ATOM      6  C   LIG    1       26.295 -21.683   7.647  0.00  0.00    +0.004 A 
ATOM      7  C   LIG    1       25.181 -20.852   7.724  0.00  0.00    +0.001 A 
ATOM      8  C   LIG    1       23.928 -21.357   7.396  0.00  0.00    +0.007 A 
ENDBRANCH   1   4
BRANCH   1   9
ATOM      9  C   LIG    1       25.673 -25.360   5.642  0.00  0.00    +0.262 C 
BRANCH   9  10
ATOM     10  C   LIG    1       26.272 -26.705   6.068  0.00  0.00    +0.177 C 
BRANCH  10  11
ATOM     11  O   LIG    1       27.178 -27.132   5.034  0.00  0.00    -0.386 OA
ATOM     12  H   LIG    1       26.745 -27.894   4.599  0.00  0.00    +0.210 HD
ENDBRANCH  10  11
BRANCH  10  13
ATOM     13  C   LIG    1       25.244 -27.816   6.306  0.00  0.00    +0.190 C 
BRANCH  13  14
ATOM     14  O   LIG    1       24.036 -27.545   5.593  0.00  0.00    -0.392 OA
ATOM     15  H   LIG    1       23.576 -28.401   5.502  0.00  0.00    +0.209 HD
ENDBRANCH  13  14
ENDBRANCH  10  13
ENDBRANCH   9  10
ENDBRANCH   1   9
TORSDOF 6
ENDMDL
MODEL 8
REMARK VINA RESULT:      -6.1      2.730      4.663
REMARK  Name = *****
REMARK                            x       y       z     vdW  Elec       q    Type
REMARK                         _______ _______ _______ _____ _____    ______ ____
ROOT
ATOM      1  O   LIG    1       24.866 -20.673   6.033  0.00  0.00    -0.489 OA
ENDROOT
BRANCH   1   4
ATOM      2  C   LIG    1       25.698 -20.920   8.767  0.00  0.00    +0.048 C 
ATOM      3  C   LIG    1       26.616 -20.500   7.656  0.00  0.00    -0.009 A 
ATOM      4  C   LIG    1       26.185 -20.373   6.319  0.00  0.00    +0.123 A 
ATOM      5  C   LIG    1       27.111 -19.963   5.350  0.00  0.00    +0.046 A 
ATOM      6  C   LIG    1       28.443 -19.708   5.672  0.00  0.00    +0.004 A 
ATOM      7  C   LIG    1       28.868 -19.828   6.993  0.00  0.00    +0.001 A 
ATOM      8  C   LIG    1       27.957 -20.208   7.972  0.00  0.00    +0.007 A 
ENDBRANCH   1   4
BRANCH   1   9
ATOM      9  C   LIG    1       24.701 -21.733   5.080  0.00  0.00    +0.262 C 
BRANCH   9  10
ATOM     10  C   LIG    1       24.859 -23.133   5.685  0.00  0.00    +0.177 C 
BRANCH  10  11
ATOM     11  O   LIG    1       24.839 -24.086   4.606  0.00  0.00    -0.386 OA
ATOM     12  H   LIG    1       25.728 -24.045   4.199  0.00  0.00    +0.210 HD
ENDBRANCH  10  11
BRANCH  10  13
ATOM     13  C   LIG    1       23.774 -23.518   6.697  0.00  0.00    +0.190 C 
BRANCH  13  14
ATOM     14  O   LIG    1       23.224 -24.798   6.381  0.00  0.00    -0.392 OA
ATOM     15  H   LIG    1       22.714 -24.679   5.557  0.00  0.00    +0.209 HD
ENDBRANCH  13  14
ENDBRANCH  10  13
ENDBRANCH   9  10
ENDBRANCH   1   9
TORSDOF 6
ENDMDL
MODEL 9
REMARK VINA RESULT:      -6.1      1.501      2.690
REMARK  Name = *****
REMARK                            x       y       z     vdW  Elec       q    Type
REMARK                         _______ _______ _______ _____ _____    ______ ____
ROOT
ATOM      1  O   LIG    1       27.097 -20.278   5.571  0.00  0.00    -0.489 OA
ENDROOT
BRANCH   1   4
ATOM      2  C   LIG    1       25.163 -19.738   3.523  0.00  0.00    +0.048 C 
ATOM      3  C   LIG    1       24.800 -20.201   4.904  0.00  0.00    -0.009 A 
ATOM      4  C   LIG    1       25.766 -20.451   5.902  0.00  0.00    +0.123 A 
ATOM      5  C   LIG    1       25.333 -20.869   7.168  0.00  0.00    +0.046 A 
ATOM      6  C   LIG    1       23.983 -21.070   7.449  0.00  0.00    +0.004 A 
ATOM      7  C   LIG    1       23.029 -20.819   6.466  0.00  0.00    +0.001 A 
ATOM      8  C   LIG    1       23.438 -20.378   5.213  0.00  0.00    +0.007 A 
ENDBRANCH   1   4
BRANCH   1   9
ATOM      9  C   LIG    1       27.938 -19.948   6.686  0.00  0.00    +0.262 C 
BRANCH   9  10
ATOM     10  C   LIG    1       29.393 -20.402   6.513  0.00  0.00    +0.177 C 
BRANCH  10  11
ATOM     11  O   LIG    1       29.649 -21.440   7.477  0.00  0.00    -0.386 OA
ATOM     12  H   LIG    1       30.434 -21.146   7.981  0.00  0.00    +0.210 HD
ENDBRANCH  10  11
BRANCH  10  13
ATOM     13  C   LIG    1       30.434 -19.293   6.700  0.00  0.00    +0.190 C 
BRANCH  13  14
ATOM     14  O   LIG    1       31.680 -19.842   7.135  0.00  0.00    -0.392 OA
ATOM     15  H   LIG    1       31.590 -19.990   8.096  0.00  0.00    +0.209 HD
ENDBRANCH  13  14
ENDBRANCH  10  13
ENDBRANCH   9  10
ENDBRANCH   1   9
TORSDOF 6
ENDMDL
