MODEL 1
REMARK VINA RESULT:      -5.6      0.000      0.000
REMARK  Name = *****
REMARK                            x       y       z     vdW  Elec       q    Type
REMARK                         _______ _______ _______ _____ _____    ______ ____
ROOT
ATOM      1  C   LIG    1       27.345 -20.599   6.114  0.00  0.00    +0.092 A 
ATOM      2  C   LIG    1       28.460 -19.727   6.243  0.00  0.00    +0.044 A 
ATOM      3  I   LIG    1       28.465 -17.942   5.018  0.00  0.00    -0.041 I 
ATOM      4  C   LIG    1       29.532 -19.993   7.139  0.00  0.00    -0.018 A 
ATOM      5  C   LIG    1       29.410 -21.132   7.963  0.00  0.00    +0.019 A 
ATOM      6  I   LIG    1       30.873 -21.732   9.363  0.00  0.00    -0.043 I 
ATOM      7  C   LIG    1       28.285 -21.965   7.891  0.00  0.00    +0.031 A 
ATOM      8  C   LIG    1       27.268 -21.706   6.972  0.00  0.00    +0.041 A 
ATOM      9  I   LIG    1       25.650 -23.049   6.929  0.00  0.00    -0.042 I 
ENDROOT
BRANCH   1  11
ATOM     10  C   LIG    1       25.161 -20.166   5.591  0.00  0.00    +0.184 C 
ATOM     11  N   LIG    1       26.356 -20.356   5.135  0.00  0.00    -0.238 NA
BRANCH  10  13
ATOM     12  C   LIG    1       24.074 -19.289   3.591  0.00  0.00    +0.130 C 
ATOM     13  N   LIG    1       24.013 -20.036   4.841  0.00  0.00    -0.327 N 
ATOM     14  C   LIG    1       22.729 -19.997   5.531  0.00  0.00    +0.130 C 
ENDBRANCH  10  13
ENDBRANCH   1  11
BRANCH   4  15
ATOM     15  C   LIG    1       30.799 -19.152   7.125  0.00  0.00    +0.048 C 
BRANCH  15  16
ATOM     16  C   LIG    1       30.655 -17.956   8.066  0.00  0.00    +0.125 C 
BRANCH  16  17
ATOM     17  C   LIG    1       31.913 -17.729   8.852  0.00  0.00    +0.305 C 
ATOM     18  O   LIG    1       32.293 -18.463   9.758  0.00  0.00    -0.251 OA
BRANCH  17  19
ATOM     19  O   LIG    1       32.594 -16.622   8.486  0.00  0.00    -0.481 OA
ATOM     20  H   LIG    1       32.303 -15.800   8.927  0.00  0.00    +0.295 HD
ENDBRANCH  17  19
ENDBRANCH  16  17
ENDBRANCH  15  16
ENDBRANCH   4  15
TORSDOF 6
ENDMDL
MODEL 2
REMARK VINA RESULT:      -5.3      4.606      7.430
REMARK  Name = *****
REMARK                            x       y       z     vdW  Elec       q    Type
REMARK                         _______ _______ _______ _____ _____    ______ ____
ROOT
ATOM      1  C   LIG    1       27.485 -20.287   6.971  0.00  0.00    +0.092 A 
ATOM      2  C   LIG    1       26.260 -20.996   7.101  0.00  0.00    +0.044 A 
ATOM      3  I   LIG    1       25.880 -21.971   8.997  0.00  0.00    -0.041 I 
ATOM      4  C   LIG    1       25.308 -21.068   6.047  0.00  0.00    -0.018 A 
ATOM      5  C   LIG    1       25.594 -20.335   4.876  0.00  0.00    +0.019 A 
ATOM      6  I   LIG    1       24.337 -20.293   3.178  0.00  0.00    -0.043 I 
ATOM      7  C   LIG    1       26.769 -19.579   4.758  0.00  0.00    +0.031 A 
ATOM      8  C   LIG    1       27.706 -19.561   5.792  0.00  0.00    +0.041 A 
ATOM      9  I   LIG    1       29.449 -18.423   5.485  0.00  0.00    -0.042 I 
ENDROOT
BRANCH   1  11
ATOM     10  C   LIG    1       29.652 -20.625   7.621  0.00  0.00    +0.184 C 
ATOM     11  N   LIG    1       28.451 -20.332   8.001  0.00  0.00    -0.238 NA
BRANCH  10  13
ATOM     12  C   LIG    1       30.794 -22.102   9.191  0.00  0.00    +0.130 C 
ATOM     13  N   LIG    1       30.734 -20.853   8.442  0.00  0.00    -0.327 N 
ATOM     14  C   LIG    1       31.381 -19.710   9.076  0.00  0.00    +0.130 C 
ENDBRANCH  10  13
ENDBRANCH   1  11
BRANCH   4  15
ATOM     15  C   LIG    1       24.098 -21.984   6.138  0.00  0.00    +0.048 C 
BRANCH  15  16
ATOM     16  C   LIG    1       24.496 -23.426   5.828  0.00  0.00    +0.125 C 
BRANCH  16  17
ATOM     17  C   LIG    1       23.492 -24.397   6.378  0.00  0.00    +0.305 C 
ATOM     18  O   LIG    1       23.704 -25.599   6.504  0.00  0.00    -0.251 OA
BRANCH  17  19
ATOM     19  O   LIG    1       22.312 -23.834   6.710  0.00  0.00    -0.481 OA
ATOM     20  H   LIG    1       21.707 -23.680   5.957  0.00  0.00    +0.295 HD
ENDBRANCH  17  19
ENDBRANCH  16  17
ENDBRANCH  15  16
ENDBRANCH   4  15
TORSDOF 6
ENDMDL
MODEL 3
REMARK VINA RESULT:      -5.0     10.593     12.185
REMARK  Name = *****
REMARK                            x       y       z     vdW  Elec       q    Type
REMARK                         _______ _______ _______ _____ _____    ______ ____
ROOT
ATOM      1  C   LIG    1       22.153 -28.644  12.513  0.00  0.00    +0.092 A 
ATOM      2  C   LIG    1       23.498 -29.001  12.227  0.00  0.00    +0.044 A 
ATOM      3  I   LIG    1       23.819 -30.815  11.089  0.00  0.00    -0.041 I 
ATOM      4  C   LIG    1       24.601 -28.211  12.653  0.00  0.00    -0.018 A 
ATOM      5  C   LIG    1       24.302 -27.000  13.315  0.00  0.00    +0.019 A 
ATOM      6  I   LIG    1       25.769 -25.666  14.044  0.00  0.00    -0.043 I 
ATOM      7  C   LIG    1       22.977 -26.604  13.546  0.00  0.00    +0.031 A 
ATOM      8  C   LIG    1       21.915 -27.421  13.156  0.00  0.00    +0.041 A 
ATOM      9  I   LIG    1       19.973 -26.740  13.592  0.00  0.00    -0.042 I 
ENDROOT
BRANCH   1  11
ATOM     10  C   LIG    1       20.673 -30.280  13.120  0.00  0.00    +0.184 C 
ATOM     11  N   LIG    1       21.093 -29.512  12.167  0.00  0.00    -0.238 NA
BRANCH  10  13
ATOM     12  C   LIG    1       19.945 -32.308  11.976  0.00  0.00    +0.130 C 
ATOM     13  N   LIG    1       19.746 -31.292  13.003  0.00  0.00    -0.327 N 
ATOM     14  C   LIG    1       18.357 -31.008  13.343  0.00  0.00    +0.130 C 
ENDBRANCH  10  13
ENDBRANCH   1  11
BRANCH   4  15
ATOM     15  C   LIG    1       26.031 -28.704  12.504  0.00  0.00    +0.048 C 
BRANCH  15  16
ATOM     16  C   LIG    1       26.669 -28.117  11.246  0.00  0.00    +0.125 C 
BRANCH  16  17
ATOM     17  C   LIG    1       27.453 -29.156  10.498  0.00  0.00    +0.305 C 
ATOM     18  O   LIG    1       28.257 -29.915  11.029  0.00  0.00    -0.251 OA
BRANCH  17  19
ATOM     19  O   LIG    1       27.210 -29.175   9.171  0.00  0.00    -0.481 OA
ATOM     20  H   LIG    1       27.230 -30.064   8.765  0.00  0.00    +0.295 HD
ENDBRANCH  17  19
ENDBRANCH  16  17
ENDBRANCH  15  16
ENDBRANCH   4  15
TORSDOF 6
ENDMDL
MODEL 4
REMARK VINA RESULT:      -4.8     11.305     12.528
REMARK  Name = *****
REMARK                            x       y       z     vdW  Elec       q    Type
REMARK                         _______ _______ _______ _____ _____    ______ ____
ROOT
ATOM      1  C   LIG    1       24.036 -29.777  11.092  0.00  0.00    +0.092 A 
ATOM      2  C   LIG    1       22.796 -29.638  11.772  0.00  0.00    +0.044 A 
ATOM      3  I   LIG    1       21.159 -30.889  11.109  0.00  0.00    -0.041 I 
ATOM      4  C   LIG    1       22.620 -28.728  12.851  0.00  0.00    -0.018 A 
ATOM      5  C   LIG    1       23.759 -28.012  13.277  0.00  0.00    +0.019 A 
ATOM      6  I   LIG    1       23.742 -26.603  14.851  0.00  0.00    -0.043 I 
ATOM      7  C   LIG    1       25.004 -28.188  12.656  0.00  0.00    +0.031 A 
ATOM      8  C   LIG    1       25.138 -29.055  11.571  0.00  0.00    +0.041 A 
ATOM      9  I   LIG    1       27.046 -29.206  10.696  0.00  0.00    -0.042 I 
ENDROOT
BRANCH   1  11
ATOM     10  C   LIG    1       24.072 -30.004   8.816  0.00  0.00    +0.184 C 
ATOM     11  N   LIG    1       24.139 -30.611   9.957  0.00  0.00    -0.238 NA
BRANCH  10  13
ATOM     12  C   LIG    1       24.333 -32.022   7.470  0.00  0.00    +0.130 C 
ATOM     13  N   LIG    1       24.021 -30.602   7.576  0.00  0.00    -0.327 N 
ATOM     14  C   LIG    1       24.344 -29.801   6.402  0.00  0.00    +0.130 C 
ENDBRANCH  10  13
ENDBRANCH   1  11
BRANCH   4  15
ATOM     15  C   LIG    1       21.244 -28.457  13.438  0.00  0.00    +0.048 C 
BRANCH  15  16
ATOM     16  C   LIG    1       20.685 -27.139  12.903  0.00  0.00    +0.125 C 
BRANCH  16  17
ATOM     17  C   LIG    1       19.710 -26.531  13.868  0.00  0.00    +0.305 C 
ATOM     18  O   LIG    1       19.878 -26.506  15.082  0.00  0.00    -0.251 OA
BRANCH  17  19
ATOM     19  O   LIG    1       18.607 -26.020  13.281  0.00  0.00    -0.481 OA
ATOM     20  H   LIG    1       18.381 -26.421  12.418  0.00  0.00    +0.295 HD
ENDBRANCH  17  19
ENDBRANCH  16  17
ENDBRANCH  15  16
ENDBRANCH   4  15
TORSDOF 6
ENDMDL
MODEL 5
REMARK VINA RESULT:      -4.7      9.651     10.943
REMARK  Name = *****
REMARK                            x       y       z     vdW  Elec       q    Type
REMARK                         _______ _______ _______ _____ _____    ______ ____
ROOT
ATOM      1  C   LIG    1       24.151 -29.756  11.262  0.00  0.00    +0.092 A 
ATOM      2  C   LIG    1       25.236 -28.989  11.767  0.00  0.00    +0.044 A 
ATOM      3  I   LIG    1       27.173 -29.292  10.849  0.00  0.00    -0.041 I 
ATOM      4  C   LIG    1       25.075 -28.051  12.824  0.00  0.00    -0.018 A 
ATOM      5  C   LIG    1       23.765 -27.851  13.308  0.00  0.00    +0.019 A 
ATOM      6  I   LIG    1       23.281 -26.517  14.874  0.00  0.00    -0.043 I 
ATOM      7  C   LIG    1       22.676 -28.554  12.775  0.00  0.00    +0.031 A 
ATOM      8  C   LIG    1       22.869 -29.501  11.768  0.00  0.00    +0.041 A 
ATOM      9  I   LIG    1       21.165 -30.522  11.074  0.00  0.00    -0.042 I 
ENDROOT
BRANCH   1  11
ATOM     10  C   LIG    1       24.208 -30.378   9.062  0.00  0.00    +0.184 C 
ATOM     11  N   LIG    1       24.374 -30.754  10.288  0.00  0.00    -0.238 NA
BRANCH  10  13
ATOM     12  C   LIG    1       24.304 -30.566   6.631  0.00  0.00    +0.130 C 
ATOM     13  N   LIG    1       24.242 -31.188   7.948  0.00  0.00    -0.327 N 
ATOM     14  C   LIG    1       23.558 -32.475   8.002  0.00  0.00    +0.130 C 
ENDBRANCH  10  13
ENDBRANCH   1  11
BRANCH   4  15
ATOM     15  C   LIG    1       26.275 -27.382  13.475  0.00  0.00    +0.048 C 
BRANCH  15  16
ATOM     16  C   LIG    1       26.505 -25.996  12.874  0.00  0.00    +0.125 C 
BRANCH  16  17
ATOM     17  C   LIG    1       27.248 -25.106  13.827  0.00  0.00    +0.305 C 
ATOM     18  O   LIG    1       26.839 -24.011  14.196  0.00  0.00    -0.251 OA
BRANCH  17  19
ATOM     19  O   LIG    1       28.431 -25.611  14.238  0.00  0.00    -0.481 OA
ATOM     20  H   LIG    1       29.013 -25.923  13.517  0.00  0.00    +0.295 HD
ENDBRANCH  17  19
ENDBRANCH  16  17
ENDBRANCH  15  16
ENDBRANCH   4  15
TORSDOF 6
ENDMDL
MODEL 6
REMARK VINA RESULT:      -4.7     10.949     12.608
REMARK  Name = *****
REMARK                            x       y       z     vdW  Elec       q    Type
REMARK                         _______ _______ _______ _____ _____    ______ ____
ROOT
ATOM      1  C   LIG    1       24.439 -30.378  11.794  0.00  0.00    +0.092 A 
ATOM      2  C   LIG    1       25.150 -30.135  10.588  0.00  0.00    +0.044 A 
ATOM      3  I   LIG    1       26.684 -28.608  10.635  0.00  0.00    -0.041 I 
ATOM      4  C   LIG    1       24.885 -30.858   9.392  0.00  0.00    -0.018 A 
ATOM      5  C   LIG    1       23.930 -31.894   9.469  0.00  0.00    +0.019 A 
ATOM      6  I   LIG    1       23.367 -33.098   7.827  0.00  0.00    -0.043 I 
ATOM      7  C   LIG    1       23.268 -32.187  10.669  0.00  0.00    +0.031 A 
ATOM      8  C   LIG    1       23.516 -31.432  11.817  0.00  0.00    +0.041 A 
ATOM      9  I   LIG    1       22.433 -31.940  13.548  0.00  0.00    -0.042 I 
ENDROOT
BRANCH   1  11
ATOM     10  C   LIG    1       23.891 -28.526  13.019  0.00  0.00    +0.184 C 
ATOM     11  N   LIG    1       24.656 -29.564  12.929  0.00  0.00    -0.238 NA
BRANCH  10  13
ATOM     12  C   LIG    1       23.421 -26.214  13.640  0.00  0.00    +0.130 C 
ATOM     13  N   LIG    1       23.988 -27.519  13.954  0.00  0.00    -0.327 N 
ATOM     14  C   LIG    1       25.145 -27.502  14.842  0.00  0.00    +0.130 C 
ENDBRANCH  10  13
ENDBRANCH   1  11
BRANCH   4  15
ATOM     15  C   LIG    1       25.519 -30.456   8.070  0.00  0.00    +0.048 C 
BRANCH  15  16
ATOM     16  C   LIG    1       24.664 -29.401   7.367  0.00  0.00    +0.125 C 
BRANCH  16  17
ATOM     17  C   LIG    1       24.473 -29.736   5.917  0.00  0.00    +0.305 C 
ATOM     18  O   LIG    1       25.379 -30.106   5.178  0.00  0.00    -0.251 OA
BRANCH  17  19
ATOM     19  O   LIG    1       23.206 -29.574   5.481  0.00  0.00    -0.481 OA
ATOM     20  H   LIG    1       22.732 -30.408   5.287  0.00  0.00    +0.295 HD
ENDBRANCH  17  19
ENDBRANCH  16  17
ENDBRANCH  15  16
ENDBRANCH   4  15
TORSDOF 6
ENDMDL
MODEL 7
REMARK VINA RESULT:      -4.6      2.350      3.530
REMARK  Name = *****
REMARK                            x       y       z     vdW  Elec       q    Type
REMARK                         _______ _______ _______ _____ _____    ______ ____
ROOT
ATOM      1  C   LIG    1       26.183 -20.535   5.680  0.00  0.00    +0.092 A 
ATOM      2  C   LIG    1       26.888 -21.181   6.731  0.00  0.00    +0.044 A 
ATOM      3  I   LIG    1       25.920 -22.869   7.679  0.00  0.00    -0.041 I 
ATOM      4  C   LIG    1       28.179 -20.757   7.152  0.00  0.00    -0.018 A 
ATOM      5  C   LIG    1       28.776 -19.705   6.425  0.00  0.00    +0.019 A 
ATOM      6  I   LIG    1       30.680 -18.903   6.867  0.00  0.00    -0.043 I 
ATOM      7  C   LIG    1       28.117 -19.101   5.344  0.00  0.00    +0.031 A 
ATOM      8  C   LIG    1       26.833 -19.507   4.981  0.00  0.00    +0.041 A 
ATOM      9  I   LIG    1       25.931 -18.501   3.369  0.00  0.00    -0.042 I 
ENDROOT
BRANCH   1  11
ATOM     10  C   LIG    1       23.995 -19.954   5.355  0.00  0.00    +0.184 C 
ATOM     11  N   LIG    1       24.859 -20.916   5.366  0.00  0.00    -0.238 NA
BRANCH  10  13
ATOM     12  C   LIG    1       22.064 -21.423   5.099  0.00  0.00    +0.130 C 
ATOM     13  N   LIG    1       22.632 -20.085   5.204  0.00  0.00    -0.327 N 
ATOM     14  C   LIG    1       21.905 -19.040   4.493  0.00  0.00    +0.130 C 
ENDBRANCH  10  13
ENDBRANCH   1  11
BRANCH   4  15
ATOM     15  C   LIG    1       28.833 -21.336   8.396  0.00  0.00    +0.048 C 
BRANCH  15  16
ATOM     16  C   LIG    1       30.223 -21.877   8.065  0.00  0.00    +0.125 C 
BRANCH  16  17
ATOM     17  C   LIG    1       31.108 -21.880   9.278  0.00  0.00    +0.305 C 
ATOM     18  O   LIG    1       32.266 -21.474   9.277  0.00  0.00    -0.251 OA
BRANCH  17  19
ATOM     19  O   LIG    1       30.522 -22.390  10.381  0.00  0.00    -0.481 OA
ATOM     20  H   LIG    1       30.790 -21.962  11.219  0.00  0.00    +0.295 HD
ENDBRANCH  17  19
ENDBRANCH  16  17
ENDBRANCH  15  16
ENDBRANCH   4  15
TORSDOF 6
ENDMDL
MODEL 8
REMARK VINA RESULT:      -4.6      2.626      3.961
REMARK  Name = *****
REMARK                            x       y       z     vdW  Elec       q    Type
REMARK                         _______ _______ _______ _____ _____    ______ ____
ROOT
ATOM      1  C   LIG    1       25.682 -21.033   6.058  0.00  0.00    +0.092 A 
ATOM      2  C   LIG    1       26.683 -21.112   7.064  0.00  0.00    +0.044 A 
ATOM      3  I   LIG    1       26.332 -22.481   8.703  0.00  0.00    -0.041 I 
ATOM      4  C   LIG    1       27.875 -20.339   7.010  0.00  0.00    -0.018 A 
ATOM      5  C   LIG    1       28.066 -19.535   5.865  0.00  0.00    +0.019 A 
ATOM      6  I   LIG    1       29.752 -18.298   5.565  0.00  0.00    -0.043 I 
ATOM      7  C   LIG    1       27.116 -19.498   4.836  0.00  0.00    +0.031 A 
ATOM      8  C   LIG    1       25.934 -20.233   4.935  0.00  0.00    +0.041 A 
ATOM      9  I   LIG    1       24.565 -20.065   3.346  0.00  0.00    -0.042 I 
ENDROOT
BRANCH   1  11
ATOM     10  C   LIG    1       24.564 -23.024   6.198  0.00  0.00    +0.184 C 
ATOM     11  N   LIG    1       24.464 -21.734   6.205  0.00  0.00    -0.238 NA
BRANCH  10  13
ATOM     12  C   LIG    1       22.251 -23.521   6.790  0.00  0.00    +0.130 C 
ATOM     13  N   LIG    1       23.520 -23.923   6.198  0.00  0.00    -0.327 N 
ATOM     14  C   LIG    1       23.826 -25.346   6.277  0.00  0.00    +0.130 C 
ENDBRANCH  10  13
ENDBRANCH   1  11
BRANCH   4  15
ATOM     15  C   LIG    1       28.841 -20.295   8.183  0.00  0.00    +0.048 C 
BRANCH  15  16
ATOM     16  C   LIG    1       29.996 -21.271   7.960  0.00  0.00    +0.125 C 
BRANCH  16  17
ATOM     17  C   LIG    1       31.026 -21.151   9.045  0.00  0.00    +0.305 C 
ATOM     18  O   LIG    1       31.928 -20.321   9.039  0.00  0.00    -0.251 OA
BRANCH  17  19
ATOM     19  O   LIG    1       30.886 -22.059  10.034  0.00  0.00    -0.481 OA
ATOM     20  H   LIG    1       29.969 -22.362  10.183  0.00  0.00    +0.295 HD
ENDBRANCH  17  19
ENDBRANCH  16  17
ENDBRANCH  15  16
ENDBRANCH   4  15
TORSDOF 6
ENDMDL
MODEL 9
REMARK VINA RESULT:      -4.5     10.656     12.883
REMARK  Name = *****
REMARK                            x       y       z     vdW  Elec       q    Type
REMARK                         _______ _______ _______ _____ _____    ______ ____
ROOT
ATOM      1  C   LIG    1       25.850 -30.571   9.884  0.00  0.00    +0.092 A 
ATOM      2  C   LIG    1       25.076 -30.737   8.703  0.00  0.00    +0.044 A 
ATOM      3  I   LIG    1       23.963 -32.583   8.502  0.00  0.00    -0.041 I 
ATOM      4  C   LIG    1       25.015 -29.741   7.689  0.00  0.00    -0.018 A 
ATOM      5  C   LIG    1       25.701 -28.532   7.937  0.00  0.00    +0.019 A 
ATOM      6  I   LIG    1       25.760 -26.915   6.580  0.00  0.00    -0.043 I 
ATOM      7  C   LIG    1       26.415 -28.331   9.127  0.00  0.00    +0.031 A 
ATOM      8  C   LIG    1       26.494 -29.342  10.085  0.00  0.00    +0.041 A 
ATOM      9  I   LIG    1       27.627 -28.938  11.811  0.00  0.00    -0.042 I 
ENDROOT
BRANCH   1  11
ATOM     10  C   LIG    1       25.183 -31.556  11.838  0.00  0.00    +0.184 C 
ATOM     11  N   LIG    1       25.970 -31.627  10.814  0.00  0.00    -0.238 NA
BRANCH  10  13
ATOM     12  C   LIG    1       26.012 -32.015  14.086  0.00  0.00    +0.130 C 
ATOM     13  N   LIG    1       25.196 -32.387  12.936  0.00  0.00    -0.327 N 
ATOM     14  C   LIG    1       25.023 -33.820  12.729  0.00  0.00    +0.130 C 
ENDBRANCH  10  13
ENDBRANCH   1  11
BRANCH   4  15
ATOM     15  C   LIG    1       24.339 -30.014   6.355  0.00  0.00    +0.048 C 
BRANCH  15  16
ATOM     16  C   LIG    1       25.384 -30.223   5.261  0.00  0.00    +0.125 C 
BRANCH  16  17
ATOM     17  C   LIG    1       25.670 -31.682   5.054  0.00  0.00    +0.305 C 
ATOM     18  O   LIG    1       26.542 -32.298   5.658  0.00  0.00    -0.251 OA
BRANCH  17  19
ATOM     19  O   LIG    1       24.889 -32.266   4.121  0.00  0.00    -0.481 OA
ATOM     20  H   LIG    1       24.583 -31.666   3.412  0.00  0.00    +0.295 HD
ENDBRANCH  17  19
ENDBRANCH  16  17
ENDBRANCH  15  16
ENDBRANCH   4  15
TORSDOF 6
ENDMDL
