MODEL 1
REMARK VINA RESULT:      12.9      0.000      0.000
REMARK  Name = *****
REMARK                            x       y       z     vdW  Elec       q    Type
REMARK                         _______ _______ _______ _____ _____    ______ ____
ROOT
ATOM      1  C   LIG    1       25.461 -16.802   4.100  0.00  0.00    -0.019 C 
ATOM      2  C   LIG    1       26.145 -17.903   4.713  0.00  0.00    +0.005 C 
ATOM      3  C   LIG    1       25.278 -19.011   4.713  0.00  0.00    +0.054 C 
ATOM      4  C   LIG    1       25.730 -20.274   5.151  0.00  0.00    +0.028 C 
ATOM      5  C   LIG    1       27.031 -20.401   5.648  0.00  0.00    +0.022 C 
ATOM      6  C   LIG    1       27.872 -19.301   5.706  0.00  0.00    +0.042 C 
ATOM      7 CL   LIG    1       29.474 -19.498   6.307  0.00  0.00    -0.084 Cl
ATOM      8  N   LIG    1       24.060 -18.590   4.173  0.00  0.00    -0.316 NA
ATOM      9  C   LIG    1       27.448 -18.050   5.249  0.00  0.00    +0.030 C 
ATOM     10  C   LIG    1       24.205 -17.271   3.784  0.00  0.00    +0.096 C 
ENDROOT
BRANCH   8  11
ATOM     11  C   LIG    1       22.839 -19.325   4.026  0.00  0.00    +0.047 C 
ATOM     12  C   LIG    1       21.654 -18.699   3.621  0.00  0.00    +0.029 C 
ATOM     13  C   LIG    1       20.474 -19.439   3.484  0.00  0.00    +0.040 C 
ATOM     14  C   LIG    1       20.481 -20.805   3.736  0.00  0.00    +0.123 C 
ATOM     15  F   LIG    1       19.350 -21.508   3.599  0.00  0.00    -0.205 F 
ATOM     16  C   LIG    1       21.649 -21.451   4.114  0.00  0.00    +0.040 C 
ATOM     17  C   LIG    1       22.829 -20.716   4.254  0.00  0.00    +0.029 C 
ENDBRANCH   8  11
BRANCH   1  21
ATOM     18  N   LIG    1       24.187 -13.168   3.039  0.00  0.00    -0.301 NA
ATOM     19  C   LIG    1       24.537 -14.254   2.118  0.00  0.00    +0.085 C 
ATOM     20  C   LIG    1       25.871 -14.932   2.423  0.00  0.00    +0.023 C 
ATOM     21  C   LIG    1       26.005 -15.402   3.881  0.00  0.00    +0.024 C 
ATOM     22  C   LIG    1       25.453 -14.355   4.869  0.00  0.00    +0.023 C 
ATOM     23  C   LIG    1       24.150 -13.682   4.414  0.00  0.00    +0.085 C 
BRANCH  18  24
ATOM     24  C   LIG    1       25.043 -11.965   2.945  0.00  0.00    +0.103 C 
BRANCH  24  25
ATOM     25  C   LIG    1       26.488 -12.165   2.448  0.00  0.00    +0.124 C 
BRANCH  25  28
ATOM     26  O   LIG    1       29.259 -13.189   2.239  0.00  0.00    -0.253 OA
ATOM     27  C   LIG    1       28.767 -12.801   3.293  0.00  0.00    +0.302 C 
ATOM     28  N   LIG    1       27.458 -12.379   3.506  0.00  0.00    -0.283 N 
ATOM     29  C   LIG    1       27.296 -11.894   4.850  0.00  0.00    +0.128 C 
ATOM     30  C   LIG    1       28.541 -12.442   5.564  0.00  0.00    +0.124 C 
ATOM     31  N   LIG    1       29.445 -12.716   4.490  0.00  0.00    -0.298 N 
ATOM     32  H   LIG    1       30.372 -13.103   4.568  0.00  0.00    +0.150 HD
ENDBRANCH  25  28
ENDBRANCH  24  25
ENDBRANCH  18  24
ENDBRANCH   1  21
TORSDOF 5
ENDMDL
MODEL 2
REMARK VINA RESULT:      15.7      3.576      7.426
REMARK  Name = *****
REMARK                            x       y       z     vdW  Elec       q    Type
REMARK                         _______ _______ _______ _____ _____    ______ ____
ROOT
ATOM      1  C   LIG    1       25.435 -18.492   4.333  0.00  0.00    -0.019 C 
ATOM      2  C   LIG    1       26.770 -18.778   4.770  0.00  0.00    +0.005 C 
ATOM      3  C   LIG    1       27.537 -17.606   4.631  0.00  0.00    +0.054 C 
ATOM      4  C   LIG    1       28.867 -17.560   5.099  0.00  0.00    +0.028 C 
ATOM      5  C   LIG    1       29.441 -18.712   5.644  0.00  0.00    +0.022 C 
ATOM      6  C   LIG    1       28.712 -19.888   5.730  0.00  0.00    +0.042 C 
ATOM      7 CL   LIG    1       29.445 -21.284   6.424  0.00  0.00    -0.084 Cl
ATOM      8  N   LIG    1       26.713 -16.633   4.057  0.00  0.00    -0.316 NA
ATOM      9  C   LIG    1       27.384 -19.940   5.298  0.00  0.00    +0.030 C 
ATOM     10  C   LIG    1       25.451 -17.178   3.918  0.00  0.00    +0.096 C 
ENDROOT
BRANCH   8  11
ATOM     11  C   LIG    1       27.045 -15.299   3.651  0.00  0.00    +0.047 C 
ATOM     12  C   LIG    1       27.949 -14.518   4.381  0.00  0.00    +0.029 C 
ATOM     13  C   LIG    1       28.257 -13.218   3.964  0.00  0.00    +0.040 C 
ATOM     14  C   LIG    1       27.675 -12.705   2.812  0.00  0.00    +0.123 C 
ATOM     15  F   LIG    1       27.976 -11.462   2.417  0.00  0.00    -0.205 F 
ATOM     16  C   LIG    1       26.796 -13.469   2.061  0.00  0.00    +0.040 C 
ATOM     17  C   LIG    1       26.483 -14.768   2.474  0.00  0.00    +0.029 C 
ENDBRANCH   8  11
BRANCH   1  21
ATOM     18  N   LIG    1       21.460 -18.445   3.945  0.00  0.00    -0.301 NA
ATOM     19  C   LIG    1       22.200 -18.212   5.189  0.00  0.00    +0.085 C 
ATOM     20  C   LIG    1       23.289 -19.244   5.475  0.00  0.00    +0.023 C 
ATOM     21  C   LIG    1       24.263 -19.455   4.303  0.00  0.00    +0.024 C 
ATOM     22  C   LIG    1       23.524 -19.500   2.951  0.00  0.00    +0.023 C 
ATOM     23  C   LIG    1       22.395 -18.468   2.813  0.00  0.00    +0.085 C 
BRANCH  18  24
ATOM     24  C   LIG    1       20.595 -19.645   3.944  0.00  0.00    +0.103 C 
BRANCH  24  25
ATOM     25  C   LIG    1       21.293 -21.017   3.864  0.00  0.00    +0.124 C 
BRANCH  25  28
ATOM     26  O   LIG    1       24.199 -21.570   3.734  0.00  0.00    -0.253 OA
ATOM     27  C   LIG    1       23.585 -21.462   4.790  0.00  0.00    +0.302 C 
ATOM     28  N   LIG    1       22.215 -21.282   4.952  0.00  0.00    -0.283 N 
ATOM     29  C   LIG    1       21.892 -21.086   6.340  0.00  0.00    +0.128 C 
ATOM     30  C   LIG    1       23.160 -21.571   7.058  0.00  0.00    +0.124 C 
ATOM     31  N   LIG    1       24.163 -21.505   6.041  0.00  0.00    -0.298 N 
ATOM     32  H   LIG    1       25.133 -21.761   6.135  0.00  0.00    +0.150 HD
ENDBRANCH  25  28
ENDBRANCH  24  25
ENDBRANCH  18  24
ENDBRANCH   1  21
TORSDOF 5
ENDMDL
