MODEL 1
REMARK VINA RESULT:      -3.1      0.000      0.000
REMARK  Name = *****
REMARK                            x       y       z     vdW  Elec       q    Type
REMARK                         _______ _______ _______ _____ _____    ______ ____
ROOT
ATOM      1  C   LIG    1       26.058 -14.555   3.232  0.00  0.00    +0.159 C 
ATOM      2  O   LIG    1       26.628 -14.297   1.943  0.00  0.00    -0.370 OA
ATOM      3  C   LIG    1       27.437 -13.966   3.081  0.00  0.00    +0.193 C 
ENDROOT
BRANCH   1   5
ATOM      4 CL   LIG    1       23.601 -14.701   4.275  0.00  0.00    -0.123 Cl
ATOM      5  C   LIG    1       24.899 -13.696   3.597  0.00  0.00    +0.142 C 
ENDBRANCH   1   5
TORSDOF 1
ENDMDL
MODEL 2
REMARK VINA RESULT:      -3.0      1.522      1.522
REMARK  Name = *****
REMARK                            x       y       z     vdW  Elec       q    Type
REMARK                         _______ _______ _______ _____ _____    ______ ____
ROOT
ATOM      1  C   LIG    1       25.733 -13.794   2.784  0.00  0.00    +0.159 C 
ATOM      2  O   LIG    1       26.690 -14.346   1.872  0.00  0.00    -0.370 OA
ATOM      3  C   LIG    1       27.215 -13.678   3.027  0.00  0.00    +0.193 C 
ENDROOT
BRANCH   1   5
ATOM      4 CL   LIG    1       23.841 -12.053   3.518  0.00  0.00    -0.123 Cl
ATOM      5  C   LIG    1       24.954 -12.636   2.262  0.00  0.00    +0.142 C 
ENDBRANCH   1   5
TORSDOF 1
ENDMDL
MODEL 3
REMARK VINA RESULT:      -2.9      2.685      3.133
REMARK  Name = *****
REMARK                            x       y       z     vdW  Elec       q    Type
REMARK                         _______ _______ _______ _____ _____    ______ ____
ROOT
ATOM      1  C   LIG    1       26.942 -13.342   2.843  0.00  0.00    +0.159 C 
ATOM      2  O   LIG    1       26.530 -14.311   1.872  0.00  0.00    -0.370 OA
ATOM      3  C   LIG    1       25.556 -13.933   2.854  0.00  0.00    +0.193 C 
ENDROOT
BRANCH   1   5
ATOM      4 CL   LIG    1       28.922 -12.420   4.383  0.00  0.00    -0.123 Cl
ATOM      5  C   LIG    1       27.976 -13.808   3.807  0.00  0.00    +0.142 C 
ENDBRANCH   1   5
TORSDOF 1
ENDMDL
MODEL 4
REMARK VINA RESULT:      -2.8      6.019      6.118
REMARK  Name = *****
REMARK                            x       y       z     vdW  Elec       q    Type
REMARK                         _______ _______ _______ _____ _____    ______ ____
ROOT
ATOM      1  C   LIG    1       23.781 -20.529   4.455  0.00  0.00    +0.159 C 
ATOM      2  O   LIG    1       24.584 -19.652   3.656  0.00  0.00    -0.370 OA
ATOM      3  C   LIG    1       25.252 -20.340   4.723  0.00  0.00    +0.193 C 
ENDROOT
BRANCH   1   5
ATOM      4 CL   LIG    1       22.207 -18.369   4.510  0.00  0.00    -0.123 Cl
ATOM      5  C   LIG    1       22.760 -19.857   5.306  0.00  0.00    +0.142 C 
ENDBRANCH   1   5
TORSDOF 1
ENDMDL
MODEL 5
REMARK VINA RESULT:      -2.7      6.778      6.834
REMARK  Name = *****
REMARK                            x       y       z     vdW  Elec       q    Type
REMARK                         _______ _______ _______ _____ _____    ______ ____
ROOT
ATOM      1  C   LIG    1       24.448 -21.092   5.571  0.00  0.00    +0.159 C 
ATOM      2  O   LIG    1       25.296 -20.122   4.945  0.00  0.00    -0.370 OA
ATOM      3  C   LIG    1       25.816 -20.768   6.115  0.00  0.00    +0.193 C 
ENDROOT
BRANCH   1   5
ATOM      4 CL   LIG    1       22.492 -19.318   5.158  0.00  0.00    -0.123 Cl
ATOM      5  C   LIG    1       23.223 -20.544   6.215  0.00  0.00    +0.142 C 
ENDBRANCH   1   5
TORSDOF 1
ENDMDL
MODEL 6
REMARK VINA RESULT:      -2.7      6.847      7.119
REMARK  Name = *****
REMARK                            x       y       z     vdW  Elec       q    Type
REMARK                         _______ _______ _______ _____ _____    ______ ____
ROOT
ATOM      1  C   LIG    1       22.774 -20.669   5.528  0.00  0.00    +0.159 C 
ATOM      2  O   LIG    1       24.163 -20.967   5.709  0.00  0.00    -0.370 OA
ATOM      3  C   LIG    1       23.387 -20.776   6.901  0.00  0.00    +0.193 C 
ENDROOT
BRANCH   1   5
ATOM      4 CL   LIG    1       23.721 -18.950   3.713  0.00  0.00    -0.123 Cl
ATOM      5  C   LIG    1       22.483 -19.339   4.926  0.00  0.00    +0.142 C 
ENDBRANCH   1   5
TORSDOF 1
ENDMDL
MODEL 7
REMARK VINA RESULT:      -2.6      6.461      6.681
REMARK  Name = *****
REMARK                            x       y       z     vdW  Elec       q    Type
REMARK                         _______ _______ _______ _____ _____    ______ ____
ROOT
ATOM      1  C   LIG    1       24.011 -20.816   4.478  0.00  0.00    +0.159 C 
ATOM      2  O   LIG    1       24.200 -20.148   3.225  0.00  0.00    -0.370 OA
ATOM      3  C   LIG    1       25.302 -20.113   4.143  0.00  0.00    +0.193 C 
ENDROOT
BRANCH   1   5
ATOM      4 CL   LIG    1       23.310 -20.726   7.056  0.00  0.00    -0.123 Cl
ATOM      5  C   LIG    1       23.016 -20.186   5.389  0.00  0.00    +0.142 C 
ENDBRANCH   1   5
TORSDOF 1
ENDMDL
MODEL 8
REMARK VINA RESULT:      -2.6      2.537      3.036
REMARK  Name = *****
REMARK                            x       y       z     vdW  Elec       q    Type
REMARK                         _______ _______ _______ _____ _____    ______ ____
ROOT
ATOM      1  C   LIG    1       25.197 -13.360   3.476  0.00  0.00    +0.159 C 
ATOM      2  O   LIG    1       23.860 -13.376   2.963  0.00  0.00    -0.370 OA
ATOM      3  C   LIG    1       24.159 -14.319   4.001  0.00  0.00    +0.193 C 
ENDROOT
BRANCH   1   5
ATOM      4 CL   LIG    1       27.831 -13.793   3.330  0.00  0.00    -0.123 Cl
ATOM      5  C   LIG    1       26.247 -13.821   2.526  0.00  0.00    +0.142 C 
ENDBRANCH   1   5
TORSDOF 1
ENDMDL
MODEL 9
REMARK VINA RESULT:      -2.6      7.288      7.603
REMARK  Name = *****
REMARK                            x       y       z     vdW  Elec       q    Type
REMARK                         _______ _______ _______ _____ _____    ______ ____
ROOT
ATOM      1  C   LIG    1       23.845 -21.065   5.652  0.00  0.00    +0.159 C 
ATOM      2  O   LIG    1       23.140 -20.383   6.696  0.00  0.00    -0.370 OA
ATOM      3  C   LIG    1       22.719 -20.110   5.352  0.00  0.00    +0.193 C 
ENDROOT
BRANCH   1   5
ATOM      4 CL   LIG    1       26.040 -20.466   7.055  0.00  0.00    -0.123 Cl
ATOM      5  C   LIG    1       25.264 -20.650   5.469  0.00  0.00    +0.142 C 
ENDBRANCH   1   5
TORSDOF 1
ENDMDL
