MODEL 1
REMARK VINA RESULT:      -6.1      0.000      0.000
REMARK  Name = *****
REMARK                            x       y       z     vdW  Elec       q    Type
REMARK                         _______ _______ _______ _____ _____    ______ ____
ROOT
ATOM      1  C   LIG    1       26.014 -19.142   3.861  0.00  0.00    +0.069 C 
ENDROOT
BRANCH   1   2
ATOM      2  C   LIG    1       24.664 -19.722   4.296  0.00  0.00    +0.049 A 
ATOM      3  N   LIG    1       24.659 -21.029   4.662  0.00  0.00    -0.259 NA
ATOM      4  C   LIG    1       23.488 -21.572   5.067  0.00  0.00    +0.111 A 
ATOM      5  C   LIG    1       22.295 -20.873   5.110  0.00  0.00    +0.020 A 
ATOM      6  C   LIG    1       22.303 -19.542   4.722  0.00  0.00    +0.003 A 
ATOM      7  C   LIG    1       23.500 -18.947   4.316  0.00  0.00    +0.024 A 
ENDBRANCH   1   2
BRANCH   1   8
ATOM      8  C   LIG    1       27.090 -19.285   4.954  0.00  0.00    -0.038 A 
ATOM      9  C   LIG    1       26.857 -20.139   6.050  0.00  0.00    +0.004 A 
ATOM     10  C   LIG    1       27.809 -20.300   7.062  0.00  0.00    +0.000 A 
ATOM     11  C   LIG    1       29.020 -19.620   6.993  0.00  0.00    +0.000 A 
ATOM     12  C   LIG    1       29.285 -18.795   5.905  0.00  0.00    +0.000 A 
ATOM     13  C   LIG    1       28.333 -18.634   4.893  0.00  0.00    +0.004 A 
ENDBRANCH   1   8
BRANCH   1  14
ATOM     14  C   LIG    1       25.868 -17.702   3.287  0.00  0.00    +0.029 C 
BRANCH  14  15
ATOM     15  C   LIG    1       27.034 -16.762   3.644  0.00  0.00    +0.085 C 
BRANCH  15  17
ATOM     16  C   LIG    1       25.460 -14.953   3.564  0.00  0.00    +0.104 C 
ATOM     17  N   LIG    1       26.839 -15.350   3.244  0.00  0.00    -0.308 NA
ATOM     18  C   LIG    1       27.765 -14.427   3.906  0.00  0.00    +0.104 C 
ENDBRANCH  15  17
ENDBRANCH  14  15
ENDBRANCH   1  14
TORSDOF 5
ENDMDL
MODEL 2
REMARK VINA RESULT:      -5.4      0.721      1.630
REMARK  Name = *****
REMARK                            x       y       z     vdW  Elec       q    Type
REMARK                         _______ _______ _______ _____ _____    ______ ____
ROOT
ATOM      1  C   LIG    1       26.059 -19.393   3.837  0.00  0.00    +0.069 C 
ENDROOT
BRANCH   1   2
ATOM      2  C   LIG    1       24.687 -19.828   4.362  0.00  0.00    +0.049 A 
ATOM      3  N   LIG    1       23.670 -18.945   4.195  0.00  0.00    -0.259 NA
ATOM      4  C   LIG    1       22.440 -19.301   4.631  0.00  0.00    +0.111 A 
ATOM      5  C   LIG    1       22.169 -20.506   5.255  0.00  0.00    +0.020 A 
ATOM      6  C   LIG    1       23.214 -21.398   5.434  0.00  0.00    +0.003 A 
ATOM      7  C   LIG    1       24.492 -21.068   4.979  0.00  0.00    +0.024 A 
ENDBRANCH   1   2
BRANCH   1   8
ATOM      8  C   LIG    1       27.143 -19.437   4.930  0.00  0.00    -0.038 A 
ATOM      9  C   LIG    1       28.288 -18.625   4.806  0.00  0.00    +0.004 A 
ATOM     10  C   LIG    1       29.295 -18.633   5.777  0.00  0.00    +0.000 A 
ATOM     11  C   LIG    1       29.172 -19.444   6.900  0.00  0.00    +0.000 A 
ATOM     12  C   LIG    1       28.037 -20.232   7.059  0.00  0.00    +0.000 A 
ATOM     13  C   LIG    1       27.030 -20.224   6.088  0.00  0.00    +0.004 A 
ENDBRANCH   1   8
BRANCH   1  14
ATOM     14  C   LIG    1       25.982 -18.045   3.062  0.00  0.00    +0.029 C 
BRANCH  14  15
ATOM     15  C   LIG    1       26.438 -16.823   3.879  0.00  0.00    +0.085 C 
BRANCH  15  17
ATOM     16  C   LIG    1       25.050 -14.869   3.759  0.00  0.00    +0.104 C 
ATOM     17  N   LIG    1       26.248 -15.518   3.206  0.00  0.00    -0.308 NA
ATOM     18  C   LIG    1       27.391 -14.615   3.359  0.00  0.00    +0.104 C 
ENDBRANCH  15  17
ENDBRANCH  14  15
ENDBRANCH   1  14
TORSDOF 5
ENDMDL
MODEL 3
REMARK VINA RESULT:      -5.2      3.433      5.877
REMARK  Name = *****
REMARK                            x       y       z     vdW  Elec       q    Type
REMARK                         _______ _______ _______ _____ _____    ______ ____
ROOT
ATOM      1  C   LIG    1       25.677 -15.365   3.241  0.00  0.00    +0.069 C 
ENDROOT
BRANCH   1   2
ATOM      2  C   LIG    1       25.007 -13.987   3.216  0.00  0.00    +0.049 A 
ATOM      3  N   LIG    1       25.034 -13.324   2.032  0.00  0.00    -0.259 NA
ATOM      4  C   LIG    1       24.438 -12.112   1.967  0.00  0.00    +0.111 A 
ATOM      5  C   LIG    1       23.823 -11.503   3.047  0.00  0.00    +0.020 A 
ATOM      6  C   LIG    1       23.811 -12.179   4.258  0.00  0.00    +0.003 A 
ATOM      7  C   LIG    1       24.401 -13.440   4.352  0.00  0.00    +0.024 A 
ENDBRANCH   1   2
BRANCH   1   8
ATOM      8  C   LIG    1       24.689 -16.488   3.605  0.00  0.00    -0.038 A 
ATOM      9  C   LIG    1       25.073 -17.833   3.434  0.00  0.00    +0.004 A 
ATOM     10  C   LIG    1       24.207 -18.883   3.754  0.00  0.00    +0.000 A 
ATOM     11  C   LIG    1       22.942 -18.611   4.266  0.00  0.00    +0.000 A 
ATOM     12  C   LIG    1       22.552 -17.292   4.472  0.00  0.00    +0.000 A 
ATOM     13  C   LIG    1       23.419 -16.242   4.151  0.00  0.00    +0.004 A 
ENDBRANCH   1   8
BRANCH   1  14
ATOM     14  C   LIG    1       26.985 -15.359   4.086  0.00  0.00    +0.029 C 
BRANCH  14  15
ATOM     15  C   LIG    1       27.963 -14.228   3.721  0.00  0.00    +0.085 C 
BRANCH  15  17
ATOM     16  C   LIG    1       27.494 -13.383   5.917  0.00  0.00    +0.104 C 
ATOM     17  N   LIG    1       27.827 -13.000   4.537  0.00  0.00    -0.308 NA
ATOM     18  C   LIG    1       29.037 -12.175   4.551  0.00  0.00    +0.104 C 
ENDBRANCH  15  17
ENDBRANCH  14  15
ENDBRANCH   1  14
TORSDOF 5
ENDMDL
MODEL 4
REMARK VINA RESULT:      -4.9      1.418      5.393
REMARK  Name = *****
REMARK                            x       y       z     vdW  Elec       q    Type
REMARK                         _______ _______ _______ _____ _____    ______ ____
ROOT
ATOM      1  C   LIG    1       25.938 -17.564   3.337  0.00  0.00    +0.069 C 
ENDROOT
BRANCH   1   2
ATOM      2  C   LIG    1       25.653 -16.058   3.338  0.00  0.00    +0.049 A 
ATOM      3  N   LIG    1       26.555 -15.274   2.696  0.00  0.00    -0.259 NA
ATOM      4  C   LIG    1       26.329 -13.941   2.662  0.00  0.00    +0.111 A 
ATOM      5  C   LIG    1       25.240 -13.334   3.262  0.00  0.00    +0.020 A 
ATOM      6  C   LIG    1       24.329 -14.139   3.928  0.00  0.00    +0.003 A 
ATOM      7  C   LIG    1       24.525 -15.521   3.965  0.00  0.00    +0.024 A 
ENDBRANCH   1   2
BRANCH   1   8
ATOM      8  C   LIG    1       24.702 -18.393   3.731  0.00  0.00    -0.038 A 
ATOM      9  C   LIG    1       24.783 -19.799   3.740  0.00  0.00    +0.004 A 
ATOM     10  C   LIG    1       23.684 -20.589   4.094  0.00  0.00    +0.000 A 
ATOM     11  C   LIG    1       22.484 -19.989   4.460  0.00  0.00    +0.000 A 
ATOM     12  C   LIG    1       22.389 -18.602   4.488  0.00  0.00    +0.000 A 
ATOM     13  C   LIG    1       23.488 -17.812   4.134  0.00  0.00    +0.004 A 
ENDBRANCH   1   8
BRANCH   1  14
ATOM     14  C   LIG    1       27.227 -17.910   4.139  0.00  0.00    +0.029 C 
BRANCH  14  15
ATOM     15  C   LIG    1       27.166 -19.262   4.873  0.00  0.00    +0.085 C 
BRANCH  15  17
ATOM     16  C   LIG    1       29.300 -18.470   5.632  0.00  0.00    +0.104 C 
ATOM     17  N   LIG    1       28.405 -19.637   5.591  0.00  0.00    -0.308 NA
ATOM     18  C   LIG    1       28.165 -20.100   6.960  0.00  0.00    +0.104 C 
ENDBRANCH  15  17
ENDBRANCH  14  15
ENDBRANCH   1  14
TORSDOF 5
ENDMDL
MODEL 5
REMARK VINA RESULT:      -4.8      1.401      5.384
REMARK  Name = *****
REMARK                            x       y       z     vdW  Elec       q    Type
REMARK                         _______ _______ _______ _____ _____    ______ ____
ROOT
ATOM      1  C   LIG    1       26.379 -17.743   3.572  0.00  0.00    +0.069 C 
ENDROOT
BRANCH   1   2
ATOM      2  C   LIG    1       27.359 -18.372   4.567  0.00  0.00    +0.049 A 
ATOM      3  N   LIG    1       26.947 -19.510   5.181  0.00  0.00    -0.259 NA
ATOM      4  C   LIG    1       27.792 -20.104   6.055  0.00  0.00    +0.111 A 
ATOM      5  C   LIG    1       29.042 -19.603   6.370  0.00  0.00    +0.020 A 
ATOM      6  C   LIG    1       29.452 -18.433   5.750  0.00  0.00    +0.003 A 
ATOM      7  C   LIG    1       28.611 -17.806   4.829  0.00  0.00    +0.024 A 
ENDBRANCH   1   2
BRANCH   1   8
ATOM      8  C   LIG    1       26.391 -16.204   3.633  0.00  0.00    -0.038 A 
ATOM      9  C   LIG    1       25.172 -15.499   3.620  0.00  0.00    +0.004 A 
ATOM     10  C   LIG    1       25.139 -14.102   3.677  0.00  0.00    +0.000 A 
ATOM     11  C   LIG    1       26.324 -13.380   3.762  0.00  0.00    +0.000 A 
ATOM     12  C   LIG    1       27.540 -14.056   3.807  0.00  0.00    +0.000 A 
ATOM     13  C   LIG    1       27.573 -15.453   3.750  0.00  0.00    +0.004 A 
ENDBRANCH   1   8
BRANCH   1  14
ATOM     14  C   LIG    1       24.962 -18.379   3.673  0.00  0.00    +0.029 C 
BRANCH  14  15
ATOM     15  C   LIG    1       24.917 -19.874   3.307  0.00  0.00    +0.085 C 
BRANCH  15  17
ATOM     16  C   LIG    1       24.387 -21.571   4.918  0.00  0.00    +0.104 C 
ATOM     17  N   LIG    1       23.816 -20.636   3.938  0.00  0.00    -0.308 NA
ATOM     18  C   LIG    1       22.832 -19.785   4.611  0.00  0.00    +0.104 C 
ENDBRANCH  15  17
ENDBRANCH  14  15
ENDBRANCH   1  14
TORSDOF 5
ENDMDL
MODEL 6
REMARK VINA RESULT:      -4.8      1.210      5.475
REMARK  Name = *****
REMARK                            x       y       z     vdW  Elec       q    Type
REMARK                         _______ _______ _______ _____ _____    ______ ____
ROOT
ATOM      1  C   LIG    1       26.018 -17.773   3.473  0.00  0.00    +0.069 C 
ENDROOT
BRANCH   1   2
ATOM      2  C   LIG    1       27.065 -18.389   4.407  0.00  0.00    +0.049 A 
ATOM      3  N   LIG    1       28.236 -17.713   4.528  0.00  0.00    -0.259 NA
ATOM      4  C   LIG    1       29.179 -18.218   5.357  0.00  0.00    +0.111 A 
ATOM      5  C   LIG    1       29.021 -19.393   6.069  0.00  0.00    +0.020 A 
ATOM      6  C   LIG    1       27.828 -20.086   5.931  0.00  0.00    +0.003 A 
ATOM      7  C   LIG    1       26.828 -19.581   5.098  0.00  0.00    +0.024 A 
ENDBRANCH   1   2
BRANCH   1   8
ATOM      8  C   LIG    1       26.043 -16.234   3.502  0.00  0.00    -0.038 A 
ATOM      9  C   LIG    1       24.844 -15.523   3.713  0.00  0.00    +0.004 A 
ATOM     10  C   LIG    1       24.824 -14.125   3.749  0.00  0.00    +0.000 A 
ATOM     11  C   LIG    1       26.004 -13.407   3.588  0.00  0.00    +0.000 A 
ATOM     12  C   LIG    1       27.204 -14.087   3.408  0.00  0.00    +0.000 A 
ATOM     13  C   LIG    1       27.225 -15.485   3.372  0.00  0.00    +0.004 A 
ENDBRANCH   1   8
BRANCH   1  14
ATOM     14  C   LIG    1       24.608 -18.398   3.690  0.00  0.00    +0.029 C 
BRANCH  14  15
ATOM     15  C   LIG    1       24.507 -19.877   3.278  0.00  0.00    +0.085 C 
BRANCH  15  17
ATOM     16  C   LIG    1       24.179 -21.572   4.945  0.00  0.00    +0.104 C 
ATOM     17  N   LIG    1       23.492 -20.661   4.017  0.00  0.00    -0.308 NA
ATOM     18  C   LIG    1       22.555 -19.829   4.775  0.00  0.00    +0.104 C 
ENDBRANCH  15  17
ENDBRANCH  14  15
ENDBRANCH   1  14
TORSDOF 5
ENDMDL
MODEL 7
REMARK VINA RESULT:      -4.8      3.117      5.468
REMARK  Name = *****
REMARK                            x       y       z     vdW  Elec       q    Type
REMARK                         _______ _______ _______ _____ _____    ______ ____
ROOT
ATOM      1  C   LIG    1       25.364 -15.257   4.111  0.00  0.00    +0.069 C 
ENDROOT
BRANCH   1   2
ATOM      2  C   LIG    1       24.340 -16.396   4.060  0.00  0.00    +0.049 A 
ATOM      3  N   LIG    1       24.801 -17.602   3.642  0.00  0.00    -0.259 NA
ATOM      4  C   LIG    1       23.930 -18.636   3.599  0.00  0.00    +0.111 A 
ATOM      5  C   LIG    1       22.594 -18.525   3.939  0.00  0.00    +0.020 A 
ATOM      6  C   LIG    1       22.125 -17.288   4.352  0.00  0.00    +0.003 A 
ATOM      7  C   LIG    1       23.004 -16.205   4.425  0.00  0.00    +0.024 A 
ENDBRANCH   1   2
BRANCH   1   8
ATOM      8  C   LIG    1       24.783 -13.927   3.597  0.00  0.00    -0.038 A 
ATOM      9  C   LIG    1       24.287 -12.984   4.519  0.00  0.00    +0.004 A 
ATOM     10  C   LIG    1       23.753 -11.762   4.094  0.00  0.00    +0.000 A 
ATOM     11  C   LIG    1       23.717 -11.452   2.738  0.00  0.00    +0.000 A 
ATOM     12  C   LIG    1       24.229 -12.355   1.812  0.00  0.00    +0.000 A 
ATOM     13  C   LIG    1       24.763 -13.576   2.237  0.00  0.00    +0.004 A 
ENDBRANCH   1   8
BRANCH   1  14
ATOM     14  C   LIG    1       26.717 -15.664   3.458  0.00  0.00    +0.029 C 
BRANCH  14  15
ATOM     15  C   LIG    1       27.949 -15.000   4.099  0.00  0.00    +0.085 C 
BRANCH  15  17
ATOM     16  C   LIG    1       27.758 -13.131   5.591  0.00  0.00    +0.104 C 
ATOM     17  N   LIG    1       27.889 -13.523   4.180  0.00  0.00    -0.308 NA
ATOM     18  C   LIG    1       29.066 -12.863   3.610  0.00  0.00    +0.104 C 
ENDBRANCH  15  17
ENDBRANCH  14  15
ENDBRANCH   1  14
TORSDOF 5
ENDMDL
MODEL 8
REMARK VINA RESULT:      -4.4      1.441      4.416
REMARK  Name = *****
REMARK                            x       y       z     vdW  Elec       q    Type
REMARK                         _______ _______ _______ _____ _____    ______ ____
ROOT
ATOM      1  C   LIG    1       25.963 -18.985   4.940  0.00  0.00    +0.069 C 
ENDROOT
BRANCH   1   2
ATOM      2  C   LIG    1       27.123 -19.700   5.641  0.00  0.00    +0.049 A 
ATOM      3  N   LIG    1       28.362 -19.187   5.431  0.00  0.00    -0.259 NA
ATOM      4  C   LIG    1       29.410 -19.782   6.045  0.00  0.00    +0.111 A 
ATOM      5  C   LIG    1       29.288 -20.894   6.859  0.00  0.00    +0.020 A 
ATOM      6  C   LIG    1       28.022 -21.421   7.060  0.00  0.00    +0.003 A 
ATOM      7  C   LIG    1       26.918 -20.819   6.454  0.00  0.00    +0.024 A 
ENDBRANCH   1   2
BRANCH   1   8
ATOM      8  C   LIG    1       24.752 -19.912   4.722  0.00  0.00    -0.038 A 
ATOM      9  C   LIG    1       23.699 -19.910   5.658  0.00  0.00    +0.004 A 
ATOM     10  C   LIG    1       22.580 -20.734   5.497  0.00  0.00    +0.000 A 
ATOM     11  C   LIG    1       22.485 -21.568   4.388  0.00  0.00    +0.000 A 
ATOM     12  C   LIG    1       23.498 -21.566   3.435  0.00  0.00    +0.000 A 
ATOM     13  C   LIG    1       24.617 -20.742   3.597  0.00  0.00    +0.004 A 
ENDBRANCH   1   8
BRANCH   1  14
ATOM     14  C   LIG    1       26.434 -18.230   3.663  0.00  0.00    +0.029 C 
BRANCH  14  15
ATOM     15  C   LIG    1       25.582 -16.997   3.312  0.00  0.00    +0.085 C 
BRANCH  15  17
ATOM     16  C   LIG    1       25.452 -14.607   3.478  0.00  0.00    +0.104 C 
ATOM     17  N   LIG    1       26.343 -15.736   3.169  0.00  0.00    -0.308 NA
ATOM     18  C   LIG    1       27.519 -15.665   4.040  0.00  0.00    +0.104 C 
ENDBRANCH  15  17
ENDBRANCH  14  15
ENDBRANCH   1  14
TORSDOF 5
ENDMDL
MODEL 9
REMARK VINA RESULT:      -4.4      3.192      5.896
REMARK  Name = *****
REMARK                            x       y       z     vdW  Elec       q    Type
REMARK                         _______ _______ _______ _____ _____    ______ ____
ROOT
ATOM      1  C   LIG    1       24.333 -14.935   4.367  0.00  0.00    +0.069 C 
ENDROOT
BRANCH   1   2
ATOM      2  C   LIG    1       25.758 -14.412   4.157  0.00  0.00    +0.049 A 
ATOM      3  N   LIG    1       26.337 -14.703   2.964  0.00  0.00    -0.259 NA
ATOM      4  C   LIG    1       27.589 -14.245   2.736  0.00  0.00    +0.111 A 
ATOM      5  C   LIG    1       28.316 -13.515   3.658  0.00  0.00    +0.020 A 
ATOM      6  C   LIG    1       27.725 -13.232   4.880  0.00  0.00    +0.003 A 
ATOM      7  C   LIG    1       26.427 -13.675   5.139  0.00  0.00    +0.024 A 
ENDBRANCH   1   2
BRANCH   1   8
ATOM      8  C   LIG    1       24.217 -16.445   4.086  0.00  0.00    -0.038 A 
ATOM      9  C   LIG    1       22.990 -17.100   4.310  0.00  0.00    +0.004 A 
ATOM     10  C   LIG    1       22.841 -18.469   4.065  0.00  0.00    +0.000 A 
ATOM     11  C   LIG    1       23.913 -19.210   3.578  0.00  0.00    +0.000 A 
ATOM     12  C   LIG    1       25.126 -18.578   3.321  0.00  0.00    +0.000 A 
ATOM     13  C   LIG    1       25.274 -17.209   3.565  0.00  0.00    +0.004 A 
ENDBRANCH   1   8
BRANCH   1  14
ATOM     14  C   LIG    1       23.280 -14.060   3.626  0.00  0.00    +0.029 C 
BRANCH  14  15
ATOM     15  C   LIG    1       23.801 -13.409   2.333  0.00  0.00    +0.085 C 
BRANCH  15  17
ATOM     16  C   LIG    1       23.771 -11.495   3.779  0.00  0.00    +0.104 C 
ATOM     17  N   LIG    1       23.931 -11.936   2.385  0.00  0.00    -0.308 NA
ATOM     18  C   LIG    1       25.215 -11.447   1.878  0.00  0.00    +0.104 C 
ENDBRANCH  15  17
ENDBRANCH  14  15
ENDBRANCH   1  14
TORSDOF 5
ENDMDL
