MODEL 1
REMARK VINA RESULT:      -7.6      0.000      0.000
REMARK  Name = *****
REMARK                            x       y       z     vdW  Elec       q    Type
REMARK                         _______ _______ _______ _____ _____    ______ ____
ROOT
ATOM      1  C   LIG    1       27.421 -21.481   7.637  0.00  0.00    +0.234 C 
ATOM      2  N   LIG    1       26.642 -21.933   6.592  0.00  0.00    -0.284 N 
ATOM      3  H   LIG    1       26.941 -21.597   5.680  0.00  0.00    +0.155 HD
ATOM      4  O   LIG    1       27.317 -21.818   8.819  0.00  0.00    -0.274 OA
ENDROOT
BRANCH   2   5
ATOM      5  C   LIG    1       25.476 -22.737   6.658  0.00  0.00    +0.036 A 
ATOM      6  C   LIG    1       24.223 -22.142   6.909  0.00  0.00    -0.029 A 
ATOM      7  C   LIG    1       24.049 -20.671   7.170  0.00  0.00    +0.045 C 
ATOM      8  C   LIG    1       23.060 -22.937   6.853  0.00  0.00    +0.005 A 
ATOM      9  C   LIG    1       23.136 -24.311   6.630  0.00  0.00    +0.000 A 
ATOM     10  C   LIG    1       24.377 -24.909   6.469  0.00  0.00    +0.002 A 
ATOM     11  C   LIG    1       25.535 -24.128   6.480  0.00  0.00    +0.023 A 
ENDBRANCH   2   5
BRANCH   1  12
ATOM     12  C   LIG    1       28.547 -20.510   7.229  0.00  0.00    +0.138 C 
ATOM     13  C   LIG    1       28.194 -19.790   5.926  0.00  0.00    +0.034 C 
BRANCH  12  14
ATOM     14  N   LIG    1       28.824 -19.515   8.303  0.00  0.00    -0.306 NA
ATOM     15  H   LIG    1       28.372 -18.637   8.030  0.00  0.00    +0.123 HD
BRANCH  14  16
ATOM     16  C   LIG    1       30.271 -19.258   8.418  0.00  0.00    +0.081 C 
BRANCH  16  18
ATOM     17  C   LIG    1       30.380 -17.551  10.271  0.00  0.00    +0.005 C 
ATOM     18  C   LIG    1       30.518 -17.791   8.774  0.00  0.00    +0.012 C 
ENDBRANCH  16  18
ENDBRANCH  14  16
ENDBRANCH  12  14
ENDBRANCH   1  12
TORSDOF 5
ENDMDL
MODEL 2
REMARK VINA RESULT:      -7.5      0.788      1.874
REMARK  Name = *****
REMARK                            x       y       z     vdW  Elec       q    Type
REMARK                         _______ _______ _______ _____ _____    ______ ____
ROOT
ATOM      1  C   LIG    1       27.482 -21.527   7.575  0.00  0.00    +0.234 C 
ATOM      2  N   LIG    1       26.675 -21.897   6.520  0.00  0.00    -0.284 N 
ATOM      3  H   LIG    1       27.129 -21.832   5.612  0.00  0.00    +0.155 HD
ATOM      4  O   LIG    1       27.193 -21.604   8.772  0.00  0.00    -0.274 OA
ENDROOT
BRANCH   2   5
ATOM      5  C   LIG    1       25.312 -22.286   6.558  0.00  0.00    +0.036 A 
ATOM      6  C   LIG    1       24.970 -23.653   6.569  0.00  0.00    -0.029 A 
ATOM      7  C   LIG    1       25.988 -24.757   6.488  0.00  0.00    +0.045 C 
ATOM      8  C   LIG    1       23.618 -24.022   6.728  0.00  0.00    +0.005 A 
ATOM      9  C   LIG    1       22.611 -23.061   6.797  0.00  0.00    +0.000 A 
ATOM     10  C   LIG    1       22.942 -21.717   6.699  0.00  0.00    +0.002 A 
ATOM     11  C   LIG    1       24.281 -21.335   6.585  0.00  0.00    +0.023 A 
ENDBRANCH   2   5
BRANCH   1  12
ATOM     12  C   LIG    1       28.884 -21.029   7.172  0.00  0.00    +0.138 C 
ATOM     13  C   LIG    1       28.783 -19.912   6.131  0.00  0.00    +0.034 C 
BRANCH  12  14
ATOM     14  N   LIG    1       29.655 -20.555   8.357  0.00  0.00    -0.306 NA
ATOM     15  H   LIG    1       29.085 -19.847   8.828  0.00  0.00    +0.123 HD
BRANCH  14  16
ATOM     16  C   LIG    1       30.914 -19.913   7.939  0.00  0.00    +0.081 C 
BRANCH  16  18
ATOM     17  C   LIG    1       30.170 -17.755   9.009  0.00  0.00    +0.005 C 
ATOM     18  C   LIG    1       31.281 -18.791   8.912  0.00  0.00    +0.012 C 
ENDBRANCH  16  18
ENDBRANCH  14  16
ENDBRANCH  12  14
ENDBRANCH   1  12
TORSDOF 5
ENDMDL
MODEL 3
REMARK VINA RESULT:      -7.4      1.831      2.325
REMARK  Name = *****
REMARK                            x       y       z     vdW  Elec       q    Type
REMARK                         _______ _______ _______ _____ _____    ______ ____
ROOT
ATOM      1  C   LIG    1       27.949 -20.208   6.927  0.00  0.00    +0.234 C 
ATOM      2  N   LIG    1       27.036 -20.585   5.964  0.00  0.00    -0.284 N 
ATOM      3  H   LIG    1       27.444 -20.725   5.042  0.00  0.00    +0.155 HD
ATOM      4  O   LIG    1       27.718 -20.067   8.130  0.00  0.00    -0.274 OA
ENDROOT
BRANCH   2   5
ATOM      5  C   LIG    1       25.633 -20.733   6.103  0.00  0.00    +0.036 A 
ATOM      6  C   LIG    1       24.772 -20.275   5.085  0.00  0.00    -0.029 A 
ATOM      7  C   LIG    1       25.261 -19.572   3.849  0.00  0.00    +0.045 C 
ATOM      8  C   LIG    1       23.390 -20.537   5.184  0.00  0.00    +0.005 A 
ATOM      9  C   LIG    1       22.855 -21.172   6.304  0.00  0.00    +0.000 A 
ATOM     10  C   LIG    1       23.693 -21.544   7.344  0.00  0.00    +0.002 A 
ATOM     11  C   LIG    1       25.070 -21.330   7.241  0.00  0.00    +0.023 A 
ENDBRANCH   2   5
BRANCH   1  12
ATOM     12  C   LIG    1       29.388 -20.012   6.410  0.00  0.00    +0.138 C 
ATOM     13  C   LIG    1       29.569 -18.606   5.835  0.00  0.00    +0.034 C 
BRANCH  12  14
ATOM     14  N   LIG    1       30.392 -20.258   7.484  0.00  0.00    -0.306 NA
ATOM     15  H   LIG    1       29.881 -20.313   8.371  0.00  0.00    +0.123 HD
BRANCH  14  16
ATOM     16  C   LIG    1       31.341 -19.135   7.581  0.00  0.00    +0.081 C 
BRANCH  16  18
ATOM     17  C   LIG    1       30.198 -17.859   9.431  0.00  0.00    +0.005 C 
ATOM     18  C   LIG    1       31.435 -18.649   9.028  0.00  0.00    +0.012 C 
ENDBRANCH  16  18
ENDBRANCH  14  16
ENDBRANCH  12  14
ENDBRANCH   1  12
TORSDOF 5
ENDMDL
MODEL 4
REMARK VINA RESULT:      -7.2      1.730      6.356
REMARK  Name = *****
REMARK                            x       y       z     vdW  Elec       q    Type
REMARK                         _______ _______ _______ _____ _____    ______ ____
ROOT
ATOM      1  C   LIG    1       26.183 -20.622   6.567  0.00  0.00    +0.234 C 
ATOM      2  N   LIG    1       27.451 -20.631   6.024  0.00  0.00    -0.284 N 
ATOM      3  H   LIG    1       27.473 -20.859   5.032  0.00  0.00    +0.155 HD
ATOM      4  O   LIG    1       25.889 -20.289   7.718  0.00  0.00    -0.274 OA
ENDROOT
BRANCH   2   5
ATOM      5  C   LIG    1       28.686 -20.427   6.689  0.00  0.00    +0.036 A 
ATOM      6  C   LIG    1       29.476 -19.301   6.378  0.00  0.00    -0.029 A 
ATOM      7  C   LIG    1       29.103 -18.303   5.317  0.00  0.00    +0.045 C 
ATOM      8  C   LIG    1       30.641 -19.049   7.132  0.00  0.00    +0.005 A 
ATOM      9  C   LIG    1       31.063 -19.932   8.125  0.00  0.00    +0.000 A 
ATOM     10  C   LIG    1       30.331 -21.084   8.370  0.00  0.00    +0.002 A 
ATOM     11  C   LIG    1       29.151 -21.325   7.661  0.00  0.00    +0.023 A 
ENDBRANCH   2   5
BRANCH   1  12
ATOM     12  C   LIG    1       25.060 -21.016   5.588  0.00  0.00    +0.138 C 
ATOM     13  C   LIG    1       25.140 -20.182   4.308  0.00  0.00    +0.034 C 
BRANCH  12  14
ATOM     14  N   LIG    1       25.110 -22.468   5.256  0.00  0.00    -0.306 NA
ATOM     15  H   LIG    1       24.254 -22.693   4.740  0.00  0.00    +0.123 HD
BRANCH  14  16
ATOM     16  C   LIG    1       25.123 -23.286   6.482  0.00  0.00    +0.081 C 
BRANCH  16  18
ATOM     17  C   LIG    1       24.080 -25.555   6.138  0.00  0.00    +0.005 C 
ATOM     18  C   LIG    1       23.842 -24.116   6.575  0.00  0.00    +0.012 C 
ENDBRANCH  16  18
ENDBRANCH  14  16
ENDBRANCH  12  14
ENDBRANCH   1  12
TORSDOF 5
ENDMDL
MODEL 5
REMARK VINA RESULT:      -7.2      2.173      6.334
REMARK  Name = *****
REMARK                            x       y       z     vdW  Elec       q    Type
REMARK                         _______ _______ _______ _____ _____    ______ ____
ROOT
ATOM      1  C   LIG    1       26.402 -20.755   6.994  0.00  0.00    +0.234 C 
ATOM      2  N   LIG    1       27.637 -20.816   6.383  0.00  0.00    -0.284 N 
ATOM      3  H   LIG    1       27.609 -21.176   5.432  0.00  0.00    +0.155 HD
ATOM      4  O   LIG    1       26.165 -20.274   8.105  0.00  0.00    -0.274 OA
ENDROOT
BRANCH   2   5
ATOM      5  C   LIG    1       28.902 -20.498   6.940  0.00  0.00    +0.036 A 
ATOM      6  C   LIG    1       29.600 -19.356   6.497  0.00  0.00    -0.029 A 
ATOM      7  C   LIG    1       29.094 -18.456   5.403  0.00  0.00    +0.045 C 
ATOM      8  C   LIG    1       30.798 -18.988   7.144  0.00  0.00    +0.005 A 
ATOM      9  C   LIG    1       31.341 -19.775   8.158  0.00  0.00    +0.000 A 
ATOM     10  C   LIG    1       30.697 -20.945   8.533  0.00  0.00    +0.002 A 
ATOM     11  C   LIG    1       29.487 -21.300   7.931  0.00  0.00    +0.023 A 
ENDBRANCH   2   5
BRANCH   1  12
ATOM     12  C   LIG    1       25.236 -21.302   6.147  0.00  0.00    +0.138 C 
ATOM     13  C   LIG    1       23.894 -21.006   6.819  0.00  0.00    +0.034 C 
BRANCH  12  14
ATOM     14  N   LIG    1       25.253 -20.736   4.768  0.00  0.00    -0.306 NA
ATOM     15  H   LIG    1       25.659 -19.797   4.829  0.00  0.00    +0.123 HD
BRANCH  14  16
ATOM     16  C   LIG    1       23.883 -20.599   4.241  0.00  0.00    +0.081 C 
BRANCH  16  18
ATOM     17  C   LIG    1       22.333 -18.616   4.387  0.00  0.00    +0.005 C 
ATOM     18  C   LIG    1       23.630 -19.158   3.800  0.00  0.00    +0.012 C 
ENDBRANCH  16  18
ENDBRANCH  14  16
ENDBRANCH  12  14
ENDBRANCH   1  12
TORSDOF 5
ENDMDL
MODEL 6
REMARK VINA RESULT:      -7.0      1.521      6.537
REMARK  Name = *****
REMARK                            x       y       z     vdW  Elec       q    Type
REMARK                         _______ _______ _______ _____ _____    ______ ____
ROOT
ATOM      1  C   LIG    1       26.537 -21.491   8.004  0.00  0.00    +0.234 C 
ATOM      2  N   LIG    1       27.598 -21.480   7.122  0.00  0.00    -0.284 N 
ATOM      3  H   LIG    1       27.451 -22.053   6.294  0.00  0.00    +0.155 HD
ATOM      4  O   LIG    1       26.438 -20.810   9.028  0.00  0.00    -0.274 OA
ENDROOT
BRANCH   2   5
ATOM      5  C   LIG    1       28.849 -20.830   7.270  0.00  0.00    +0.036 A 
ATOM      6  C   LIG    1       29.173 -19.730   6.451  0.00  0.00    -0.029 A 
ATOM      7  C   LIG    1       28.268 -19.221   5.361  0.00  0.00    +0.045 C 
ATOM      8  C   LIG    1       30.368 -19.021   6.691  0.00  0.00    +0.005 A 
ATOM      9  C   LIG    1       31.267 -19.435   7.673  0.00  0.00    +0.000 A 
ATOM     10  C   LIG    1       30.987 -20.569   8.420  0.00  0.00    +0.002 A 
ATOM     11  C   LIG    1       29.787 -21.256   8.223  0.00  0.00    +0.023 A 
ENDBRANCH   2   5
BRANCH   1  12
ATOM     12  C   LIG    1       25.370 -22.411   7.598  0.00  0.00    +0.138 C 
ATOM     13  C   LIG    1       24.085 -21.603   7.405  0.00  0.00    +0.034 C 
BRANCH  12  14
ATOM     14  N   LIG    1       25.684 -23.174   6.356  0.00  0.00    -0.306 NA
ATOM     15  H   LIG    1       24.953 -22.957   5.672  0.00  0.00    +0.123 HD
BRANCH  14  16
ATOM     16  C   LIG    1       25.645 -24.625   6.609  0.00  0.00    +0.081 C 
BRANCH  16  18
ATOM     17  C   LIG    1       24.313 -26.665   5.960  0.00  0.00    +0.005 C 
ATOM     18  C   LIG    1       24.256 -25.179   6.287  0.00  0.00    +0.012 C 
ENDBRANCH  16  18
ENDBRANCH  14  16
ENDBRANCH  12  14
ENDBRANCH   1  12
TORSDOF 5
ENDMDL
MODEL 7
REMARK VINA RESULT:      -6.9      4.495      6.878
REMARK  Name = *****
REMARK                            x       y       z     vdW  Elec       q    Type
REMARK                         _______ _______ _______ _____ _____    ______ ____
ROOT
ATOM      1  C   LIG    1       24.834 -22.977   5.701  0.00  0.00    +0.234 C 
ATOM      2  N   LIG    1       24.486 -22.379   4.508  0.00  0.00    -0.284 N 
ATOM      3  H   LIG    1       24.534 -23.001   3.705  0.00  0.00    +0.155 HD
ATOM      4  O   LIG    1       24.769 -22.460   6.819  0.00  0.00    -0.274 OA
ENDROOT
BRANCH   2   5
ATOM      5  C   LIG    1       24.139 -21.023   4.281  0.00  0.00    +0.036 A 
ATOM      6  C   LIG    1       22.843 -20.565   4.593  0.00  0.00    -0.029 A 
ATOM      7  C   LIG    1       21.757 -21.465   5.117  0.00  0.00    +0.045 C 
ATOM      8  C   LIG    1       22.551 -19.190   4.473  0.00  0.00    +0.005 A 
ATOM      9  C   LIG    1       23.498 -18.293   3.982  0.00  0.00    +0.000 A 
ATOM     10  C   LIG    1       24.745 -18.759   3.595  0.00  0.00    +0.002 A 
ATOM     11  C   LIG    1       25.063 -20.111   3.748  0.00  0.00    +0.023 A 
ENDBRANCH   2   5
BRANCH   1  12
ATOM     12  C   LIG    1       25.288 -24.445   5.578  0.00  0.00    +0.138 C 
ATOM     13  C   LIG    1       26.009 -24.896   6.849  0.00  0.00    +0.034 C 
BRANCH  12  14
ATOM     14  N   LIG    1       24.137 -25.349   5.296  0.00  0.00    -0.306 NA
ATOM     15  H   LIG    1       23.284 -24.852   5.570  0.00  0.00    +0.123 HD
BRANCH  14  16
ATOM     16  C   LIG    1       24.222 -26.576   6.107  0.00  0.00    +0.081 C 
BRANCH  16  18
ATOM     17  C   LIG    1       24.124 -29.084   5.868  0.00  0.00    +0.005 C 
ATOM     18  C   LIG    1       24.548 -27.775   5.216  0.00  0.00    +0.012 C 
ENDBRANCH  16  18
ENDBRANCH  14  16
ENDBRANCH  12  14
ENDBRANCH   1  12
TORSDOF 5
ENDMDL
MODEL 8
REMARK VINA RESULT:      -6.8      2.404      4.064
REMARK  Name = *****
REMARK                            x       y       z     vdW  Elec       q    Type
REMARK                         _______ _______ _______ _____ _____    ______ ____
ROOT
ATOM      1  C   LIG    1       25.062 -21.305   7.615  0.00  0.00    +0.234 C 
ATOM      2  N   LIG    1       24.768 -21.383   6.270  0.00  0.00    -0.284 N 
ATOM      3  H   LIG    1       25.144 -22.210   5.812  0.00  0.00    +0.155 HD
ATOM      4  O   LIG    1       24.645 -20.451   8.401  0.00  0.00    -0.274 OA
ENDROOT
BRANCH   2   5
ATOM      5  C   LIG    1       24.074 -20.437   5.473  0.00  0.00    +0.036 A 
ATOM      6  C   LIG    1       24.777 -19.660   4.529  0.00  0.00    -0.029 A 
ATOM      7  C   LIG    1       26.268 -19.738   4.347  0.00  0.00    +0.045 C 
ATOM      8  C   LIG    1       24.057 -18.812   3.663  0.00  0.00    +0.005 A 
ATOM      9  C   LIG    1       22.675 -18.672   3.776  0.00  0.00    +0.000 A 
ATOM     10  C   LIG    1       21.995 -19.372   4.762  0.00  0.00    +0.002 A 
ATOM     11  C   LIG    1       22.690 -20.249   5.599  0.00  0.00    +0.023 A 
ENDBRANCH   2   5
BRANCH   1  12
ATOM     12  C   LIG    1       25.951 -22.446   8.147  0.00  0.00    +0.138 C 
ATOM     13  C   LIG    1       26.165 -23.512   7.071  0.00  0.00    +0.034 C 
BRANCH  12  14
ATOM     14  N   LIG    1       27.267 -21.934   8.627  0.00  0.00    -0.306 NA
ATOM     15  H   LIG    1       27.079 -21.108   9.204  0.00  0.00    +0.123 HD
BRANCH  14  16
ATOM     16  C   LIG    1       28.108 -21.509   7.495  0.00  0.00    +0.081 C 
BRANCH  16  18
ATOM     17  C   LIG    1       29.338 -19.558   6.476  0.00  0.00    +0.005 C 
ATOM     18  C   LIG    1       28.505 -20.041   7.655  0.00  0.00    +0.012 C 
ENDBRANCH  16  18
ENDBRANCH  14  16
ENDBRANCH  12  14
ENDBRANCH   1  12
TORSDOF 5
ENDMDL
MODEL 9
REMARK VINA RESULT:      -6.8      3.642      7.026
REMARK  Name = *****
REMARK                            x       y       z     vdW  Elec       q    Type
REMARK                         _______ _______ _______ _____ _____    ______ ____
ROOT
ATOM      1  C   LIG    1       24.549 -25.248   5.882  0.00  0.00    +0.234 C 
ATOM      2  N   LIG    1       25.489 -24.244   5.773  0.00  0.00    -0.284 N 
ATOM      3  H   LIG    1       26.247 -24.457   5.128  0.00  0.00    +0.155 HD
ATOM      4  O   LIG    1       23.499 -25.191   6.525  0.00  0.00    -0.274 OA
ENDROOT
BRANCH   2   5
ATOM      5  C   LIG    1       25.543 -23.019   6.484  0.00  0.00    +0.036 A 
ATOM      6  C   LIG    1       25.038 -21.841   5.897  0.00  0.00    -0.029 A 
ATOM      7  C   LIG    1       24.477 -21.793   4.502  0.00  0.00    +0.045 C 
ATOM      8  C   LIG    1       24.990 -20.657   6.661  0.00  0.00    +0.005 A 
ATOM      9  C   LIG    1       25.502 -20.615   7.957  0.00  0.00    +0.000 A 
ATOM     10  C   LIG    1       26.077 -21.753   8.502  0.00  0.00    +0.002 A 
ATOM     11  C   LIG    1       26.093 -22.944   7.772  0.00  0.00    +0.023 A 
ENDBRANCH   2   5
BRANCH   1  12
ATOM     12  C   LIG    1       24.860 -26.514   5.060  0.00  0.00    +0.138 C 
ATOM     13  C   LIG    1       26.336 -26.893   5.187  0.00  0.00    +0.034 C 
BRANCH  12  14
ATOM     14  N   LIG    1       24.001 -27.659   5.477  0.00  0.00    -0.306 NA
ATOM     15  H   LIG    1       23.486 -27.364   6.312  0.00  0.00    +0.123 HD
BRANCH  14  16
ATOM     16  C   LIG    1       24.823 -28.825   5.844  0.00  0.00    +0.081 C 
BRANCH  16  18
ATOM     17  C   LIG    1       25.549 -29.010   8.251  0.00  0.00    +0.005 C 
ATOM     18  C   LIG    1       24.449 -29.314   7.243  0.00  0.00    +0.012 C 
ENDBRANCH  16  18
ENDBRANCH  14  16
ENDBRANCH  12  14
ENDBRANCH   1  12
TORSDOF 5
ENDMDL
