MODEL 1
REMARK VINA RESULT:       5.9      0.000      0.000
REMARK  Name = *****
REMARK                            x       y       z     vdW  Elec       q    Type
REMARK                         _______ _______ _______ _____ _____    ______ ____
ROOT
ATOM      1  C   LIG    1       25.406 -13.201   4.456  0.00  0.00    +0.176 C 
ATOM      2  C   LIG    1       25.257 -14.379   3.412  0.00  0.00    +0.018 C 
ATOM      3  C   LIG    1       24.866 -13.881   2.007  0.00  0.00    +0.016 C 
ATOM      4  C   LIG    1       24.133 -15.237   4.033  0.00  0.00    +0.006 C 
ATOM      5  C   LIG    1       23.936 -16.597   3.340  0.00  0.00    +0.020 C 
ATOM      6  C   LIG    1       25.190 -17.416   2.972  0.00  0.00    +0.006 C 
ATOM      7  C   LIG    1       26.373 -16.537   2.519  0.00  0.00    +0.006 C 
ATOM      8  C   LIG    1       25.547 -18.652   3.894  0.00  0.00    -0.003 C 
ATOM      9  C   LIG    1       25.997 -19.786   2.913  0.00  0.00    +0.016 C 
ATOM     10  C   LIG    1       24.367 -19.183   4.730  0.00  0.00    -0.035 C 
ATOM     11  C   LIG    1       24.580 -20.073   5.721  0.00  0.00    +0.050 C 
ATOM     12  C   LIG    1       25.947 -20.481   6.118  0.00  0.00    +0.156 C 
ATOM     13  O   LIG    1       26.098 -21.484   6.813  0.00  0.00    -0.293 OA
ATOM     14  C   LIG    1       27.119 -19.636   5.676  0.00  0.00    +0.080 C 
ATOM     15  C   LIG    1       23.025 -18.644   4.507  0.00  0.00    -0.050 C 
ATOM     16  C   LIG    1       21.815 -19.426   4.961  0.00  0.00    +0.044 C 
ATOM     17  C   LIG    1       26.702 -18.385   4.895  0.00  0.00    +0.019 C 
ATOM     18  C   LIG    1       22.851 -17.443   3.932  0.00  0.00    -0.019 C 
ATOM     19  C   LIG    1       24.434 -15.217   5.538  0.00  0.00    +0.009 C 
ATOM     20  C   LIG    1       26.551 -15.246   3.320  0.00  0.00    +0.011 C 
ATOM     21  C   LIG    1       25.310 -13.975   5.796  0.00  0.00    +0.057 C 
ENDROOT
BRANCH   1  22
ATOM     22  C   LIG    1       24.211 -12.187   4.371  0.00  0.00    +0.174 C 
ATOM     23  O   LIG    1       23.632 -11.946   3.306  0.00  0.00    -0.293 OA
ATOM     24  C   LIG    1       23.779 -11.447   5.615  0.00  0.00    +0.090 C 
ENDBRANCH   1  22
BRANCH   1  25
ATOM     25  O   LIG    1       26.700 -12.581   4.275  0.00  0.00    -0.450 OA
BRANCH  25  27
ATOM     26  C   LIG    1       29.015 -13.045   4.061  0.00  0.00    +0.136 C 
ATOM     27  C   LIG    1       27.777 -13.120   4.914  0.00  0.00    +0.305 C 
ATOM     28  O   LIG    1       27.772 -13.550   6.051  0.00  0.00    -0.251 OA
ENDBRANCH  25  27
ENDBRANCH   1  25
TORSDOF 3
ENDMDL
MODEL 2
REMARK VINA RESULT:       6.3      1.279      1.603
REMARK  Name = *****
REMARK                            x       y       z     vdW  Elec       q    Type
REMARK                         _______ _______ _______ _____ _____    ______ ____
ROOT
ATOM      1  C   LIG    1       25.963 -13.855   4.679  0.00  0.00    +0.176 C 
ATOM      2  C   LIG    1       25.839 -15.054   3.656  0.00  0.00    +0.018 C 
ATOM      3  C   LIG    1       26.203 -14.645   2.215  0.00  0.00    +0.016 C 
ATOM      4  C   LIG    1       24.346 -15.436   3.767  0.00  0.00    +0.006 C 
ATOM      5  C   LIG    1       23.985 -16.746   3.044  0.00  0.00    +0.020 C 
ATOM      6  C   LIG    1       24.932 -17.952   3.206  0.00  0.00    +0.006 C 
ATOM      7  C   LIG    1       26.418 -17.547   3.272  0.00  0.00    +0.006 C 
ATOM      8  C   LIG    1       24.476 -19.109   4.185  0.00  0.00    -0.003 C 
ATOM      9  C   LIG    1       24.857 -20.442   3.460  0.00  0.00    +0.016 C 
ATOM     10  C   LIG    1       22.962 -19.137   4.473  0.00  0.00    -0.035 C 
ATOM     11  C   LIG    1       22.471 -19.914   5.461  0.00  0.00    +0.050 C 
ATOM     12  C   LIG    1       23.362 -20.669   6.370  0.00  0.00    +0.156 C 
ATOM     13  O   LIG    1       22.892 -21.571   7.061  0.00  0.00    -0.293 OA
ATOM     14  C   LIG    1       24.823 -20.291   6.442  0.00  0.00    +0.080 C 
ATOM     15  C   LIG    1       22.071 -18.243   3.733  0.00  0.00    -0.050 C 
ATOM     16  C   LIG    1       20.593 -18.549   3.657  0.00  0.00    +0.044 C 
ATOM     17  C   LIG    1       25.180 -19.085   5.568  0.00  0.00    +0.019 C 
ATOM     18  C   LIG    1       22.542 -17.131   3.145  0.00  0.00    -0.019 C 
ATOM     19  C   LIG    1       24.039 -15.316   5.266  0.00  0.00    +0.009 C 
ATOM     20  C   LIG    1       26.699 -16.282   4.085  0.00  0.00    +0.011 C 
ATOM     21  C   LIG    1       25.111 -14.383   5.863  0.00  0.00    +0.057 C 
ENDROOT
BRANCH   1  22
ATOM     22  C   LIG    1       25.304 -12.541   4.128  0.00  0.00    +0.174 C 
ATOM     23  O   LIG    1       25.466 -12.169   2.961  0.00  0.00    -0.293 OA
ATOM     24  C   LIG    1       24.483 -11.680   5.058  0.00  0.00    +0.090 C 
ENDBRANCH   1  22
BRANCH   1  25
ATOM     25  O   LIG    1       27.354 -13.694   5.038  0.00  0.00    -0.450 OA
BRANCH  25  27
ATOM     26  C   LIG    1       28.808 -11.840   4.776  0.00  0.00    +0.136 C 
ATOM     27  C   LIG    1       28.188 -13.065   4.161  0.00  0.00    +0.305 C 
ATOM     28  O   LIG    1       28.458 -13.465   3.045  0.00  0.00    -0.251 OA
ENDBRANCH  25  27
ENDBRANCH   1  25
TORSDOF 3
ENDMDL
