MODEL 1
REMARK VINA RESULT:     -10.6      0.000      0.000
REMARK  Name = *****
REMARK                            x       y       z     vdW  Elec       q    Type
REMARK                         _______ _______ _______ _____ _____    ______ ____
ROOT
ATOM      1  C   LIG    1       26.277 -21.197   6.186  0.00  0.00    +0.028 C 
ATOM      2  C   LIG    1       26.980 -20.342   7.287  0.00  0.00    +0.048 C 
ATOM      3  C   LIG    1       26.143 -20.350   8.577  0.00  0.00    +0.088 C 
ATOM      4  N   LIG    1       25.943 -21.707   9.087  0.00  0.00    -0.316 NA
ATOM      5  H   LIG    1       25.374 -21.669   9.935  0.00  0.00    +0.122 HD
ATOM      6  C   LIG    1       25.278 -22.562   8.102  0.00  0.00    +0.081 C 
ATOM      7  C   LIG    1       26.046 -22.610   6.780  0.00  0.00    +0.023 C 
ENDROOT
BRANCH   1  12
ATOM      8  F   LIG    1       21.632 -18.702   3.986  0.00  0.00    -0.205 F 
ATOM      9  C   LIG    1       22.719 -19.293   4.499  0.00  0.00    +0.123 A 
ATOM     10  C   LIG    1       22.636 -19.947   5.716  0.00  0.00    +0.038 A 
ATOM     11  C   LIG    1       23.775 -20.558   6.254  0.00  0.00    +0.007 A 
ATOM     12  C   LIG    1       25.012 -20.550   5.576  0.00  0.00    -0.044 A 
ATOM     13  C   LIG    1       25.059 -19.845   4.356  0.00  0.00    +0.007 A 
ATOM     14  C   LIG    1       23.920 -19.230   3.817  0.00  0.00    +0.038 A 
ENDBRANCH   1  12
BRANCH   2  15
ATOM     15  C   LIG    1       28.422 -20.798   7.601  0.00  0.00    +0.234 C 
BRANCH  15  16
ATOM     16  O   LIG    1       29.365 -19.892   7.014  0.00  0.00    -0.491 OA
BRANCH  16  17
ATOM     17  C   LIG    1       30.077 -19.153   7.924  0.00  0.00    +0.124 A 
ATOM     18  C   LIG    1       29.535 -18.611   9.094  0.00  0.00    +0.095 A 
ATOM     19  C   LIG    1       30.347 -17.803   9.862  0.00  0.00    +0.170 A 
ATOM     20  O   LIG    1       29.967 -17.145  10.991  0.00  0.00    -0.453 OA
ATOM     21  C   LIG    1       31.158 -16.377  11.264  0.00  0.00    +0.466 C 
ATOM     22  O   LIG    1       32.265 -16.714  10.403  0.00  0.00    -0.453 OA
ATOM     23  C   LIG    1       31.658 -17.563   9.530  0.00  0.00    +0.167 A 
ATOM     24  C   LIG    1       32.240 -18.137   8.423  0.00  0.00    +0.053 A 
ATOM     25  C   LIG    1       31.435 -18.948   7.612  0.00  0.00    +0.049 A 
ENDBRANCH  16  17
ENDBRANCH  15  16
ENDBRANCH   2  15
TORSDOF 4
ENDMDL
MODEL 2
REMARK VINA RESULT:     -10.3      3.430      4.888
REMARK  Name = *****
REMARK                            x       y       z     vdW  Elec       q    Type
REMARK                         _______ _______ _______ _____ _____    ______ ____
ROOT
ATOM      1  C   LIG    1       25.030 -22.889   6.932  0.00  0.00    +0.028 C 
ATOM      2  C   LIG    1       25.506 -21.917   5.807  0.00  0.00    +0.048 C 
ATOM      3  C   LIG    1       24.466 -21.871   4.675  0.00  0.00    +0.088 C 
ATOM      4  N   LIG    1       23.156 -21.431   5.157  0.00  0.00    -0.316 NA
ATOM      5  H   LIG    1       22.494 -21.426   4.379  0.00  0.00    +0.122 HD
ATOM      6  C   LIG    1       22.647 -22.308   6.213  0.00  0.00    +0.081 C 
ATOM      7  C   LIG    1       23.625 -22.415   7.384  0.00  0.00    +0.023 C 
ENDROOT
BRANCH   1  12
ATOM      8  F   LIG    1       25.322 -28.401   5.458  0.00  0.00    -0.205 F 
ATOM      9  C   LIG    1       25.252 -27.111   5.809  0.00  0.00    +0.123 A 
ATOM     10  C   LIG    1       24.019 -26.490   5.908  0.00  0.00    +0.038 A 
ATOM     11  C   LIG    1       23.949 -25.139   6.269  0.00  0.00    +0.007 A 
ATOM     12  C   LIG    1       25.106 -24.389   6.565  0.00  0.00    -0.044 A 
ATOM     13  C   LIG    1       26.342 -25.052   6.421  0.00  0.00    +0.007 A 
ATOM     14  C   LIG    1       26.414 -26.404   6.056  0.00  0.00    +0.038 A 
ENDBRANCH   1  12
BRANCH   2  15
ATOM     15  C   LIG    1       25.795 -20.484   6.305  0.00  0.00    +0.234 C 
BRANCH  15  16
ATOM     16  O   LIG    1       26.889 -19.918   5.570  0.00  0.00    -0.491 OA
BRANCH  16  17
ATOM     17  C   LIG    1       28.102 -20.017   6.203  0.00  0.00    +0.124 A 
ATOM     18  C   LIG    1       28.403 -20.966   7.185  0.00  0.00    +0.095 A 
ATOM     19  C   LIG    1       29.631 -20.879   7.807  0.00  0.00    +0.170 A 
ATOM     20  O   LIG    1       30.061 -21.675   8.823  0.00  0.00    -0.453 OA
ATOM     21  C   LIG    1       31.317 -21.041   9.144  0.00  0.00    +0.466 C 
ATOM     22  O   LIG    1       31.684 -19.999   8.217  0.00  0.00    -0.453 OA
ATOM     23  C   LIG    1       30.558 -19.928   7.455  0.00  0.00    +0.167 A 
ATOM     24  C   LIG    1       30.319 -19.024   6.446  0.00  0.00    +0.053 A 
ATOM     25  C   LIG    1       29.072 -19.076   5.809  0.00  0.00    +0.049 A 
ENDBRANCH  16  17
ENDBRANCH  15  16
ENDBRANCH   2  15
TORSDOF 4
ENDMDL
MODEL 3
REMARK VINA RESULT:     -10.1      2.985      4.304
REMARK  Name = *****
REMARK                            x       y       z     vdW  Elec       q    Type
REMARK                         _______ _______ _______ _____ _____    ______ ____
ROOT
ATOM      1  C   LIG    1       25.613 -22.544   7.060  0.00  0.00    +0.028 C 
ATOM      2  C   LIG    1       25.875 -21.607   5.839  0.00  0.00    +0.048 C 
ATOM      3  C   LIG    1       24.557 -21.324   5.098  0.00  0.00    +0.088 C 
ATOM      4  N   LIG    1       23.566 -20.696   5.974  0.00  0.00    -0.316 NA
ATOM      5  H   LIG    1       22.705 -20.536   5.448  0.00  0.00    +0.122 HD
ATOM      6  C   LIG    1       23.268 -21.529   7.139  0.00  0.00    +0.081 C 
ATOM      7  C   LIG    1       24.531 -21.864   7.937  0.00  0.00    +0.023 C 
ENDROOT
BRANCH   1  12
ATOM      8  F   LIG    1       24.472 -27.944   5.583  0.00  0.00    -0.205 F 
ATOM      9  C   LIG    1       24.738 -26.680   5.936  0.00  0.00    +0.123 A 
ATOM     10  C   LIG    1       23.701 -25.777   6.098  0.00  0.00    +0.038 A 
ATOM     11  C   LIG    1       23.982 -24.454   6.460  0.00  0.00    +0.007 A 
ATOM     12  C   LIG    1       25.301 -24.013   6.692  0.00  0.00    -0.044 A 
ATOM     13  C   LIG    1       26.329 -24.956   6.483  0.00  0.00    +0.007 A 
ATOM     14  C   LIG    1       26.049 -26.280   6.118  0.00  0.00    +0.038 A 
ENDBRANCH   1  12
BRANCH   2  15
ATOM     15  C   LIG    1       26.557 -20.273   6.214  0.00  0.00    +0.234 C 
BRANCH  15  16
ATOM     16  O   LIG    1       27.892 -20.238   5.691  0.00  0.00    -0.491 OA
BRANCH  16  17
ATOM     17  C   LIG    1       28.859 -20.009   6.637  0.00  0.00    +0.124 A 
ATOM     18  C   LIG    1       29.472 -18.771   6.852  0.00  0.00    +0.095 A 
ATOM     19  C   LIG    1       30.503 -18.716   7.768  0.00  0.00    +0.170 A 
ATOM     20  O   LIG    1       31.249 -17.614   8.053  0.00  0.00    -0.453 OA
ATOM     21  C   LIG    1       32.228 -18.181   8.948  0.00  0.00    +0.466 C 
ATOM     22  O   LIG    1       31.950 -19.551   9.305  0.00  0.00    -0.453 OA
ATOM     23  C   LIG    1       30.897 -19.819   8.486  0.00  0.00    +0.167 A 
ATOM     24  C   LIG    1       30.269 -21.035   8.346  0.00  0.00    +0.053 A 
ATOM     25  C   LIG    1       29.231 -21.126   7.410  0.00  0.00    +0.049 A 
ENDBRANCH  16  17
ENDBRANCH  15  16
ENDBRANCH   2  15
TORSDOF 4
ENDMDL
MODEL 4
REMARK VINA RESULT:     -10.1      1.011      1.160
REMARK  Name = *****
REMARK                            x       y       z     vdW  Elec       q    Type
REMARK                         _______ _______ _______ _____ _____    ______ ____
ROOT
ATOM      1  C   LIG    1       26.062 -21.561   5.988  0.00  0.00    +0.028 C 
ATOM      2  C   LIG    1       27.127 -20.746   6.787  0.00  0.00    +0.048 C 
ATOM      3  C   LIG    1       26.560 -20.337   8.157  0.00  0.00    +0.088 C 
ATOM      4  N   LIG    1       26.162 -21.501   8.950  0.00  0.00    -0.316 NA
ATOM      5  H   LIG    1       25.781 -21.186   9.844  0.00  0.00    +0.122 HD
ATOM      6  C   LIG    1       25.155 -22.308   8.259  0.00  0.00    +0.081 C 
ATOM      7  C   LIG    1       25.637 -22.758   6.878  0.00  0.00    +0.023 C 
ENDROOT
BRANCH   1  12
ATOM      8  F   LIG    1       21.741 -18.371   4.041  0.00  0.00    -0.205 F 
ATOM      9  C   LIG    1       22.751 -19.124   4.495  0.00  0.00    +0.123 A 
ATOM     10  C   LIG    1       22.593 -19.861   5.656  0.00  0.00    +0.038 A 
ATOM     11  C   LIG    1       23.653 -20.642   6.132  0.00  0.00    +0.007 A 
ATOM     12  C   LIG    1       24.882 -20.724   5.445  0.00  0.00    -0.044 A 
ATOM     13  C   LIG    1       25.010 -19.932   4.285  0.00  0.00    +0.007 A 
ATOM     14  C   LIG    1       23.951 -19.147   3.809  0.00  0.00    +0.038 A 
ENDBRANCH   1  12
BRANCH   2  15
ATOM     15  C   LIG    1       28.464 -21.493   6.981  0.00  0.00    +0.234 C 
BRANCH  15  16
ATOM     16  O   LIG    1       28.982 -21.244   8.296  0.00  0.00    -0.491 OA
BRANCH  16  17
ATOM     17  C   LIG    1       29.905 -20.231   8.354  0.00  0.00    +0.124 A 
ATOM     18  C   LIG    1       30.480 -19.758   9.538  0.00  0.00    +0.095 A 
ATOM     19  C   LIG    1       31.316 -18.664   9.452  0.00  0.00    +0.170 A 
ATOM     20  O   LIG    1       31.907 -18.036  10.504  0.00  0.00    -0.453 OA
ATOM     21  C   LIG    1       32.526 -16.918   9.832  0.00  0.00    +0.466 C 
ATOM     22  O   LIG    1       32.434 -16.993   8.395  0.00  0.00    -0.453 OA
ATOM     23  C   LIG    1       31.621 -18.075   8.248  0.00  0.00    +0.167 A 
ATOM     24  C   LIG    1       31.126 -18.560   7.060  0.00  0.00    +0.053 A 
ATOM     25  C   LIG    1       30.258 -19.659   7.117  0.00  0.00    +0.049 A 
ENDBRANCH  16  17
ENDBRANCH  15  16
ENDBRANCH   2  15
TORSDOF 4
ENDMDL
MODEL 5
REMARK VINA RESULT:      -9.0      4.754      8.202
REMARK  Name = *****
REMARK                            x       y       z     vdW  Elec       q    Type
REMARK                         _______ _______ _______ _____ _____    ______ ____
ROOT
ATOM      1  C   LIG    1       24.432 -22.168   6.872  0.00  0.00    +0.028 C 
ATOM      2  C   LIG    1       25.759 -22.922   6.544  0.00  0.00    +0.048 C 
ATOM      3  C   LIG    1       26.968 -22.026   6.864  0.00  0.00    +0.088 C 
ATOM      4  N   LIG    1       26.987 -21.622   8.271  0.00  0.00    -0.316 NA
ATOM      5  H   LIG    1       27.796 -21.021   8.438  0.00  0.00    +0.122 HD
ATOM      6  C   LIG    1       25.770 -20.900   8.643  0.00  0.00    +0.081 C 
ATOM      7  C   LIG    1       24.511 -21.721   8.354  0.00  0.00    +0.023 C 
ENDROOT
BRANCH   1  12
ATOM      8  F   LIG    1       23.046 -18.055   3.156  0.00  0.00    -0.205 F 
ATOM      9  C   LIG    1       23.375 -19.015   4.030  0.00  0.00    +0.123 A 
ATOM     10  C   LIG    1       24.552 -19.724   3.864  0.00  0.00    +0.038 A 
ATOM     11  C   LIG    1       24.890 -20.731   4.775  0.00  0.00    +0.007 A 
ATOM     12  C   LIG    1       24.074 -21.033   5.885  0.00  0.00    -0.044 A 
ATOM     13  C   LIG    1       22.869 -20.310   5.998  0.00  0.00    +0.007 A 
ATOM     14  C   LIG    1       22.527 -19.303   5.083  0.00  0.00    +0.038 A 
ENDBRANCH   1  12
BRANCH   2  15
ATOM     15  C   LIG    1       25.905 -24.272   7.280  0.00  0.00    +0.234 C 
BRANCH  15  16
ATOM     16  O   LIG    1       26.366 -25.282   6.371  0.00  0.00    -0.491 OA
BRANCH  16  17
ATOM     17  C   LIG    1       25.711 -26.482   6.485  0.00  0.00    +0.124 A 
ATOM     18  C   LIG    1       25.945 -27.412   7.502  0.00  0.00    +0.095 A 
ATOM     19  C   LIG    1       25.285 -28.622   7.429  0.00  0.00    +0.170 A 
ATOM     20  O   LIG    1       25.442 -29.661   8.293  0.00  0.00    -0.453 OA
ATOM     21  C   LIG    1       24.630 -30.665   7.650  0.00  0.00    +0.466 C 
ATOM     22  O   LIG    1       23.883 -30.161   6.524  0.00  0.00    -0.453 OA
ATOM     23  C   LIG    1       24.391 -28.902   6.424  0.00  0.00    +0.167 A 
ATOM     24  C   LIG    1       24.089 -27.982   5.448  0.00  0.00    +0.053 A 
ATOM     25  C   LIG    1       24.757 -26.752   5.485  0.00  0.00    +0.049 A 
ENDBRANCH  16  17
ENDBRANCH  15  16
ENDBRANCH   2  15
TORSDOF 4
ENDMDL
MODEL 6
REMARK VINA RESULT:      -8.8      5.714      8.458
REMARK  Name = *****
REMARK                            x       y       z     vdW  Elec       q    Type
REMARK                         _______ _______ _______ _____ _____    ______ ____
ROOT
ATOM      1  C   LIG    1       23.565 -22.277   5.981  0.00  0.00    +0.028 C 
ATOM      2  C   LIG    1       24.626 -23.409   5.807  0.00  0.00    +0.048 C 
ATOM      3  C   LIG    1       25.915 -23.044   6.562  0.00  0.00    +0.088 C 
ATOM      4  N   LIG    1       25.669 -22.840   7.990  0.00  0.00    -0.316 NA
ATOM      5  H   LIG    1       26.545 -22.589   8.452  0.00  0.00    +0.122 HD
ATOM      6  C   LIG    1       24.685 -21.783   8.224  0.00  0.00    +0.081 C 
ATOM      7  C   LIG    1       23.365 -22.064   7.503  0.00  0.00    +0.023 C 
ENDROOT
BRANCH   1  12
ATOM      8  F   LIG    1       24.721 -17.439   3.170  0.00  0.00    -0.205 F 
ATOM      9  C   LIG    1       24.447 -18.575   3.823  0.00  0.00    +0.123 A 
ATOM     10  C   LIG    1       23.189 -18.771   4.368  0.00  0.00    +0.038 A 
ATOM     11  C   LIG    1       22.908 -19.957   5.057  0.00  0.00    +0.007 A 
ATOM     12  C   LIG    1       23.867 -20.982   5.192  0.00  0.00    -0.044 A 
ATOM     13  C   LIG    1       25.144 -20.728   4.652  0.00  0.00    +0.007 A 
ATOM     14  C   LIG    1       25.429 -19.539   3.964  0.00  0.00    +0.038 A 
ENDBRANCH   1  12
BRANCH   2  15
ATOM     15  C   LIG    1       24.133 -24.799   6.264  0.00  0.00    +0.234 C 
BRANCH  15  16
ATOM     16  O   LIG    1       24.828 -25.829   5.547  0.00  0.00    -0.491 OA
BRANCH  16  17
ATOM     17  C   LIG    1       24.969 -27.002   6.245  0.00  0.00    +0.124 A 
ATOM     18  C   LIG    1       24.198 -28.147   6.023  0.00  0.00    +0.095 A 
ATOM     19  C   LIG    1       24.382 -29.218   6.872  0.00  0.00    +0.170 A 
ATOM     20  O   LIG    1       23.676 -30.381   6.843  0.00  0.00    -0.453 OA
ATOM     21  C   LIG    1       24.200 -31.039   8.015  0.00  0.00    +0.466 C 
ATOM     22  O   LIG    1       25.310 -30.341   8.615  0.00  0.00    -0.453 OA
ATOM     23  C   LIG    1       25.318 -29.196   7.878  0.00  0.00    +0.167 A 
ATOM     24  C   LIG    1       26.139 -28.111   8.077  0.00  0.00    +0.053 A 
ATOM     25  C   LIG    1       25.962 -27.000   7.243  0.00  0.00    +0.049 A 
ENDBRANCH  16  17
ENDBRANCH  15  16
ENDBRANCH   2  15
TORSDOF 4
ENDMDL
MODEL 7
REMARK VINA RESULT:      -8.8      4.025      8.422
REMARK  Name = *****
REMARK                            x       y       z     vdW  Elec       q    Type
REMARK                         _______ _______ _______ _____ _____    ______ ____
ROOT
ATOM      1  C   LIG    1       30.378 -19.408   9.001  0.00  0.00    +0.028 C 
ATOM      2  C   LIG    1       29.091 -19.040   8.196  0.00  0.00    +0.048 C 
ATOM      3  C   LIG    1       29.466 -18.235   6.940  0.00  0.00    +0.088 C 
ATOM      4  N   LIG    1       30.374 -18.982   6.068  0.00  0.00    -0.316 NA
ATOM      5  H   LIG    1       30.607 -18.410   5.254  0.00  0.00    +0.122 HD
ATOM      6  C   LIG    1       31.608 -19.353   6.761  0.00  0.00    +0.081 C 
ATOM      7  C   LIG    1       31.327 -20.157   8.032  0.00  0.00    +0.023 C 
ENDROOT
BRANCH   1  12
ATOM      8  F   LIG    1       32.885 -15.105  11.801  0.00  0.00    -0.205 F 
ATOM      9  C   LIG    1       32.293 -16.109  11.142  0.00  0.00    +0.123 A 
ATOM     10  C   LIG    1       31.195 -16.744  11.697  0.00  0.00    +0.038 A 
ATOM     11  C   LIG    1       30.582 -17.798  11.010  0.00  0.00    +0.007 A 
ATOM     12  C   LIG    1       31.036 -18.222   9.744  0.00  0.00    -0.044 A 
ATOM     13  C   LIG    1       32.176 -17.571   9.231  0.00  0.00    +0.007 A 
ATOM     14  C   LIG    1       32.793 -16.516   9.920  0.00  0.00    +0.038 A 
ENDBRANCH   1  12
BRANCH   2  15
ATOM     15  C   LIG    1       28.239 -20.263   7.794  0.00  0.00    +0.234 C 
BRANCH  15  16
ATOM     16  O   LIG    1       26.929 -20.162   8.370  0.00  0.00    -0.491 OA
BRANCH  16  17
ATOM     17  C   LIG    1       26.065 -21.153   7.978  0.00  0.00    +0.124 A 
ATOM     18  C   LIG    1       26.441 -22.479   7.745  0.00  0.00    +0.095 A 
ATOM     19  C   LIG    1       25.483 -23.341   7.254  0.00  0.00    +0.170 A 
ATOM     20  O   LIG    1       25.689 -24.641   6.912  0.00  0.00    -0.453 OA
ATOM     21  C   LIG    1       24.403 -24.976   6.351  0.00  0.00    +0.466 C 
ATOM     22  O   LIG    1       23.418 -23.937   6.520  0.00  0.00    -0.453 OA
ATOM     23  C   LIG    1       24.186 -22.940   7.038  0.00  0.00    +0.167 A 
ATOM     24  C   LIG    1       23.769 -21.660   7.322  0.00  0.00    +0.053 A 
ATOM     25  C   LIG    1       24.725 -20.756   7.804  0.00  0.00    +0.049 A 
ENDBRANCH  16  17
ENDBRANCH  15  16
ENDBRANCH   2  15
TORSDOF 4
ENDMDL
MODEL 8
REMARK VINA RESULT:      -8.7      5.096      8.805
REMARK  Name = *****
REMARK                            x       y       z     vdW  Elec       q    Type
REMARK                         _______ _______ _______ _____ _____    ______ ____
ROOT
ATOM      1  C   LIG    1       26.784 -21.687   6.215  0.00  0.00    +0.028 C 
ATOM      2  C   LIG    1       26.517 -22.853   7.218  0.00  0.00    +0.048 C 
ATOM      3  C   LIG    1       25.961 -22.296   8.540  0.00  0.00    +0.088 C 
ATOM      4  N   LIG    1       24.717 -21.553   8.336  0.00  0.00    -0.316 NA
ATOM      5  H   LIG    1       24.389 -21.191   9.233  0.00  0.00    +0.122 HD
ATOM      6  C   LIG    1       24.900 -20.436   7.407  0.00  0.00    +0.081 C 
ATOM      7  C   LIG    1       25.457 -20.902   6.060  0.00  0.00    +0.023 C 
ENDROOT
BRANCH   1  12
ATOM      8  F   LIG    1       31.233 -18.366   7.566  0.00  0.00    -0.205 F 
ATOM      9  C   LIG    1       30.194 -19.147   7.245  0.00  0.00    +0.123 A 
ATOM     10  C   LIG    1       29.383 -18.810   6.174  0.00  0.00    +0.038 A 
ATOM     11  C   LIG    1       28.293 -19.624   5.845  0.00  0.00    +0.007 A 
ATOM     12  C   LIG    1       28.006 -20.805   6.560  0.00  0.00    -0.044 A 
ATOM     13  C   LIG    1       28.837 -21.094   7.663  0.00  0.00    +0.007 A 
ATOM     14  C   LIG    1       29.927 -20.277   7.996  0.00  0.00    +0.038 A 
ENDBRANCH   1  12
BRANCH   2  15
ATOM     15  C   LIG    1       25.564 -23.938   6.671  0.00  0.00    +0.234 C 
BRANCH  15  16
ATOM     16  O   LIG    1       26.318 -25.055   6.181  0.00  0.00    -0.491 OA
BRANCH  16  17
ATOM     17  C   LIG    1       25.703 -26.269   6.356  0.00  0.00    +0.124 A 
ATOM     18  C   LIG    1       25.992 -27.154   7.399  0.00  0.00    +0.095 A 
ATOM     19  C   LIG    1       25.367 -28.384   7.388  0.00  0.00    +0.170 A 
ATOM     20  O   LIG    1       25.578 -29.386   8.284  0.00  0.00    -0.453 OA
ATOM     21  C   LIG    1       24.779 -30.436   7.700  0.00  0.00    +0.466 C 
ATOM     22  O   LIG    1       23.988 -29.996   6.578  0.00  0.00    -0.453 OA
ATOM     23  C   LIG    1       24.456 -28.727   6.419  0.00  0.00    +0.167 A 
ATOM     24  C   LIG    1       24.100 -27.853   5.418  0.00  0.00    +0.053 A 
ATOM     25  C   LIG    1       24.732 -26.603   5.392  0.00  0.00    +0.049 A 
ENDBRANCH  16  17
ENDBRANCH  15  16
ENDBRANCH   2  15
TORSDOF 4
ENDMDL
MODEL 9
REMARK VINA RESULT:      -8.7      3.768      8.114
REMARK  Name = *****
REMARK                            x       y       z     vdW  Elec       q    Type
REMARK                         _______ _______ _______ _____ _____    ______ ____
ROOT
ATOM      1  C   LIG    1       29.847 -18.636   8.752  0.00  0.00    +0.028 C 
ATOM      2  C   LIG    1       30.125 -18.531   7.219  0.00  0.00    +0.048 C 
ATOM      3  C   LIG    1       31.467 -19.200   6.880  0.00  0.00    +0.088 C 
ATOM      4  N   LIG    1       31.485 -20.611   7.269  0.00  0.00    -0.316 NA
ATOM      5  H   LIG    1       32.395 -21.013   7.037  0.00  0.00    +0.122 HD
ATOM      6  C   LIG    1       31.238 -20.780   8.702  0.00  0.00    +0.081 C 
ATOM      7  C   LIG    1       29.917 -20.137   9.130  0.00  0.00    +0.023 C 
ENDROOT
BRANCH   1  12
ATOM      8  F   LIG    1       33.025 -15.150  11.975  0.00  0.00    -0.205 F 
ATOM      9  C   LIG    1       32.284 -15.972  11.221  0.00  0.00    +0.123 A 
ATOM     10  C   LIG    1       32.619 -16.177   9.893  0.00  0.00    +0.038 A 
ATOM     11  C   LIG    1       31.839 -17.031   9.105  0.00  0.00    +0.007 A 
ATOM     12  C   LIG    1       30.726 -17.718   9.632  0.00  0.00    -0.044 A 
ATOM     13  C   LIG    1       30.401 -17.455  10.979  0.00  0.00    +0.007 A 
ATOM     14  C   LIG    1       31.180 -16.597  11.769  0.00  0.00    +0.038 A 
ENDBRANCH   1  12
BRANCH   2  15
ATOM     15  C   LIG    1       29.007 -19.136   6.342  0.00  0.00    +0.234 C 
BRANCH  15  16
ATOM     16  O   LIG    1       28.471 -20.310   6.967  0.00  0.00    -0.491 OA
BRANCH  16  17
ATOM     17  C   LIG    1       27.122 -20.479   6.783  0.00  0.00    +0.124 A 
ATOM     18  C   LIG    1       26.471 -20.330   5.555  0.00  0.00    +0.095 A 
ATOM     19  C   LIG    1       25.095 -20.429   5.542  0.00  0.00    +0.170 A 
ATOM     20  O   LIG    1       24.299 -20.248   4.454  0.00  0.00    -0.453 OA
ATOM     21  C   LIG    1       22.993 -20.335   5.063  0.00  0.00    +0.466 C 
ATOM     22  O   LIG    1       23.034 -20.728   6.449  0.00  0.00    -0.453 OA
ATOM     23  C   LIG    1       24.376 -20.709   6.679  0.00  0.00    +0.167 A 
ATOM     24  C   LIG    1       24.993 -20.929   7.889  0.00  0.00    +0.053 A 
ATOM     25  C   LIG    1       26.389 -20.816   7.937  0.00  0.00    +0.049 A 
ENDBRANCH  16  17
ENDBRANCH  15  16
ENDBRANCH   2  15
TORSDOF 4
ENDMDL
