MODEL 1
REMARK VINA RESULT:      -8.0      0.000      0.000
REMARK  Name = *****
REMARK                            x       y       z     vdW  Elec       q    Type
REMARK                         _______ _______ _______ _____ _____    ______ ____
ROOT
ATOM      1  C   LIG    1       24.930 -22.714   6.532  0.00  0.00    +0.094 C 
ATOM      2  C   LIG    1       25.242 -22.092   5.142  0.00  0.00    +0.038 C 
ATOM      3  C   LIG    1       25.035 -20.573   5.008  0.00  0.00    +0.085 C 
ATOM      4  N   LIG    1       23.612 -20.286   4.828  0.00  0.00    -0.305 NA
ATOM      5  C   LIG    1       23.386 -19.212   3.860  0.00  0.00    +0.105 C 
ATOM      6  C   LIG    1       22.873 -20.015   6.063  0.00  0.00    +0.084 C 
ATOM      7  C   LIG    1       23.294 -20.808   7.300  0.00  0.00    +0.017 C 
ATOM      8  C   LIG    1       23.509 -22.301   7.041  0.00  0.00    +0.024 C 
ENDROOT
BRANCH   1   9
ATOM      9  C   LIG    1       25.034 -24.266   6.395  0.00  0.00    -0.031 A 
ATOM     10  C   LIG    1       26.267 -24.935   6.532  0.00  0.00    +0.005 A 
ATOM     11  C   LIG    1       26.376 -26.320   6.375  0.00  0.00    +0.000 A 
ATOM     12  C   LIG    1       25.248 -27.082   6.100  0.00  0.00    +0.000 A 
ATOM     13  C   LIG    1       24.010 -26.456   5.997  0.00  0.00    +0.000 A 
ATOM     14  C   LIG    1       23.900 -25.067   6.152  0.00  0.00    +0.005 A 
ENDBRANCH   1   9
BRANCH   1  15
ATOM     15  C   LIG    1       25.991 -22.202   7.551  0.00  0.00    +0.318 C 
ATOM     16  O   LIG    1       25.857 -22.200   8.764  0.00  0.00    -0.250 OA
BRANCH  15  17
ATOM     17  O   LIG    1       27.093 -21.715   6.897  0.00  0.00    -0.464 OA
BRANCH  17  19
ATOM     18  C   LIG    1       28.581 -19.970   7.634  0.00  0.00    +0.048 C 
ATOM     19  C   LIG    1       28.251 -21.446   7.697  0.00  0.00    +0.229 C 
ENDBRANCH  17  19
ENDBRANCH  15  17
ENDBRANCH   1  15
TORSDOF 4
ENDMDL
MODEL 2
REMARK VINA RESULT:      -7.5      1.725      5.052
REMARK  Name = *****
REMARK                            x       y       z     vdW  Elec       q    Type
REMARK                         _______ _______ _______ _____ _____    ______ ____
ROOT
ATOM      1  C   LIG    1       24.291 -22.168   6.301  0.00  0.00    +0.094 C 
ATOM      2  C   LIG    1       23.254 -23.271   5.950  0.00  0.00    +0.038 C 
ATOM      3  C   LIG    1       23.463 -24.645   6.609  0.00  0.00    +0.085 C 
ATOM      4  N   LIG    1       24.503 -25.381   5.890  0.00  0.00    -0.305 NA
ATOM      5  C   LIG    1       24.185 -26.804   5.766  0.00  0.00    +0.105 C 
ATOM      6  C   LIG    1       25.859 -25.212   6.417  0.00  0.00    +0.084 C 
ATOM      7  C   LIG    1       26.210 -23.832   6.972  0.00  0.00    +0.017 C 
ATOM      8  C   LIG    1       25.758 -22.669   6.086  0.00  0.00    +0.024 C 
ENDROOT
BRANCH   1   9
ATOM      9  C   LIG    1       23.996 -20.929   5.398  0.00  0.00    -0.031 A 
ATOM     10  C   LIG    1       22.753 -20.265   5.445  0.00  0.00    +0.005 A 
ATOM     11  C   LIG    1       22.467 -19.177   4.614  0.00  0.00    +0.000 A 
ATOM     12  C   LIG    1       23.426 -18.705   3.728  0.00  0.00    +0.000 A 
ATOM     13  C   LIG    1       24.676 -19.313   3.686  0.00  0.00    +0.000 A 
ATOM     14  C   LIG    1       24.963 -20.406   4.517  0.00  0.00    +0.005 A 
ENDBRANCH   1   9
BRANCH   1  15
ATOM     15  C   LIG    1       24.113 -21.783   7.801  0.00  0.00    +0.318 C 
ATOM     16  O   LIG    1       23.047 -21.530   8.339  0.00  0.00    -0.250 OA
BRANCH  15  17
ATOM     17  O   LIG    1       25.327 -21.731   8.434  0.00  0.00    -0.464 OA
BRANCH  17  19
ATOM     18  C   LIG    1       27.216 -20.306   7.984  0.00  0.00    +0.048 C 
ATOM     19  C   LIG    1       25.874 -20.429   8.675  0.00  0.00    +0.229 C 
ENDBRANCH  17  19
ENDBRANCH  15  17
ENDBRANCH   1  15
TORSDOF 4
ENDMDL
MODEL 3
REMARK VINA RESULT:      -7.5      1.949      3.935
REMARK  Name = *****
REMARK                            x       y       z     vdW  Elec       q    Type
REMARK                         _______ _______ _______ _____ _____    ______ ____
ROOT
ATOM      1  C   LIG    1       25.645 -21.722   6.759  0.00  0.00    +0.094 C 
ATOM      2  C   LIG    1       26.561 -21.616   8.011  0.00  0.00    +0.038 C 
ATOM      3  C   LIG    1       27.293 -20.278   8.216  0.00  0.00    +0.085 C 
ATOM      4  N   LIG    1       28.464 -20.222   7.342  0.00  0.00    -0.305 NA
ATOM      5  C   LIG    1       29.613 -19.600   8.002  0.00  0.00    +0.105 C 
ATOM      6  C   LIG    1       28.236 -19.600   6.037  0.00  0.00    +0.084 C 
ATOM      7  C   LIG    1       26.872 -19.844   5.392  0.00  0.00    +0.017 C 
ATOM      8  C   LIG    1       26.402 -21.299   5.457  0.00  0.00    +0.024 C 
ENDROOT
BRANCH   1   9
ATOM      9  C   LIG    1       25.151 -23.199   6.652  0.00  0.00    -0.031 A 
ATOM     10  C   LIG    1       26.056 -24.280   6.664  0.00  0.00    +0.005 A 
ATOM     11  C   LIG    1       25.625 -25.604   6.532  0.00  0.00    +0.000 A 
ATOM     12  C   LIG    1       24.271 -25.888   6.410  0.00  0.00    +0.000 A 
ATOM     13  C   LIG    1       23.350 -24.846   6.435  0.00  0.00    +0.000 A 
ATOM     14  C   LIG    1       23.781 -23.519   6.564  0.00  0.00    +0.005 A 
ENDBRANCH   1   9
BRANCH   1  15
ATOM     15  C   LIG    1       24.428 -20.770   6.957  0.00  0.00    +0.318 C 
ATOM     16  O   LIG    1       23.875 -20.549   8.023  0.00  0.00    -0.250 OA
BRANCH  15  17
ATOM     17  O   LIG    1       24.032 -20.236   5.759  0.00  0.00    -0.464 OA
BRANCH  17  19
ATOM     18  C   LIG    1       22.351 -18.888   4.683  0.00  0.00    +0.048 C 
ATOM     19  C   LIG    1       22.622 -20.102   5.546  0.00  0.00    +0.229 C 
ENDBRANCH  17  19
ENDBRANCH  15  17
ENDBRANCH   1  15
TORSDOF 4
ENDMDL
MODEL 4
REMARK VINA RESULT:      -7.0      2.063      5.245
REMARK  Name = *****
REMARK                            x       y       z     vdW  Elec       q    Type
REMARK                         _______ _______ _______ _____ _____    ______ ____
ROOT
ATOM      1  C   LIG    1       26.051 -20.806   6.310  0.00  0.00    +0.094 C 
ATOM      2  C   LIG    1       27.275 -20.375   5.453  0.00  0.00    +0.038 C 
ATOM      3  C   LIG    1       28.664 -20.632   6.062  0.00  0.00    +0.085 C 
ATOM      4  N   LIG    1       28.971 -19.590   7.041  0.00  0.00    -0.305 NA
ATOM      5  C   LIG    1       30.374 -19.176   6.983  0.00  0.00    +0.105 C 
ATOM      6  C   LIG    1       28.595 -19.905   8.420  0.00  0.00    +0.084 C 
ATOM      7  C   LIG    1       27.313 -20.714   8.612  0.00  0.00    +0.017 C 
ATOM      8  C   LIG    1       26.136 -20.230   7.762  0.00  0.00    +0.024 C 
ENDROOT
BRANCH   1   9
ATOM      9  C   LIG    1       24.761 -20.297   5.591  0.00  0.00    -0.031 A 
ATOM     10  C   LIG    1       24.815 -19.720   4.307  0.00  0.00    +0.005 A 
ATOM     11  C   LIG    1       23.671 -19.229   3.671  0.00  0.00    +0.000 A 
ATOM     12  C   LIG    1       22.433 -19.324   4.292  0.00  0.00    +0.000 A 
ATOM     13  C   LIG    1       22.341 -19.924   5.544  0.00  0.00    +0.000 A 
ATOM     14  C   LIG    1       23.488 -20.414   6.183  0.00  0.00    +0.005 A 
ENDBRANCH   1   9
BRANCH   1  15
ATOM     15  C   LIG    1       26.031 -22.362   6.393  0.00  0.00    +0.318 C 
ATOM     16  O   LIG    1       26.692 -23.032   7.169  0.00  0.00    -0.250 OA
BRANCH  15  17
ATOM     17  O   LIG    1       25.191 -22.885   5.446  0.00  0.00    -0.464 OA
BRANCH  17  19
ATOM     18  C   LIG    1       23.585 -24.280   6.576  0.00  0.00    +0.048 C 
ATOM     19  C   LIG    1       24.770 -24.242   5.635  0.00  0.00    +0.229 C 
ENDBRANCH  17  19
ENDBRANCH  15  17
ENDBRANCH   1  15
TORSDOF 4
ENDMDL
MODEL 5
REMARK VINA RESULT:      -6.8      2.183      5.227
REMARK  Name = *****
REMARK                            x       y       z     vdW  Elec       q    Type
REMARK                         _______ _______ _______ _____ _____    ______ ____
ROOT
ATOM      1  C   LIG    1       25.267 -21.644   6.089  0.00  0.00    +0.094 C 
ATOM      2  C   LIG    1       25.774 -22.965   5.443  0.00  0.00    +0.038 C 
ATOM      3  C   LIG    1       24.699 -23.984   5.030  0.00  0.00    +0.085 C 
ATOM      4  N   LIG    1       24.245 -24.723   6.207  0.00  0.00    -0.305 NA
ATOM      5  C   LIG    1       24.020 -26.139   5.915  0.00  0.00    +0.105 C 
ATOM      6  C   LIG    1       23.077 -24.155   6.883  0.00  0.00    +0.084 C 
ATOM      7  C   LIG    1       22.976 -22.631   6.910  0.00  0.00    +0.017 C 
ATOM      8  C   LIG    1       24.284 -21.925   7.273  0.00  0.00    +0.024 C 
ENDROOT
BRANCH   1   9
ATOM      9  C   LIG    1       26.514 -20.846   6.586  0.00  0.00    -0.031 A 
ATOM     10  C   LIG    1       27.381 -20.199   5.683  0.00  0.00    +0.005 A 
ATOM     11  C   LIG    1       28.519 -19.512   6.117  0.00  0.00    +0.000 A 
ATOM     12  C   LIG    1       28.810 -19.431   7.472  0.00  0.00    +0.000 A 
ATOM     13  C   LIG    1       27.953 -20.026   8.391  0.00  0.00    +0.000 A 
ATOM     14  C   LIG    1       26.813 -20.717   7.957  0.00  0.00    +0.005 A 
ENDBRANCH   1   9
BRANCH   1  15
ATOM     15  C   LIG    1       24.513 -20.822   5.001  0.00  0.00    +0.318 C 
ATOM     16  O   LIG    1       24.681 -20.929   3.797  0.00  0.00    -0.250 OA
BRANCH  15  17
ATOM     17  O   LIG    1       23.652 -19.929   5.582  0.00  0.00    -0.464 OA
BRANCH  17  19
ATOM     18  C   LIG    1       22.300 -18.262   4.488  0.00  0.00    +0.048 C 
ATOM     19  C   LIG    1       22.402 -19.710   4.915  0.00  0.00    +0.229 C 
ENDBRANCH  17  19
ENDBRANCH  15  17
ENDBRANCH   1  15
TORSDOF 4
ENDMDL
MODEL 6
REMARK VINA RESULT:      -6.5      2.218      5.350
REMARK  Name = *****
REMARK                            x       y       z     vdW  Elec       q    Type
REMARK                         _______ _______ _______ _____ _____    ______ ____
ROOT
ATOM      1  C   LIG    1       25.593 -21.013   6.045  0.00  0.00    +0.094 C 
ATOM      2  C   LIG    1       25.902 -22.476   5.619  0.00  0.00    +0.038 C 
ATOM      3  C   LIG    1       24.689 -23.370   5.303  0.00  0.00    +0.085 C 
ATOM      4  N   LIG    1       24.095 -23.848   6.551  0.00  0.00    -0.305 NA
ATOM      5  C   LIG    1       23.656 -25.241   6.453  0.00  0.00    +0.105 C 
ATOM      6  C   LIG    1       23.015 -23.015   7.083  0.00  0.00    +0.084 C 
ATOM      7  C   LIG    1       23.155 -21.506   6.887  0.00  0.00    +0.017 C 
ATOM      8  C   LIG    1       24.549 -20.962   7.209  0.00  0.00    +0.024 C 
ENDROOT
BRANCH   1   9
ATOM      9  C   LIG    1       26.937 -20.350   6.484  0.00  0.00    -0.031 A 
ATOM     10  C   LIG    1       27.336 -20.321   7.835  0.00  0.00    +0.005 A 
ATOM     11  C   LIG    1       28.519 -19.697   8.242  0.00  0.00    +0.000 A 
ATOM     12  C   LIG    1       29.353 -19.104   7.303  0.00  0.00    +0.000 A 
ATOM     13  C   LIG    1       29.007 -19.150   5.957  0.00  0.00    +0.000 A 
ATOM     14  C   LIG    1       27.819 -19.773   5.549  0.00  0.00    +0.005 A 
ENDBRANCH   1   9
BRANCH   1  15
ATOM     15  C   LIG    1       25.006 -20.256   4.816  0.00  0.00    +0.318 C 
ATOM     16  O   LIG    1       25.506 -20.228   3.704  0.00  0.00    -0.250 OA
BRANCH  15  17
ATOM     17  O   LIG    1       23.861 -19.589   5.163  0.00  0.00    -0.464 OA
BRANCH  17  19
ATOM     18  C   LIG    1       22.191 -17.951   4.587  0.00  0.00    +0.048 C 
ATOM     19  C   LIG    1       23.054 -19.091   4.088  0.00  0.00    +0.229 C 
ENDBRANCH  17  19
ENDBRANCH  15  17
ENDBRANCH   1  15
TORSDOF 4
ENDMDL
MODEL 7
REMARK VINA RESULT:      -6.5      1.569      4.256
REMARK  Name = *****
REMARK                            x       y       z     vdW  Elec       q    Type
REMARK                         _______ _______ _______ _____ _____    ______ ____
ROOT
ATOM      1  C   LIG    1       25.040 -21.129   5.738  0.00  0.00    +0.094 C 
ATOM      2  C   LIG    1       24.074 -20.119   6.418  0.00  0.00    +0.038 C 
ATOM      3  C   LIG    1       22.719 -19.891   5.724  0.00  0.00    +0.085 C 
ATOM      4  N   LIG    1       22.895 -18.977   4.596  0.00  0.00    -0.305 NA
ATOM      5  C   LIG    1       21.782 -18.034   4.474  0.00  0.00    +0.105 C 
ATOM      6  C   LIG    1       23.152 -19.624   3.308  0.00  0.00    +0.084 C 
ATOM      7  C   LIG    1       23.997 -20.896   3.338  0.00  0.00    +0.017 C 
ATOM      8  C   LIG    1       25.243 -20.797   4.222  0.00  0.00    +0.024 C 
ENDROOT
BRANCH   1   9
ATOM      9  C   LIG    1       26.403 -21.073   6.499  0.00  0.00    -0.031 A 
ATOM     10  C   LIG    1       27.488 -20.318   6.010  0.00  0.00    +0.005 A 
ATOM     11  C   LIG    1       28.722 -20.291   6.665  0.00  0.00    +0.000 A 
ATOM     12  C   LIG    1       28.901 -21.001   7.845  0.00  0.00    +0.000 A 
ATOM     13  C   LIG    1       27.838 -21.725   8.374  0.00  0.00    +0.000 A 
ATOM     14  C   LIG    1       26.600 -21.754   7.716  0.00  0.00    +0.005 A 
ENDBRANCH   1   9
BRANCH   1  15
ATOM     15  C   LIG    1       24.426 -22.556   5.857  0.00  0.00    +0.318 C 
ATOM     16  O   LIG    1       23.476 -22.855   6.561  0.00  0.00    -0.250 OA
BRANCH  15  17
ATOM     17  O   LIG    1       25.124 -23.448   5.085  0.00  0.00    -0.464 OA
BRANCH  17  19
ATOM     18  C   LIG    1       25.955 -25.231   6.475  0.00  0.00    +0.048 C 
ATOM     19  C   LIG    1       24.965 -24.836   5.400  0.00  0.00    +0.229 C 
ENDBRANCH  17  19
ENDBRANCH  15  17
ENDBRANCH   1  15
TORSDOF 4
ENDMDL
MODEL 8
REMARK VINA RESULT:      -6.4      2.004      5.146
REMARK  Name = *****
REMARK                            x       y       z     vdW  Elec       q    Type
REMARK                         _______ _______ _______ _____ _____    ______ ____
ROOT
ATOM      1  C   LIG    1       24.273 -21.101   6.219  0.00  0.00    +0.094 C 
ATOM      2  C   LIG    1       25.631 -20.749   5.549  0.00  0.00    +0.038 C 
ATOM      3  C   LIG    1       26.901 -21.188   6.298  0.00  0.00    +0.085 C 
ATOM      4  N   LIG    1       27.181 -20.246   7.381  0.00  0.00    -0.305 NA
ATOM      5  C   LIG    1       28.613 -19.978   7.522  0.00  0.00    +0.105 C 
ATOM      6  C   LIG    1       26.604 -20.604   8.679  0.00  0.00    +0.084 C 
ATOM      7  C   LIG    1       25.237 -21.285   8.656  0.00  0.00    +0.017 C 
ATOM      8  C   LIG    1       24.229 -20.628   7.709  0.00  0.00    +0.024 C 
ENDROOT
BRANCH   1   9
ATOM      9  C   LIG    1       23.139 -20.417   5.391  0.00  0.00    -0.031 A 
ATOM     10  C   LIG    1       21.985 -21.125   5.001  0.00  0.00    +0.005 A 
ATOM     11  C   LIG    1       20.981 -20.531   4.229  0.00  0.00    +0.000 A 
ATOM     12  C   LIG    1       21.092 -19.202   3.845  0.00  0.00    +0.000 A 
ATOM     13  C   LIG    1       22.201 -18.464   4.247  0.00  0.00    +0.000 A 
ATOM     14  C   LIG    1       23.209 -19.060   5.019  0.00  0.00    +0.005 A 
ENDBRANCH   1   9
BRANCH   1  15
ATOM     15  C   LIG    1       24.093 -22.649   6.183  0.00  0.00    +0.318 C 
ATOM     16  O   LIG    1       23.360 -23.288   6.921  0.00  0.00    -0.250 OA
BRANCH  15  17
ATOM     17  O   LIG    1       24.901 -23.207   5.228  0.00  0.00    -0.464 OA
BRANCH  17  19
ATOM     18  C   LIG    1       25.983 -25.034   6.366  0.00  0.00    +0.048 C 
ATOM     19  C   LIG    1       25.039 -24.633   5.253  0.00  0.00    +0.229 C 
ENDBRANCH  17  19
ENDBRANCH  15  17
ENDBRANCH   1  15
TORSDOF 4
ENDMDL
MODEL 9
REMARK VINA RESULT:      -6.2      1.920      5.371
REMARK  Name = *****
REMARK                            x       y       z     vdW  Elec       q    Type
REMARK                         _______ _______ _______ _____ _____    ______ ____
ROOT
ATOM      1  C   LIG    1       26.278 -21.380   6.725  0.00  0.00    +0.094 C 
ATOM      2  C   LIG    1       25.938 -21.880   5.293  0.00  0.00    +0.038 C 
ATOM      3  C   LIG    1       24.875 -22.987   5.186  0.00  0.00    +0.085 C 
ATOM      4  N   LIG    1       25.480 -24.280   5.504  0.00  0.00    -0.305 NA
ATOM      5  C   LIG    1       24.980 -25.349   4.639  0.00  0.00    +0.105 C 
ATOM      6  C   LIG    1       25.382 -24.681   6.909  0.00  0.00    +0.084 C 
ATOM      7  C   LIG    1       25.486 -23.566   7.948  0.00  0.00    +0.017 C 
ATOM      8  C   LIG    1       26.617 -22.570   7.683  0.00  0.00    +0.024 C 
ENDROOT
BRANCH   1   9
ATOM      9  C   LIG    1       27.489 -20.400   6.615  0.00  0.00    -0.031 A 
ATOM     10  C   LIG    1       28.384 -20.215   7.688  0.00  0.00    +0.005 A 
ATOM     11  C   LIG    1       29.450 -19.314   7.612  0.00  0.00    +0.000 A 
ATOM     12  C   LIG    1       29.668 -18.588   6.449  0.00  0.00    +0.000 A 
ATOM     13  C   LIG    1       28.825 -18.777   5.358  0.00  0.00    +0.000 A 
ATOM     14  C   LIG    1       27.755 -19.679   5.435  0.00  0.00    +0.005 A 
ENDBRANCH   1   9
BRANCH   1  15
ATOM     15  C   LIG    1       25.038 -20.625   7.291  0.00  0.00    +0.318 C 
ATOM     16  O   LIG    1       24.750 -20.534   8.473  0.00  0.00    -0.250 OA
BRANCH  15  17
ATOM     17  O   LIG    1       24.286 -20.101   6.272  0.00  0.00    -0.464 OA
BRANCH  17  19
ATOM     18  C   LIG    1       22.283 -20.282   4.946  0.00  0.00    +0.048 C 
ATOM     19  C   LIG    1       22.870 -20.312   6.341  0.00  0.00    +0.229 C 
ENDBRANCH  17  19
ENDBRANCH  15  17
ENDBRANCH   1  15
TORSDOF 4
ENDMDL
