MODEL 1
REMARK VINA RESULT:      -0.1      0.000      0.000
REMARK  Name = *****
REMARK                            x       y       z     vdW  Elec       q    Type
REMARK                         _______ _______ _______ _____ _____    ______ ____
ROOT
ATOM      1  C   LIG    1       24.251 -17.881   3.678  0.00  0.00    +0.027 C 
ATOM      2  C   LIG    1       25.727 -17.865   3.211  0.00  0.00    +0.086 C 
ENDROOT
BRANCH   2   3
ATOM      3  N   LIG    1       26.358 -19.216   3.418  0.00  0.00    -0.297 NA
ATOM      4  C   LIG    1       26.576 -19.578   4.832  0.00  0.00    +0.085 C 
ATOM      5  C   LIG    1       25.270 -19.783   5.608  0.00  0.00    +0.019 C 
ATOM      6  C   LIG    1       24.390 -20.866   4.960  0.00  0.00    -0.004 C 
ATOM      7  C   LIG    1       24.278 -20.632   3.440  0.00  0.00    +0.019 C 
ATOM      8  C   LIG    1       25.644 -20.348   2.798  0.00  0.00    +0.085 C 
BRANCH   6   9
ATOM      9  C   LIG    1       22.980 -20.933   5.584  0.00  0.00    +0.038 C 
BRANCH   9  10
ATOM     10  C   LIG    1       21.926 -20.148   4.838  0.00  0.00    -0.047 A 
ATOM     11  C   LIG    1       22.049 -18.761   4.676  0.00  0.00    +0.003 A 
ATOM     12  C   LIG    1       21.072 -18.038   3.988  0.00  0.00    +0.000 A 
ATOM     13  C   LIG    1       19.967 -18.694   3.447  0.00  0.00    +0.000 A 
ATOM     14  C   LIG    1       19.834 -20.072   3.602  0.00  0.00    +0.000 A 
ATOM     15  C   LIG    1       20.805 -20.795   4.297  0.00  0.00    +0.003 A 
ENDBRANCH   9  10
ENDBRANCH   6   9
ENDBRANCH   2   3
BRANCH   2  16
ATOM     16  C   LIG    1       26.451 -16.659   3.948  0.00  0.00    +0.161 C 
BRANCH  16  17
ATOM     17  C   LIG    1       25.939 -15.287   3.524  0.00  0.00    -0.017 A 
ATOM     18  C   LIG    1       26.658 -14.489   2.614  0.00  0.00    +0.010 A 
ATOM     19  C   LIG    1       26.168 -13.243   2.218  0.00  0.00    +0.046 A 
ATOM     20  C   LIG    1       24.965 -12.783   2.726  0.00  0.00    +0.117 A 
ATOM     21  C   LIG    1       24.237 -13.545   3.637  0.00  0.00    +0.046 A 
ATOM     22  C   LIG    1       24.730 -14.791   4.037  0.00  0.00    +0.010 A 
BRANCH  20  23
ATOM     23  O   LIG    1       24.519 -11.564   2.305  0.00  0.00    -0.507 OA
ATOM     24  H   LIG    1       24.384 -11.596   1.344  0.00  0.00    +0.292 HD
ENDBRANCH  20  23
ENDBRANCH  16  17
BRANCH  16  25
ATOM     25  O   LIG    1       27.861 -16.607   3.726  0.00  0.00    -0.386 OA
ATOM     26  H   LIG    1       28.033 -17.043   2.878  0.00  0.00    +0.210 HD
ENDBRANCH  16  25
ENDBRANCH   2  16
TORSDOF 7
ENDMDL
MODEL 2
REMARK VINA RESULT:       1.2      2.322      5.319
REMARK  Name = *****
REMARK                            x       y       z     vdW  Elec       q    Type
REMARK                         _______ _______ _______ _____ _____    ______ ____
ROOT
ATOM      1  C   LIG    1       25.925 -13.134   5.480  0.00  0.00    +0.027 C 
ATOM      2  C   LIG    1       25.588 -14.446   4.730  0.00  0.00    +0.086 C 
ENDROOT
BRANCH   2   3
ATOM      3  N   LIG    1       26.516 -14.636   3.561  0.00  0.00    -0.297 NA
ATOM      4  C   LIG    1       27.949 -14.513   3.892  0.00  0.00    +0.085 C 
ATOM      5  C   LIG    1       28.452 -15.637   4.805  0.00  0.00    +0.019 C 
ATOM      6  C   LIG    1       28.215 -17.023   4.181  0.00  0.00    -0.004 C 
ATOM      7  C   LIG    1       26.771 -17.138   3.652  0.00  0.00    +0.019 C 
ATOM      8  C   LIG    1       26.359 -15.908   2.831  0.00  0.00    +0.085 C 
BRANCH   6   9
ATOM      9  C   LIG    1       28.504 -18.173   5.169  0.00  0.00    +0.038 C 
BRANCH   9  10
ATOM     10  C   LIG    1       27.395 -19.194   5.284  0.00  0.00    -0.047 A 
ATOM     11  C   LIG    1       27.218 -19.926   6.467  0.00  0.00    +0.003 A 
ATOM     12  C   LIG    1       26.193 -20.870   6.569  0.00  0.00    +0.000 A 
ATOM     13  C   LIG    1       25.331 -21.087   5.494  0.00  0.00    +0.000 A 
ATOM     14  C   LIG    1       25.499 -20.366   4.315  0.00  0.00    +0.000 A 
ATOM     15  C   LIG    1       26.527 -19.428   4.208  0.00  0.00    +0.003 A 
ENDBRANCH   9  10
ENDBRANCH   6   9
ENDBRANCH   2   3
BRANCH   2  16
ATOM     16  C   LIG    1       24.041 -14.407   4.369  0.00  0.00    +0.161 C 
BRANCH  16  17
ATOM     17  C   LIG    1       23.371 -15.776   4.399  0.00  0.00    -0.017 A 
ATOM     18  C   LIG    1       23.913 -16.870   3.696  0.00  0.00    +0.010 A 
ATOM     19  C   LIG    1       23.301 -18.124   3.750  0.00  0.00    +0.046 A 
ATOM     20  C   LIG    1       22.149 -18.297   4.497  0.00  0.00    +0.117 A 
ATOM     21  C   LIG    1       21.583 -17.231   5.193  0.00  0.00    +0.046 A 
ATOM     22  C   LIG    1       22.193 -15.974   5.136  0.00  0.00    +0.010 A 
BRANCH  20  23
ATOM     23  O   LIG    1       21.589 -19.541   4.527  0.00  0.00    -0.507 OA
ATOM     24  H   LIG    1       20.857 -19.567   3.890  0.00  0.00    +0.292 HD
ENDBRANCH  20  23
ENDBRANCH  16  17
BRANCH  16  25
ATOM     25  O   LIG    1       23.764 -13.894   3.065  0.00  0.00    -0.386 OA
ATOM     26  H   LIG    1       24.614 -13.793   2.611  0.00  0.00    +0.210 HD
ENDBRANCH  16  25
ENDBRANCH   2  16
TORSDOF 7
ENDMDL
MODEL 3
REMARK VINA RESULT:       1.3      2.187      4.928
REMARK  Name = *****
REMARK                            x       y       z     vdW  Elec       q    Type
REMARK                         _______ _______ _______ _____ _____    ______ ____
ROOT
ATOM      1  C   LIG    1       25.891 -12.945   1.955  0.00  0.00    +0.027 C 
ATOM      2  C   LIG    1       25.808 -14.125   2.955  0.00  0.00    +0.086 C 
ENDROOT
BRANCH   2   3
ATOM      3  N   LIG    1       25.030 -13.722   4.179  0.00  0.00    -0.297 NA
ATOM      4  C   LIG    1       23.645 -13.290   3.908  0.00  0.00    +0.085 C 
ATOM      5  C   LIG    1       22.751 -14.426   3.398  0.00  0.00    +0.019 C 
ATOM      6  C   LIG    1       22.707 -15.602   4.390  0.00  0.00    -0.004 C 
ATOM      7  C   LIG    1       24.132 -15.976   4.845  0.00  0.00    +0.019 C 
ATOM      8  C   LIG    1       24.953 -14.742   5.242  0.00  0.00    +0.085 C 
BRANCH   6   9
ATOM      9  C   LIG    1       22.002 -16.843   3.803  0.00  0.00    +0.038 C 
BRANCH   9  10
ATOM     10  C   LIG    1       22.596 -18.164   4.234  0.00  0.00    -0.047 A 
ATOM     11  C   LIG    1       23.392 -18.911   3.354  0.00  0.00    +0.003 A 
ATOM     12  C   LIG    1       23.938 -20.133   3.756  0.00  0.00    +0.000 A 
ATOM     13  C   LIG    1       23.702 -20.616   5.042  0.00  0.00    +0.000 A 
ATOM     14  C   LIG    1       22.912 -19.883   5.924  0.00  0.00    +0.000 A 
ATOM     15  C   LIG    1       22.359 -18.666   5.522  0.00  0.00    +0.003 A 
ENDBRANCH   9  10
ENDBRANCH   6   9
ENDBRANCH   2   3
BRANCH   2  16
ATOM     16  C   LIG    1       27.289 -14.627   3.228  0.00  0.00    +0.161 C 
BRANCH  16  17
ATOM     17  C   LIG    1       27.368 -16.073   3.704  0.00  0.00    -0.017 A 
ATOM     18  C   LIG    1       26.449 -17.041   3.252  0.00  0.00    +0.010 A 
ATOM     19  C   LIG    1       26.545 -18.367   3.679  0.00  0.00    +0.046 A 
ATOM     20  C   LIG    1       27.548 -18.737   4.558  0.00  0.00    +0.117 A 
ATOM     21  C   LIG    1       28.463 -17.799   5.032  0.00  0.00    +0.046 A 
ATOM     22  C   LIG    1       28.366 -16.470   4.608  0.00  0.00    +0.010 A 
BRANCH  20  23
ATOM     23  O   LIG    1       27.609 -20.044   4.943  0.00  0.00    -0.507 OA
ATOM     24  H   LIG    1       28.420 -20.437   4.583  0.00  0.00    +0.292 HD
ENDBRANCH  20  23
ENDBRANCH  16  17
BRANCH  16  25
ATOM     25  O   LIG    1       27.980 -13.876   4.228  0.00  0.00    -0.386 OA
ATOM     26  H   LIG    1       27.313 -13.542   4.847  0.00  0.00    +0.210 HD
ENDBRANCH  16  25
ENDBRANCH   2  16
TORSDOF 7
ENDMDL
MODEL 4
REMARK VINA RESULT:       1.4      2.674      6.264
REMARK  Name = *****
REMARK                            x       y       z     vdW  Elec       q    Type
REMARK                         _______ _______ _______ _____ _____    ______ ____
ROOT
ATOM      1  C   LIG    1       24.693 -14.248   4.688  0.00  0.00    +0.027 C 
ATOM      2  C   LIG    1       24.481 -15.765   4.462  0.00  0.00    +0.086 C 
ENDROOT
BRANCH   2   3
ATOM      3  N   LIG    1       25.170 -16.210   3.200  0.00  0.00    -0.297 NA
ATOM      4  C   LIG    1       26.452 -15.529   2.932  0.00  0.00    +0.085 C 
ATOM      5  C   LIG    1       27.541 -15.873   3.955  0.00  0.00    +0.019 C 
ATOM      6  C   LIG    1       27.800 -17.389   4.018  0.00  0.00    -0.004 C 
ATOM      7  C   LIG    1       26.469 -18.160   4.117  0.00  0.00    +0.019 C 
ATOM      8  C   LIG    1       25.434 -17.658   3.102  0.00  0.00    +0.085 C 
BRANCH   6   9
ATOM      9  C   LIG    1       28.723 -17.782   5.191  0.00  0.00    +0.038 C 
BRANCH   9  10
ATOM     10  C   LIG    1       28.384 -19.105   5.839  0.00  0.00    -0.047 A 
ATOM     11  C   LIG    1       29.390 -19.903   6.400  0.00  0.00    +0.003 A 
ATOM     12  C   LIG    1       29.074 -21.127   6.996  0.00  0.00    +0.000 A 
ATOM     13  C   LIG    1       27.750 -21.561   7.044  0.00  0.00    +0.000 A 
ATOM     14  C   LIG    1       26.742 -20.776   6.489  0.00  0.00    +0.000 A 
ATOM     15  C   LIG    1       27.058 -19.557   5.885  0.00  0.00    +0.003 A 
ENDBRANCH   9  10
ENDBRANCH   6   9
ENDBRANCH   2   3
BRANCH   2  16
ATOM     16  C   LIG    1       22.918 -16.043   4.514  0.00  0.00    +0.161 C 
BRANCH  16  17
ATOM     17  C   LIG    1       22.562 -17.524   4.596  0.00  0.00    -0.017 A 
ATOM     18  C   LIG    1       23.126 -18.356   5.583  0.00  0.00    +0.010 A 
ATOM     19  C   LIG    1       22.775 -19.706   5.659  0.00  0.00    +0.046 A 
ATOM     20  C   LIG    1       21.868 -20.235   4.757  0.00  0.00    +0.117 A 
ATOM     21  C   LIG    1       21.304 -19.439   3.764  0.00  0.00    +0.046 A 
ATOM     22  C   LIG    1       21.658 -18.088   3.683  0.00  0.00    +0.010 A 
BRANCH  20  23
ATOM     23  O   LIG    1       21.549 -21.556   4.874  0.00  0.00    -0.507 OA
ATOM     24  H   LIG    1       20.942 -21.664   5.624  0.00  0.00    +0.292 HD
ENDBRANCH  20  23
ENDBRANCH  16  17
BRANCH  16  25
ATOM     25  O   LIG    1       22.205 -15.559   3.375  0.00  0.00    -0.386 OA
ATOM     26  H   LIG    1       22.865 -15.281   2.722  0.00  0.00    +0.210 HD
ENDBRANCH  16  25
ENDBRANCH   2  16
TORSDOF 7
ENDMDL
MODEL 5
REMARK VINA RESULT:       1.8      2.673      6.873
REMARK  Name = *****
REMARK                            x       y       z     vdW  Elec       q    Type
REMARK                         _______ _______ _______ _____ _____    ______ ____
ROOT
ATOM      1  C   LIG    1       24.880 -17.529   3.893  0.00  0.00    +0.027 C 
ATOM      2  C   LIG    1       26.230 -18.058   4.439  0.00  0.00    +0.086 C 
ENDROOT
BRANCH   2   3
ATOM      3  N   LIG    1       27.376 -17.495   3.642  0.00  0.00    -0.297 NA
ATOM      4  C   LIG    1       26.979 -16.514   2.612  0.00  0.00    +0.085 C 
ATOM      5  C   LIG    1       26.415 -15.217   3.203  0.00  0.00    +0.019 C 
ATOM      6  C   LIG    1       27.420 -14.544   4.154  0.00  0.00    -0.004 C 
ATOM      7  C   LIG    1       28.003 -15.574   5.142  0.00  0.00    +0.019 C 
ATOM      8  C   LIG    1       28.446 -16.863   4.436  0.00  0.00    +0.085 C 
BRANCH   6   9
ATOM      9  C   LIG    1       26.798 -13.365   4.933  0.00  0.00    +0.038 C 
BRANCH   9  10
ATOM     10  C   LIG    1       25.639 -12.693   4.233  0.00  0.00    -0.047 A 
ATOM     11  C   LIG    1       25.599 -12.613   2.834  0.00  0.00    +0.003 A 
ATOM     12  C   LIG    1       24.527 -11.990   2.190  0.00  0.00    +0.000 A 
ATOM     13  C   LIG    1       23.482 -11.448   2.936  0.00  0.00    +0.000 A 
ATOM     14  C   LIG    1       23.511 -11.521   4.327  0.00  0.00    +0.000 A 
ATOM     15  C   LIG    1       24.585 -12.137   4.972  0.00  0.00    +0.003 A 
ENDBRANCH   9  10
ENDBRANCH   6   9
ENDBRANCH   2   3
BRANCH   2  16
ATOM     16  C   LIG    1       26.144 -19.644   4.473  0.00  0.00    +0.161 C 
BRANCH  16  17
ATOM     17  C   LIG    1       24.719 -20.178   4.568  0.00  0.00    -0.017 A 
ATOM     18  C   LIG    1       24.097 -20.380   5.816  0.00  0.00    +0.010 A 
ATOM     19  C   LIG    1       22.784 -20.850   5.888  0.00  0.00    +0.046 A 
ATOM     20  C   LIG    1       22.085 -21.123   4.725  0.00  0.00    +0.117 A 
ATOM     21  C   LIG    1       22.678 -20.943   3.477  0.00  0.00    +0.046 A 
ATOM     22  C   LIG    1       23.994 -20.477   3.404  0.00  0.00    +0.010 A 
BRANCH  20  23
ATOM     23  O   LIG    1       20.802 -21.572   4.843  0.00  0.00    -0.507 OA
ATOM     24  H   LIG    1       20.243 -21.083   4.217  0.00  0.00    +0.292 HD
ENDBRANCH  20  23
ENDBRANCH  16  17
BRANCH  16  25
ATOM     25  O   LIG    1       26.830 -20.237   5.577  0.00  0.00    -0.386 OA
ATOM     26  H   LIG    1       26.161 -20.467   6.239  0.00  0.00    +0.210 HD
ENDBRANCH  16  25
ENDBRANCH   2  16
TORSDOF 7
ENDMDL
MODEL 6
REMARK VINA RESULT:       2.0      2.880      6.523
REMARK  Name = *****
REMARK                            x       y       z     vdW  Elec       q    Type
REMARK                         _______ _______ _______ _____ _____    ______ ____
ROOT
ATOM      1  C   LIG    1       24.520 -17.937   4.037  0.00  0.00    +0.027 C 
ATOM      2  C   LIG    1       23.511 -19.075   3.744  0.00  0.00    +0.086 C 
ENDROOT
BRANCH   2   3
ATOM      3  N   LIG    1       22.102 -18.548   3.770  0.00  0.00    -0.297 NA
ATOM      4  C   LIG    1       21.612 -18.179   5.112  0.00  0.00    +0.085 C 
ATOM      5  C   LIG    1       22.347 -16.975   5.710  0.00  0.00    +0.019 C 
ATOM      6  C   LIG    1       22.244 -15.739   4.799  0.00  0.00    -0.004 C 
ATOM      7  C   LIG    1       22.574 -16.115   3.340  0.00  0.00    +0.019 C 
ATOM      8  C   LIG    1       21.845 -17.389   2.894  0.00  0.00    +0.085 C 
BRANCH   6   9
ATOM      9  C   LIG    1       23.159 -14.585   5.262  0.00  0.00    +0.038 C 
BRANCH   9  10
ATOM     10  C   LIG    1       24.135 -14.100   4.215  0.00  0.00    -0.047 A 
ATOM     11  C   LIG    1       23.677 -13.598   2.990  0.00  0.00    +0.003 A 
ATOM     12  C   LIG    1       24.582 -13.152   2.023  0.00  0.00    +0.000 A 
ATOM     13  C   LIG    1       25.952 -13.195   2.275  0.00  0.00    +0.000 A 
ATOM     14  C   LIG    1       26.419 -13.692   3.489  0.00  0.00    +0.000 A 
ATOM     15  C   LIG    1       25.516 -14.146   4.452  0.00  0.00    +0.003 A 
ENDBRANCH   9  10
ENDBRANCH   6   9
ENDBRANCH   2   3
BRANCH   2  16
ATOM     16  C   LIG    1       23.812 -20.255   4.764  0.00  0.00    +0.161 C 
BRANCH  16  17
ATOM     17  C   LIG    1       25.244 -20.261   5.289  0.00  0.00    -0.017 A 
ATOM     18  C   LIG    1       25.565 -20.849   6.528  0.00  0.00    +0.010 A 
ATOM     19  C   LIG    1       26.883 -20.866   6.986  0.00  0.00    +0.046 A 
ATOM     20  C   LIG    1       27.887 -20.298   6.221  0.00  0.00    +0.117 A 
ATOM     21  C   LIG    1       27.598 -19.699   4.997  0.00  0.00    +0.046 A 
ATOM     22  C   LIG    1       26.276 -19.677   4.539  0.00  0.00    +0.010 A 
BRANCH  20  23
ATOM     23  O   LIG    1       29.162 -20.344   6.704  0.00  0.00    -0.507 OA
ATOM     24  H   LIG    1       29.363 -19.496   7.132  0.00  0.00    +0.292 HD
ENDBRANCH  20  23
ENDBRANCH  16  17
BRANCH  16  25
ATOM     25  O   LIG    1       23.619 -21.559   4.214  0.00  0.00    -0.386 OA
ATOM     26  H   LIG    1       22.930 -21.486   3.538  0.00  0.00    +0.210 HD
ENDBRANCH  16  25
ENDBRANCH   2  16
TORSDOF 7
ENDMDL
MODEL 7
REMARK VINA RESULT:       2.0      2.329      5.066
REMARK  Name = *****
REMARK                            x       y       z     vdW  Elec       q    Type
REMARK                         _______ _______ _______ _____ _____    ______ ____
ROOT
ATOM      1  C   LIG    1       22.642 -17.795   6.382  0.00  0.00    +0.027 C 
ATOM      2  C   LIG    1       22.156 -18.781   5.290  0.00  0.00    +0.086 C 
ENDROOT
BRANCH   2   3
ATOM      3  N   LIG    1       22.350 -20.203   5.742  0.00  0.00    -0.297 NA
ATOM      4  C   LIG    1       22.550 -21.170   4.645  0.00  0.00    +0.085 C 
ATOM      5  C   LIG    1       23.868 -20.959   3.891  0.00  0.00    +0.019 C 
ATOM      6  C   LIG    1       25.080 -21.038   4.836  0.00  0.00    -0.004 C 
ATOM      7  C   LIG    1       24.841 -20.178   6.094  0.00  0.00    +0.019 C 
ATOM      8  C   LIG    1       23.451 -20.417   6.699  0.00  0.00    +0.085 C 
BRANCH   6   9
ATOM      9  C   LIG    1       26.394 -20.606   4.149  0.00  0.00    +0.038 C 
BRANCH   9  10
ATOM     10  C   LIG    1       27.464 -20.114   5.096  0.00  0.00    -0.047 A 
ATOM     11  C   LIG    1       27.869 -20.897   6.185  0.00  0.00    +0.003 A 
ATOM     12  C   LIG    1       28.858 -20.438   7.060  0.00  0.00    +0.000 A 
ATOM     13  C   LIG    1       29.456 -19.196   6.850  0.00  0.00    +0.000 A 
ATOM     14  C   LIG    1       29.060 -18.409   5.770  0.00  0.00    +0.000 A 
ATOM     15  C   LIG    1       28.067 -18.863   4.901  0.00  0.00    +0.003 A 
ENDBRANCH   9  10
ENDBRANCH   6   9
ENDBRANCH   2   3
BRANCH   2  16
ATOM     16  C   LIG    1       22.890 -18.394   3.935  0.00  0.00    +0.161 C 
BRANCH  16  17
ATOM     17  C   LIG    1       23.637 -17.067   4.001  0.00  0.00    -0.017 A 
ATOM     18  C   LIG    1       24.877 -16.895   3.355  0.00  0.00    +0.010 A 
ATOM     19  C   LIG    1       25.541 -15.668   3.406  0.00  0.00    +0.046 A 
ATOM     20  C   LIG    1       24.980 -14.609   4.099  0.00  0.00    +0.117 A 
ATOM     21  C   LIG    1       23.761 -14.752   4.757  0.00  0.00    +0.046 A 
ATOM     22  C   LIG    1       23.097 -15.983   4.710  0.00  0.00    +0.010 A 
BRANCH  20  23
ATOM     23  O   LIG    1       25.660 -13.426   4.116  0.00  0.00    -0.507 OA
ATOM     24  H   LIG    1       26.612 -13.613   4.074  0.00  0.00    +0.292 HD
ENDBRANCH  20  23
ENDBRANCH  16  17
BRANCH  16  25
ATOM     25  O   LIG    1       22.010 -18.262   2.818  0.00  0.00    -0.386 OA
ATOM     26  H   LIG    1       21.611 -19.132   2.664  0.00  0.00    +0.210 HD
ENDBRANCH  16  25
ENDBRANCH   2  16
TORSDOF 7
ENDMDL
MODEL 8
REMARK VINA RESULT:       2.6      2.214      4.516
REMARK  Name = *****
REMARK                            x       y       z     vdW  Elec       q    Type
REMARK                         _______ _______ _______ _____ _____    ______ ____
ROOT
ATOM      1  C   LIG    1       21.247 -16.476   2.617  0.00  0.00    +0.027 C 
ATOM      2  C   LIG    1       22.203 -16.813   3.789  0.00  0.00    +0.086 C 
ENDROOT
BRANCH   2   3
ATOM      3  N   LIG    1       21.607 -17.886   4.660  0.00  0.00    -0.297 NA
ATOM      4  C   LIG    1       21.266 -19.133   3.948  0.00  0.00    +0.085 C 
ATOM      5  C   LIG    1       22.497 -19.881   3.425  0.00  0.00    +0.019 C 
ATOM      6  C   LIG    1       23.477 -20.224   4.562  0.00  0.00    -0.004 C 
ATOM      7  C   LIG    1       23.727 -18.988   5.449  0.00  0.00    +0.019 C 
ATOM      8  C   LIG    1       22.421 -18.276   5.827  0.00  0.00    +0.085 C 
BRANCH   6   9
ATOM      9  C   LIG    1       24.821 -20.773   4.037  0.00  0.00    +0.038 C 
BRANCH   9  10
ATOM     10  C   LIG    1       25.957 -20.702   5.032  0.00  0.00    -0.047 A 
ATOM     11  C   LIG    1       26.998 -19.779   4.861  0.00  0.00    +0.003 A 
ATOM     12  C   LIG    1       28.048 -19.717   5.781  0.00  0.00    +0.000 A 
ATOM     13  C   LIG    1       28.065 -20.571   6.883  0.00  0.00    +0.000 A 
ATOM     14  C   LIG    1       27.035 -21.493   7.062  0.00  0.00    +0.000 A 
ATOM     15  C   LIG    1       25.990 -21.561   6.139  0.00  0.00    +0.003 A 
ENDBRANCH   9  10
ENDBRANCH   6   9
ENDBRANCH   2   3
BRANCH   2  16
ATOM     16  C   LIG    1       22.551 -15.453   4.530  0.00  0.00    +0.161 C 
BRANCH  16  17
ATOM     17  C   LIG    1       23.815 -14.778   4.009  0.00  0.00    -0.017 A 
ATOM     18  C   LIG    1       23.759 -13.535   3.348  0.00  0.00    +0.010 A 
ATOM     19  C   LIG    1       24.927 -12.918   2.894  0.00  0.00    +0.046 A 
ATOM     20  C   LIG    1       26.152 -13.531   3.091  0.00  0.00    +0.117 A 
ATOM     21  C   LIG    1       26.237 -14.766   3.731  0.00  0.00    +0.046 A 
ATOM     22  C   LIG    1       25.068 -15.387   4.182  0.00  0.00    +0.010 A 
BRANCH  20  23
ATOM     23  O   LIG    1       27.267 -12.888   2.638  0.00  0.00    -0.507 OA
ATOM     24  H   LIG    1       28.050 -13.330   3.004  0.00  0.00    +0.292 HD
ENDBRANCH  20  23
ENDBRANCH  16  17
BRANCH  16  25
ATOM     25  O   LIG    1       22.768 -15.598   5.935  0.00  0.00    -0.386 OA
ATOM     26  H   LIG    1       22.633 -16.533   6.149  0.00  0.00    +0.210 HD
ENDBRANCH  16  25
ENDBRANCH   2  16
TORSDOF 7
ENDMDL
MODEL 9
REMARK VINA RESULT:       2.8      2.454      6.026
REMARK  Name = *****
REMARK                            x       y       z     vdW  Elec       q    Type
REMARK                         _______ _______ _______ _____ _____    ______ ____
ROOT
ATOM      1  C   LIG    1       24.735 -18.558   5.564  0.00  0.00    +0.027 C 
ATOM      2  C   LIG    1       25.267 -20.000   5.376  0.00  0.00    +0.086 C 
ENDROOT
BRANCH   2   3
ATOM      3  N   LIG    1       26.177 -20.073   4.179  0.00  0.00    -0.297 NA
ATOM      4  C   LIG    1       25.756 -19.233   3.041  0.00  0.00    +0.085 C 
ATOM      5  C   LIG    1       25.843 -17.731   3.338  0.00  0.00    +0.019 C 
ATOM      6  C   LIG    1       27.266 -17.316   3.749  0.00  0.00    -0.004 C 
ATOM      7  C   LIG    1       27.823 -18.279   4.816  0.00  0.00    +0.019 C 
ATOM      8  C   LIG    1       27.592 -19.750   4.441  0.00  0.00    +0.085 C 
BRANCH   6   9
ATOM      9  C   LIG    1       27.331 -15.864   4.269  0.00  0.00    +0.038 C 
BRANCH   9  10
ATOM     10  C   LIG    1       26.267 -14.948   3.707  0.00  0.00    -0.047 A 
ATOM     11  C   LIG    1       26.546 -14.119   2.612  0.00  0.00    +0.003 A 
ATOM     12  C   LIG    1       25.561 -13.272   2.096  0.00  0.00    +0.000 A 
ATOM     13  C   LIG    1       24.288 -13.252   2.663  0.00  0.00    +0.000 A 
ATOM     14  C   LIG    1       24.001 -14.072   3.752  0.00  0.00    +0.000 A 
ATOM     15  C   LIG    1       24.986 -14.912   4.274  0.00  0.00    +0.003 A 
ENDBRANCH   9  10
ENDBRANCH   6   9
ENDBRANCH   2   3
BRANCH   2  16
ATOM     16  C   LIG    1       24.012 -20.972   5.333  0.00  0.00    +0.161 C 
BRANCH  16  17
ATOM     17  C   LIG    1       22.755 -20.324   4.762  0.00  0.00    -0.017 A 
ATOM     18  C   LIG    1       22.739 -18.965   4.391  0.00  0.00    +0.010 A 
ATOM     19  C   LIG    1       21.588 -18.390   3.850  0.00  0.00    +0.046 A 
ATOM     20  C   LIG    1       20.450 -19.158   3.677  0.00  0.00    +0.117 A 
ATOM     21  C   LIG    1       20.432 -20.501   4.045  0.00  0.00    +0.046 A 
ATOM     22  C   LIG    1       21.583 -21.077   4.591  0.00  0.00    +0.010 A 
BRANCH  20  23
ATOM     23  O   LIG    1       19.350 -18.556   3.137  0.00  0.00    -0.507 OA
ATOM     24  H   LIG    1       18.606 -18.660   3.751  0.00  0.00    +0.292 HD
ENDBRANCH  20  23
ENDBRANCH  16  17
BRANCH  16  25
ATOM     25  O   LIG    1       23.618 -21.466   6.614  0.00  0.00    -0.386 OA
ATOM     26  H   LIG    1       24.339 -22.024   6.940  0.00  0.00    +0.210 HD
ENDBRANCH  16  25
ENDBRANCH   2  16
TORSDOF 7
ENDMDL
