MODEL 1
REMARK VINA RESULT:      -8.9      0.000      0.000
REMARK  Name = *****
REMARK                            x       y       z     vdW  Elec       q    Type
REMARK                         _______ _______ _______ _____ _____    ______ ____
ROOT
ATOM      1  N   LIG    1       25.445 -28.040   6.619  0.00  0.00    -0.311 N 
ATOM      2  C   LIG    1       26.474 -26.994   6.850  0.00  0.00    +0.125 C 
ATOM      3  C   LIG    1       26.357 -25.864   5.801  0.00  0.00    +0.127 C 
ATOM      4  N   LIG    1       25.005 -25.296   5.751  0.00  0.00    -0.293 N 
ATOM      5  C   LIG    1       24.626 -24.103   6.381  0.00  0.00    +0.263 C 
ATOM      6  O   LIG    1       23.464 -23.902   6.732  0.00  0.00    -0.268 OA
ATOM      7  C   LIG    1       23.998 -26.332   5.483  0.00  0.00    +0.127 C 
ATOM      8  C   LIG    1       24.070 -27.449   6.545  0.00  0.00    +0.125 C 
ENDROOT
BRANCH   5   9
ATOM      9  C   LIG    1       25.648 -23.090   6.613  0.00  0.00    +0.103 C 
ATOM     10  N   LIG    1       25.887 -22.043   5.741  0.00  0.00    -0.351 NA
ATOM     11  H   LIG    1       25.368 -21.891   4.887  0.00  0.00    +0.166 HD
ATOM     12  C   LIG    1       26.874 -21.209   6.228  0.00  0.00    +0.047 C 
ATOM     13  C   LIG    1       27.289 -21.742   7.445  0.00  0.00    +0.002 C 
ATOM     14  C   LIG    1       28.242 -21.054   8.219  0.00  0.00    +0.034 C 
ATOM     15  C   LIG    1       28.767 -19.856   7.732  0.00  0.00    +0.048 C 
ATOM     16  C   LIG    1       28.384 -19.367   6.484  0.00  0.00    +0.026 C 
ATOM     17  C   LIG    1       27.430 -20.034   5.704  0.00  0.00    +0.028 C 
ATOM     18  C   LIG    1       26.590 -22.960   7.621  0.00  0.00    +0.041 C 
BRANCH  15  19
ATOM     19  N   LIG    1       29.652 -19.094   8.556  0.00  0.00    -0.221 NA
ATOM     20  H   LIG    1       29.490 -18.084   8.530  0.00  0.00    +0.173 HD
BRANCH  19  21
ATOM     21  S   LIG    1       31.318 -19.354   8.359  0.00  0.00    +0.040 S 
ATOM     22  O   LIG    1       31.514 -19.580   6.951  0.00  0.00    -0.155 OA
ATOM     23  O   LIG    1       31.794 -20.314   9.345  0.00  0.00    -0.155 OA
ATOM     24  C   LIG    1       31.976 -17.748   8.749  0.00  0.00    +0.218 C 
ENDBRANCH  19  21
ENDBRANCH  15  19
ENDBRANCH   5   9
BRANCH   1  26
ATOM     25  C   LIG    1       25.000 -30.327   7.495  0.00  0.00    +0.068 A 
ATOM     26  C   LIG    1       25.498 -29.000   7.685  0.00  0.00    +0.142 A 
ATOM     27  N   LIG    1       25.978 -28.579   8.887  0.00  0.00    -0.238 NA
ATOM     28  C   LIG    1       25.975 -29.435   9.925  0.00  0.00    +0.113 A 
ATOM     29  C   LIG    1       25.512 -30.728   9.845  0.00  0.00    +0.022 A 
ATOM     30  C   LIG    1       25.033 -31.173   8.617  0.00  0.00    +0.028 A 
BRANCH  25  31
ATOM     31  N   LIG    1       24.561 -30.778   6.233  0.00  0.00    -0.339 N 
ATOM     32  H   LIG    1       23.595 -30.472   6.100  0.00  0.00    +0.146 HD
BRANCH  31  34
ATOM     33  C   LIG    1       23.584 -32.910   5.477  0.00  0.00    +0.027 C 
ATOM     34  C   LIG    1       24.867 -32.124   5.732  0.00  0.00    +0.064 C 
ATOM     35  C   LIG    1       25.678 -32.038   4.440  0.00  0.00    +0.027 C 
ENDBRANCH  31  34
ENDBRANCH  25  31
ENDBRANCH   1  26
TORSDOF 6
ENDMDL
MODEL 2
REMARK VINA RESULT:      -7.7      2.819      5.099
REMARK  Name = *****
REMARK                            x       y       z     vdW  Elec       q    Type
REMARK                         _______ _______ _______ _____ _____    ______ ____
ROOT
ATOM      1  N   LIG    1       24.707 -30.903   8.929  0.00  0.00    -0.311 N 
ATOM      2  C   LIG    1       24.706 -29.426   9.085  0.00  0.00    +0.125 C 
ATOM      3  C   LIG    1       25.699 -28.768   8.099  0.00  0.00    +0.127 C 
ATOM      4  N   LIG    1       25.445 -29.168   6.711  0.00  0.00    -0.293 N 
ATOM      5  C   LIG    1       24.743 -28.390   5.781  0.00  0.00    +0.263 C 
ATOM      6  O   LIG    1       24.142 -28.903   4.837  0.00  0.00    -0.268 OA
ATOM      7  C   LIG    1       25.487 -30.629   6.559  0.00  0.00    +0.127 C 
ATOM      8  C   LIG    1       24.471 -31.304   7.504  0.00  0.00    +0.125 C 
ENDROOT
BRANCH   5   9
ATOM      9  C   LIG    1       24.741 -26.942   5.953  0.00  0.00    +0.103 C 
ATOM     10  N   LIG    1       23.605 -26.219   6.269  0.00  0.00    -0.351 NA
ATOM     11  H   LIG    1       22.695 -26.635   6.418  0.00  0.00    +0.166 HD
ATOM     12  C   LIG    1       23.897 -24.878   6.419  0.00  0.00    +0.047 C 
ATOM     13  C   LIG    1       25.261 -24.734   6.180  0.00  0.00    +0.002 C 
ATOM     14  C   LIG    1       25.867 -23.474   6.338  0.00  0.00    +0.034 C 
ATOM     15  C   LIG    1       25.075 -22.387   6.713  0.00  0.00    +0.048 C 
ATOM     16  C   LIG    1       23.700 -22.538   6.891  0.00  0.00    +0.026 C 
ATOM     17  C   LIG    1       23.081 -23.787   6.745  0.00  0.00    +0.028 C 
ATOM     18  C   LIG    1       25.749 -26.006   5.796  0.00  0.00    +0.041 C 
BRANCH  15  19
ATOM     19  N   LIG    1       25.695 -21.129   6.984  0.00  0.00    -0.221 NA
ATOM     20  H   LIG    1       26.264 -20.763   6.216  0.00  0.00    +0.173 HD
BRANCH  19  21
ATOM     21  S   LIG    1       26.610 -21.000   8.408  0.00  0.00    +0.040 S 
ATOM     22  O   LIG    1       27.103 -22.327   8.676  0.00  0.00    -0.155 OA
ATOM     23  O   LIG    1       25.864 -20.262   9.416  0.00  0.00    -0.155 OA
ATOM     24  C   LIG    1       27.982 -20.011   7.860  0.00  0.00    +0.218 C 
ENDBRANCH  19  21
ENDBRANCH  15  19
ENDBRANCH   5   9
BRANCH   1  26
ATOM     25  C   LIG    1       23.935 -31.745  11.142  0.00  0.00    +0.068 A 
ATOM     26  C   LIG    1       23.682 -31.468   9.761  0.00  0.00    +0.142 A 
ATOM     27  N   LIG    1       22.496 -31.782   9.173  0.00  0.00    -0.238 NA
ATOM     28  C   LIG    1       21.540 -32.376   9.911  0.00  0.00    +0.113 A 
ATOM     29  C   LIG    1       21.690 -32.688  11.241  0.00  0.00    +0.022 A 
ATOM     30  C   LIG    1       22.893 -32.358  11.857  0.00  0.00    +0.028 A 
BRANCH  25  31
ATOM     31  N   LIG    1       25.143 -31.361  11.762  0.00  0.00    -0.339 N 
ATOM     32  H   LIG    1       25.779 -32.160  11.750  0.00  0.00    +0.146 HD
BRANCH  31  34
ATOM     33  C   LIG    1       26.587 -30.478  13.553  0.00  0.00    +0.027 C 
ATOM     34  C   LIG    1       25.170 -30.556  12.990  0.00  0.00    +0.064 C 
ATOM     35  C   LIG    1       24.653 -29.145  12.712  0.00  0.00    +0.027 C 
ENDBRANCH  31  34
ENDBRANCH  25  31
ENDBRANCH   1  26
TORSDOF 6
ENDMDL
MODEL 3
REMARK VINA RESULT:      -7.7      2.059      2.762
REMARK  Name = *****
REMARK                            x       y       z     vdW  Elec       q    Type
REMARK                         _______ _______ _______ _____ _____    ______ ____
ROOT
ATOM      1  N   LIG    1       25.195 -29.852   7.813  0.00  0.00    -0.311 N 
ATOM      2  C   LIG    1       25.600 -28.507   8.297  0.00  0.00    +0.125 C 
ATOM      3  C   LIG    1       26.218 -27.673   7.151  0.00  0.00    +0.127 C 
ATOM      4  N   LIG    1       25.327 -27.587   5.989  0.00  0.00    -0.293 N 
ATOM      5  C   LIG    1       24.503 -26.490   5.705  0.00  0.00    +0.263 C 
ATOM      6  O   LIG    1       23.464 -26.616   5.057  0.00  0.00    -0.268 OA
ATOM      7  C   LIG    1       24.963 -28.922   5.493  0.00  0.00    +0.127 C 
ATOM      8  C   LIG    1       24.305 -29.757   6.611  0.00  0.00    +0.125 C 
ENDROOT
BRANCH   5   9
ATOM      9  C   LIG    1       24.907 -25.178   6.196  0.00  0.00    +0.103 C 
ATOM     10  N   LIG    1       24.007 -24.226   6.639  0.00  0.00    -0.351 NA
ATOM     11  H   LIG    1       23.006 -24.367   6.669  0.00  0.00    +0.166 HD
ATOM     12  C   LIG    1       24.662 -23.098   7.091  0.00  0.00    +0.047 C 
ATOM     13  C   LIG    1       26.025 -23.328   6.923  0.00  0.00    +0.002 C 
ATOM     14  C   LIG    1       26.954 -22.372   7.374  0.00  0.00    +0.034 C 
ATOM     15  C   LIG    1       26.482 -21.199   7.963  0.00  0.00    +0.048 C 
ATOM     16  C   LIG    1       25.113 -20.958   8.070  0.00  0.00    +0.026 C 
ATOM     17  C   LIG    1       24.173 -21.902   7.634  0.00  0.00    +0.028 C 
ATOM     18  C   LIG    1       26.154 -24.580   6.277  0.00  0.00    +0.041 C 
BRANCH  15  19
ATOM     19  N   LIG    1       27.414 -20.272   8.523  0.00  0.00    -0.221 NA
ATOM     20  H   LIG    1       27.075 -19.308   8.573  0.00  0.00    +0.173 HD
BRANCH  19  21
ATOM     21  S   LIG    1       28.974 -20.235   7.853  0.00  0.00    +0.040 S 
ATOM     22  O   LIG    1       28.785 -20.100   6.432  0.00  0.00    -0.155 OA
ATOM     23  O   LIG    1       29.779 -21.316   8.402  0.00  0.00    -0.155 OA
ATOM     24  C   LIG    1       29.588 -18.683   8.470  0.00  0.00    +0.218 C 
ENDBRANCH  19  21
ENDBRANCH  15  19
ENDBRANCH   5   9
BRANCH   1  26
ATOM     25  C   LIG    1       25.038 -31.759   9.406  0.00  0.00    +0.068 A 
ATOM     26  C   LIG    1       24.507 -30.546   8.865  0.00  0.00    +0.142 A 
ATOM     27  N   LIG    1       23.312 -30.041   9.275  0.00  0.00    -0.238 NA
ATOM     28  C   LIG    1       22.610 -30.707  10.211  0.00  0.00    +0.113 A 
ATOM     29  C   LIG    1       23.033 -31.882  10.786  0.00  0.00    +0.022 A 
ATOM     30  C   LIG    1       24.260 -32.400  10.385  0.00  0.00    +0.028 A 
BRANCH  25  31
ATOM     31  N   LIG    1       26.306 -32.246   9.022  0.00  0.00    -0.339 N 
ATOM     32  H   LIG    1       26.958 -31.460   9.000  0.00  0.00    +0.146 HD
BRANCH  31  34
ATOM     33  C   LIG    1       25.123 -33.609   7.345  0.00  0.00    +0.027 C 
ATOM     34  C   LIG    1       26.473 -33.231   7.946  0.00  0.00    +0.064 C 
ATOM     35  C   LIG    1       27.380 -32.669   6.851  0.00  0.00    +0.027 C 
ENDBRANCH  31  34
ENDBRANCH  25  31
ENDBRANCH   1  26
TORSDOF 6
ENDMDL
MODEL 4
REMARK VINA RESULT:      -7.5      4.546     10.354
REMARK  Name = *****
REMARK                            x       y       z     vdW  Elec       q    Type
REMARK                         _______ _______ _______ _____ _____    ______ ____
ROOT
ATOM      1  N   LIG    1       24.347 -23.705   6.070  0.00  0.00    -0.311 N 
ATOM      2  C   LIG    1       24.003 -24.889   6.898  0.00  0.00    +0.125 C 
ATOM      3  C   LIG    1       23.706 -26.117   6.007  0.00  0.00    +0.127 C 
ATOM      4  N   LIG    1       24.805 -26.403   5.078  0.00  0.00    -0.293 N 
ATOM      5  C   LIG    1       25.780 -27.387   5.288  0.00  0.00    +0.263 C 
ATOM      6  O   LIG    1       26.903 -27.296   4.793  0.00  0.00    -0.268 OA
ATOM      7  C   LIG    1       25.112 -25.239   4.236  0.00  0.00    +0.127 C 
ATOM      8  C   LIG    1       25.454 -24.012   5.107  0.00  0.00    +0.125 C 
ENDROOT
BRANCH   5   9
ATOM      9  C   LIG    1       25.433 -28.538   6.113  0.00  0.00    +0.103 C 
ATOM     10  N   LIG    1       25.874 -28.699   7.414  0.00  0.00    -0.351 NA
ATOM     11  H   LIG    1       26.459 -28.029   7.897  0.00  0.00    +0.166 HD
ATOM     12  C   LIG    1       25.357 -29.850   7.974  0.00  0.00    +0.047 C 
ATOM     13  C   LIG    1       24.568 -30.454   6.999  0.00  0.00    +0.002 C 
ATOM     14  C   LIG    1       23.842 -31.618   7.312  0.00  0.00    +0.034 C 
ATOM     15  C   LIG    1       23.949 -32.154   8.596  0.00  0.00    +0.048 C 
ATOM     16  C   LIG    1       24.791 -31.570   9.542  0.00  0.00    +0.026 C 
ATOM     17  C   LIG    1       25.515 -30.406   9.250  0.00  0.00    +0.028 C 
ATOM     18  C   LIG    1       24.704 -29.680   5.821  0.00  0.00    +0.041 C 
BRANCH  15  19
ATOM     19  N   LIG    1       23.135 -33.270   8.959  0.00  0.00    -0.221 NA
ATOM     20  H   LIG    1       22.920 -33.907   8.188  0.00  0.00    +0.173 HD
BRANCH  19  21
ATOM     21  S   LIG    1       21.683 -32.942   9.776  0.00  0.00    +0.040 S 
ATOM     22  O   LIG    1       20.702 -33.823   9.196  0.00  0.00    -0.155 OA
ATOM     23  O   LIG    1       21.456 -31.506   9.835  0.00  0.00    -0.155 OA
ATOM     24  C   LIG    1       22.052 -33.540  11.410  0.00  0.00    +0.218 C 
ENDBRANCH  19  21
ENDBRANCH  15  19
ENDBRANCH   5   9
BRANCH   1  26
ATOM     25  C   LIG    1       24.054 -21.374   6.895  0.00  0.00    +0.068 A 
ATOM     26  C   LIG    1       24.746 -22.626   6.929  0.00  0.00    +0.142 A 
ATOM     27  N   LIG    1       25.834 -22.822   7.721  0.00  0.00    -0.238 NA
ATOM     28  C   LIG    1       26.274 -21.806   8.487  0.00  0.00    +0.113 A 
ATOM     29  C   LIG    1       25.682 -20.565   8.519  0.00  0.00    +0.022 A 
ATOM     30  C   LIG    1       24.559 -20.358   7.724  0.00  0.00    +0.028 A 
BRANCH  25  31
ATOM     31  N   LIG    1       22.889 -21.195   6.119  0.00  0.00    -0.339 N 
ATOM     32  H   LIG    1       22.339 -22.055   6.163  0.00  0.00    +0.146 HD
BRANCH  31  34
ATOM     33  C   LIG    1       22.442 -19.087   4.926  0.00  0.00    +0.027 C 
ATOM     34  C   LIG    1       22.914 -20.533   4.809  0.00  0.00    +0.064 C 
ATOM     35  C   LIG    1       24.328 -20.562   4.228  0.00  0.00    +0.027 C 
ENDBRANCH  31  34
ENDBRANCH  25  31
ENDBRANCH   1  26
TORSDOF 6
ENDMDL
MODEL 5
REMARK VINA RESULT:      -7.3      3.825      9.699
REMARK  Name = *****
REMARK                            x       y       z     vdW  Elec       q    Type
REMARK                         _______ _______ _______ _____ _____    ______ ____
ROOT
ATOM      1  N   LIG    1       27.073 -20.764   7.920  0.00  0.00    -0.311 N 
ATOM      2  C   LIG    1       27.306 -22.180   7.537  0.00  0.00    +0.125 C 
ATOM      3  C   LIG    1       26.167 -23.087   8.060  0.00  0.00    +0.127 C 
ATOM      4  N   LIG    1       24.846 -22.616   7.629  0.00  0.00    -0.293 N 
ATOM      5  C   LIG    1       24.132 -23.150   6.547  0.00  0.00    +0.263 C 
ATOM      6  O   LIG    1       23.313 -22.478   5.922  0.00  0.00    -0.268 OA
ATOM      7  C   LIG    1       24.609 -21.228   8.046  0.00  0.00    +0.127 C 
ATOM      8  C   LIG    1       25.712 -20.299   7.498  0.00  0.00    +0.125 C 
ENDROOT
BRANCH   5   9
ATOM      9  C   LIG    1       24.379 -24.538   6.174  0.00  0.00    +0.103 C 
ATOM     10  N   LIG    1       25.516 -24.951   5.504  0.00  0.00    -0.351 NA
ATOM     11  H   LIG    1       26.268 -24.330   5.233  0.00  0.00    +0.166 HD
ATOM     12  C   LIG    1       25.514 -26.320   5.322  0.00  0.00    +0.047 C 
ATOM     13  C   LIG    1       24.334 -26.799   5.882  0.00  0.00    +0.002 C 
ATOM     14  C   LIG    1       24.090 -28.185   5.915  0.00  0.00    +0.034 C 
ATOM     15  C   LIG    1       25.037 -29.049   5.362  0.00  0.00    +0.048 C 
ATOM     16  C   LIG    1       26.186 -28.548   4.751  0.00  0.00    +0.026 C 
ATOM     17  C   LIG    1       26.448 -27.171   4.717  0.00  0.00    +0.028 C 
ATOM     18  C   LIG    1       23.597 -25.673   6.318  0.00  0.00    +0.041 C 
BRANCH  15  19
ATOM     19  N   LIG    1       24.854 -30.460   5.486  0.00  0.00    -0.221 NA
ATOM     20  H   LIG    1       24.032 -30.826   4.999  0.00  0.00    +0.173 HD
BRANCH  19  21
ATOM     21  S   LIG    1       24.854 -31.111   7.054  0.00  0.00    +0.040 S 
ATOM     22  O   LIG    1       23.468 -31.268   7.411  0.00  0.00    -0.155 OA
ATOM     23  O   LIG    1       25.766 -30.362   7.906  0.00  0.00    -0.155 OA
ATOM     24  C   LIG    1       25.528 -32.732   6.766  0.00  0.00    +0.218 C 
ENDBRANCH  19  21
ENDBRANCH  15  19
ENDBRANCH   5   9
BRANCH   1  26
ATOM     25  C   LIG    1       28.115 -19.778   5.886  0.00  0.00    +0.068 A 
ATOM     26  C   LIG    1       28.073 -19.937   7.307  0.00  0.00    +0.142 A 
ATOM     27  N   LIG    1       29.006 -19.370   8.120  0.00  0.00    -0.238 NA
ATOM     28  C   LIG    1       29.997 -18.647   7.568  0.00  0.00    +0.113 A 
ATOM     29  C   LIG    1       30.127 -18.441   6.215  0.00  0.00    +0.022 A 
ATOM     30  C   LIG    1       29.171 -19.003   5.376  0.00  0.00    +0.028 A 
BRANCH  25  31
ATOM     31  N   LIG    1       27.112 -20.315   5.052  0.00  0.00    -0.339 N 
ATOM     32  H   LIG    1       27.564 -20.862   4.317  0.00  0.00    +0.146 HD
BRANCH  31  34
ATOM     33  C   LIG    1       26.362 -18.446   3.633  0.00  0.00    +0.027 C 
ATOM     34  C   LIG    1       25.947 -19.530   4.624  0.00  0.00    +0.064 C 
ATOM     35  C   LIG    1       24.904 -20.440   3.976  0.00  0.00    +0.027 C 
ENDBRANCH  31  34
ENDBRANCH  25  31
ENDBRANCH   1  26
TORSDOF 6
ENDMDL
MODEL 6
REMARK VINA RESULT:      -7.1      4.378      9.882
REMARK  Name = *****
REMARK                            x       y       z     vdW  Elec       q    Type
REMARK                         _______ _______ _______ _____ _____    ______ ____
ROOT
ATOM      1  N   LIG    1       24.320 -23.733   6.048  0.00  0.00    -0.311 N 
ATOM      2  C   LIG    1       24.000 -24.935   6.860  0.00  0.00    +0.125 C 
ATOM      3  C   LIG    1       23.707 -26.151   5.950  0.00  0.00    +0.127 C 
ATOM      4  N   LIG    1       24.798 -26.408   5.004  0.00  0.00    -0.293 N 
ATOM      5  C   LIG    1       25.787 -27.384   5.186  0.00  0.00    +0.263 C 
ATOM      6  O   LIG    1       26.903 -27.271   4.680  0.00  0.00    -0.268 OA
ATOM      7  C   LIG    1       25.081 -25.226   4.179  0.00  0.00    +0.127 C 
ATOM      8  C   LIG    1       25.419 -24.010   5.067  0.00  0.00    +0.125 C 
ENDROOT
BRANCH   5   9
ATOM      9  C   LIG    1       25.463 -28.553   5.995  0.00  0.00    +0.103 C 
ATOM     10  N   LIG    1       25.797 -29.844   5.627  0.00  0.00    -0.351 NA
ATOM     11  H   LIG    1       26.300 -30.077   4.780  0.00  0.00    +0.166 HD
ATOM     12  C   LIG    1       25.414 -30.750   6.595  0.00  0.00    +0.047 C 
ATOM     13  C   LIG    1       24.805 -30.020   7.612  0.00  0.00    +0.002 C 
ATOM     14  C   LIG    1       24.378 -30.675   8.782  0.00  0.00    +0.034 C 
ATOM     15  C   LIG    1       24.558 -32.056   8.885  0.00  0.00    +0.048 C 
ATOM     16  C   LIG    1       25.116 -32.780   7.832  0.00  0.00    +0.026 C 
ATOM     17  C   LIG    1       25.554 -32.142   6.663  0.00  0.00    +0.028 C 
ATOM     18  C   LIG    1       24.756 -28.673   7.180  0.00  0.00    +0.041 C 
BRANCH  15  19
ATOM     19  N   LIG    1       24.230 -32.715  10.109  0.00  0.00    -0.221 NA
ATOM     20  H   LIG    1       23.271 -32.557  10.432  0.00  0.00    +0.173 HD
BRANCH  19  21
ATOM     21  S   LIG    1       25.265 -32.467  11.431  0.00  0.00    +0.040 S 
ATOM     22  O   LIG    1       26.315 -31.608  10.948  0.00  0.00    -0.155 OA
ATOM     23  O   LIG    1       25.573 -33.738  12.069  0.00  0.00    -0.155 OA
ATOM     24  C   LIG    1       24.233 -31.507  12.516  0.00  0.00    +0.218 C 
ENDBRANCH  19  21
ENDBRANCH  15  19
ENDBRANCH   5   9
BRANCH   1  26
ATOM     25  C   LIG    1       24.035 -21.406   6.887  0.00  0.00    +0.068 A 
ATOM     26  C   LIG    1       24.716 -22.664   6.921  0.00  0.00    +0.142 A 
ATOM     27  N   LIG    1       25.792 -22.876   7.727  0.00  0.00    -0.238 NA
ATOM     28  C   LIG    1       26.229 -21.870   8.506  0.00  0.00    +0.113 A 
ATOM     29  C   LIG    1       25.647 -20.624   8.540  0.00  0.00    +0.022 A 
ATOM     30  C   LIG    1       24.538 -20.402   7.731  0.00  0.00    +0.028 A 
BRANCH  25  31
ATOM     31  N   LIG    1       22.883 -21.211   6.097  0.00  0.00    -0.339 N 
ATOM     32  H   LIG    1       22.334 -22.073   6.111  0.00  0.00    +0.146 HD
BRANCH  31  34
ATOM     33  C   LIG    1       22.436 -19.080   4.944  0.00  0.00    +0.027 C 
ATOM     34  C   LIG    1       22.928 -20.518   4.804  0.00  0.00    +0.064 C 
ATOM     35  C   LIG    1       24.354 -20.517   4.252  0.00  0.00    +0.027 C 
ENDBRANCH  31  34
ENDBRANCH  25  31
ENDBRANCH   1  26
TORSDOF 6
ENDMDL
MODEL 7
REMARK VINA RESULT:      -7.1      4.413      7.168
REMARK  Name = *****
REMARK                            x       y       z     vdW  Elec       q    Type
REMARK                         _______ _______ _______ _____ _____    ______ ____
ROOT
ATOM      1  N   LIG    1       21.927 -31.477  10.628  0.00  0.00    -0.311 N 
ATOM      2  C   LIG    1       22.382 -30.106  10.281  0.00  0.00    +0.125 C 
ATOM      3  C   LIG    1       23.828 -30.127   9.733  0.00  0.00    +0.127 C 
ATOM      4  N   LIG    1       23.975 -31.052   8.603  0.00  0.00    -0.293 N 
ATOM      5  C   LIG    1       23.976 -30.659   7.257  0.00  0.00    +0.263 C 
ATOM      6  O   LIG    1       23.623 -31.427   6.363  0.00  0.00    -0.268 OA
ATOM      7  C   LIG    1       23.560 -32.413   8.967  0.00  0.00    +0.127 C 
ATOM      8  C   LIG    1       22.104 -32.420   9.477  0.00  0.00    +0.125 C 
ENDROOT
BRANCH   5   9
ATOM      9  C   LIG    1       24.414 -29.307   6.932  0.00  0.00    +0.103 C 
ATOM     10  N   LIG    1       23.919 -28.589   5.859  0.00  0.00    -0.351 NA
ATOM     11  H   LIG    1       23.211 -28.937   5.225  0.00  0.00    +0.166 HD
ATOM     12  C   LIG    1       24.470 -27.324   5.813  0.00  0.00    +0.047 C 
ATOM     13  C   LIG    1       25.354 -27.230   6.885  0.00  0.00    +0.002 C 
ATOM     14  C   LIG    1       26.012 -26.013   7.141  0.00  0.00    +0.034 C 
ATOM     15  C   LIG    1       25.776 -24.928   6.296  0.00  0.00    +0.048 C 
ATOM     16  C   LIG    1       24.933 -25.056   5.192  0.00  0.00    +0.026 C 
ATOM     17  C   LIG    1       24.263 -26.259   4.926  0.00  0.00    +0.028 C 
ATOM     18  C   LIG    1       25.380 -28.500   7.509  0.00  0.00    +0.041 C 
BRANCH  15  19
ATOM     19  N   LIG    1       26.351 -23.658   6.609  0.00  0.00    -0.221 NA
ATOM     20  H   LIG    1       27.243 -23.709   7.108  0.00  0.00    +0.173 HD
BRANCH  19  21
ATOM     21  S   LIG    1       25.370 -22.535   7.420  0.00  0.00    +0.040 S 
ATOM     22  O   LIG    1       25.955 -22.377   8.726  0.00  0.00    -0.155 OA
ATOM     23  O   LIG    1       23.968 -22.896   7.267  0.00  0.00    -0.155 OA
ATOM     24  C   LIG    1       25.691 -21.050   6.496  0.00  0.00    +0.218 C 
ENDBRANCH  19  21
ENDBRANCH  15  19
ENDBRANCH   5   9
BRANCH   1  26
ATOM     25  C   LIG    1       20.160 -31.528  12.380  0.00  0.00    +0.068 A 
ATOM     26  C   LIG    1       20.543 -31.435  11.005  0.00  0.00    +0.142 A 
ATOM     27  N   LIG    1       19.621 -31.368  10.007  0.00  0.00    -0.238 NA
ATOM     28  C   LIG    1       18.313 -31.397  10.325  0.00  0.00    +0.113 A 
ATOM     29  C   LIG    1       17.846 -31.491  11.615  0.00  0.00    +0.022 A 
ATOM     30  C   LIG    1       18.780 -31.546  12.644  0.00  0.00    +0.028 A 
BRANCH  25  31
ATOM     31  N   LIG    1       21.119 -31.535  13.415  0.00  0.00    -0.339 N 
ATOM     32  H   LIG    1       20.892 -32.297  14.058  0.00  0.00    +0.146 HD
BRANCH  31  34
ATOM     33  C   LIG    1       21.005 -30.149  15.449  0.00  0.00    +0.027 C 
ATOM     34  C   LIG    1       21.595 -30.300  14.050  0.00  0.00    +0.064 C 
ATOM     35  C   LIG    1       23.121 -30.302  14.137  0.00  0.00    +0.027 C 
ENDBRANCH  31  34
ENDBRANCH  25  31
ENDBRANCH   1  26
TORSDOF 6
ENDMDL
MODEL 8
REMARK VINA RESULT:      -7.1      3.838     10.023
REMARK  Name = *****
REMARK                            x       y       z     vdW  Elec       q    Type
REMARK                         _______ _______ _______ _____ _____    ______ ____
ROOT
ATOM      1  N   LIG    1       27.033 -20.702   7.391  0.00  0.00    -0.311 N 
ATOM      2  C   LIG    1       27.286 -22.121   7.033  0.00  0.00    +0.125 C 
ATOM      3  C   LIG    1       26.268 -23.055   7.729  0.00  0.00    +0.127 C 
ATOM      4  N   LIG    1       24.882 -22.663   7.452  0.00  0.00    -0.293 N 
ATOM      5  C   LIG    1       24.066 -23.273   6.490  0.00  0.00    +0.263 C 
ATOM      6  O   LIG    1       23.143 -22.665   5.950  0.00  0.00    -0.268 OA
ATOM      7  C   LIG    1       24.630 -21.270   7.846  0.00  0.00    +0.127 C 
ATOM      8  C   LIG    1       25.609 -20.316   7.129  0.00  0.00    +0.125 C 
ENDROOT
BRANCH   5   9
ATOM      9  C   LIG    1       24.333 -24.663   6.139  0.00  0.00    +0.103 C 
ATOM     10  N   LIG    1       25.447 -25.063   5.424  0.00  0.00    -0.351 NA
ATOM     11  H   LIG    1       26.167 -24.429   5.100  0.00  0.00    +0.166 HD
ATOM     12  C   LIG    1       25.474 -26.435   5.275  0.00  0.00    +0.047 C 
ATOM     13  C   LIG    1       24.336 -26.931   5.905  0.00  0.00    +0.002 C 
ATOM     14  C   LIG    1       24.134 -28.322   5.983  0.00  0.00    +0.034 C 
ATOM     15  C   LIG    1       25.076 -29.174   5.405  0.00  0.00    +0.048 C 
ATOM     16  C   LIG    1       26.179 -28.658   4.726  0.00  0.00    +0.026 C 
ATOM     17  C   LIG    1       26.401 -27.276   4.645  0.00  0.00    +0.028 C 
ATOM     18  C   LIG    1       23.591 -25.814   6.349  0.00  0.00    +0.041 C 
BRANCH  15  19
ATOM     19  N   LIG    1       24.938 -30.586   5.572  0.00  0.00    -0.221 NA
ATOM     20  H   LIG    1       24.174 -31.004   5.036  0.00  0.00    +0.173 HD
BRANCH  19  21
ATOM     21  S   LIG    1       24.836 -31.177   7.161  0.00  0.00    +0.040 S 
ATOM     22  O   LIG    1       23.437 -31.149   7.498  0.00  0.00    -0.155 OA
ATOM     23  O   LIG    1       25.822 -30.516   8.003  0.00  0.00    -0.155 OA
ATOM     24  C   LIG    1       25.308 -32.877   6.939  0.00  0.00    +0.218 C 
ENDBRANCH  19  21
ENDBRANCH  15  19
ENDBRANCH   5   9
BRANCH   1  26
ATOM     25  C   LIG    1       29.182 -19.469   7.146  0.00  0.00    +0.068 A 
ATOM     26  C   LIG    1       27.906 -19.858   6.626  0.00  0.00    +0.142 A 
ATOM     27  N   LIG    1       27.449 -19.398   5.430  0.00  0.00    -0.238 NA
ATOM     28  C   LIG    1       28.217 -18.550   4.722  0.00  0.00    +0.113 A 
ATOM     29  C   LIG    1       29.452 -18.113   5.138  0.00  0.00    +0.022 A 
ATOM     30  C   LIG    1       29.936 -18.588   6.353  0.00  0.00    +0.028 A 
BRANCH  25  31
ATOM     31  N   LIG    1       29.678 -19.996   8.356  0.00  0.00    -0.339 N 
ATOM     32  H   LIG    1       29.191 -19.539   9.130  0.00  0.00    +0.146 HD
BRANCH  31  34
ATOM     33  C   LIG    1       31.717 -19.151   9.451  0.00  0.00    +0.027 C 
ATOM     34  C   LIG    1       31.109 -20.243   8.575  0.00  0.00    +0.064 C 
ATOM     35  C   LIG    1       31.317 -21.604   9.237  0.00  0.00    +0.027 C 
ENDBRANCH  31  34
ENDBRANCH  25  31
ENDBRANCH   1  26
TORSDOF 6
ENDMDL
MODEL 9
REMARK VINA RESULT:      -7.0      4.421     10.095
REMARK  Name = *****
REMARK                            x       y       z     vdW  Elec       q    Type
REMARK                         _______ _______ _______ _____ _____    ______ ____
ROOT
ATOM      1  N   LIG    1       24.679 -23.505   6.000  0.00  0.00    -0.311 N 
ATOM      2  C   LIG    1       24.391 -24.479   7.085  0.00  0.00    +0.125 C 
ATOM      3  C   LIG    1       23.775 -25.776   6.510  0.00  0.00    +0.127 C 
ATOM      4  N   LIG    1       24.610 -26.364   5.457  0.00  0.00    -0.293 N 
ATOM      5  C   LIG    1       25.492 -27.435   5.656  0.00  0.00    +0.263 C 
ATOM      6  O   LIG    1       26.486 -27.590   4.947  0.00  0.00    -0.268 OA
ATOM      7  C   LIG    1       24.857 -25.406   4.371  0.00  0.00    +0.127 C 
ATOM      8  C   LIG    1       25.513 -24.121   4.918  0.00  0.00    +0.125 C 
ENDROOT
BRANCH   5   9
ATOM      9  C   LIG    1       25.203 -28.377   6.730  0.00  0.00    +0.103 C 
ATOM     10  N   LIG    1       25.955 -28.458   7.889  0.00  0.00    -0.351 NA
ATOM     11  H   LIG    1       26.751 -27.866   8.087  0.00  0.00    +0.166 HD
ATOM     12  C   LIG    1       25.433 -29.399   8.753  0.00  0.00    +0.047 C 
ATOM     13  C   LIG    1       24.318 -29.948   8.126  0.00  0.00    +0.002 C 
ATOM     14  C   LIG    1       23.527 -30.890   8.810  0.00  0.00    +0.034 C 
ATOM     15  C   LIG    1       23.896 -31.269  10.102  0.00  0.00    +0.048 C 
ATOM     16  C   LIG    1       25.050 -30.754  10.692  0.00  0.00    +0.026 C 
ATOM     17  C   LIG    1       25.844 -29.808  10.028  0.00  0.00    +0.028 C 
ATOM     18  C   LIG    1       24.247 -29.374   6.835  0.00  0.00    +0.041 C 
BRANCH  15  19
ATOM     19  N   LIG    1       23.043 -32.140  10.846  0.00  0.00    -0.221 NA
ATOM     20  H   LIG    1       22.909 -33.064  10.426  0.00  0.00    +0.173 HD
BRANCH  19  21
ATOM     21  S   LIG    1       21.513 -31.547  11.284  0.00  0.00    +0.040 S 
ATOM     22  O   LIG    1       21.054 -32.402  12.348  0.00  0.00    -0.155 OA
ATOM     23  O   LIG    1       20.703 -31.332  10.094  0.00  0.00    -0.155 OA
ATOM     24  C   LIG    1       21.933 -29.972  11.994  0.00  0.00    +0.218 C 
ENDBRANCH  19  21
ENDBRANCH  15  19
ENDBRANCH   5   9
BRANCH   1  26
ATOM     25  C   LIG    1       25.567 -21.190   5.773  0.00  0.00    +0.068 A 
ATOM     26  C   LIG    1       25.371 -22.374   6.552  0.00  0.00    +0.142 A 
ATOM     27  N   LIG    1       25.878 -22.499   7.808  0.00  0.00    -0.238 NA
ATOM     28  C   LIG    1       26.591 -21.481   8.326  0.00  0.00    +0.113 A 
ATOM     29  C   LIG    1       26.840 -20.307   7.656  0.00  0.00    +0.022 A 
ATOM     30  C   LIG    1       26.312 -20.163   6.376  0.00  0.00    +0.028 A 
BRANCH  25  31
ATOM     31  N   LIG    1       24.986 -21.041   4.496  0.00  0.00    -0.339 N 
ATOM     32  H   LIG    1       25.723 -20.788   3.836  0.00  0.00    +0.146 HD
BRANCH  31  34
ATOM     33  C   LIG    1       22.944 -20.233   5.614  0.00  0.00    +0.027 C 
ATOM     34  C   LIG    1       23.703 -20.356   4.295  0.00  0.00    +0.064 C 
ATOM     35  C   LIG    1       23.931 -18.965   3.706  0.00  0.00    +0.027 C 
ENDBRANCH  31  34
ENDBRANCH  25  31
ENDBRANCH   1  26
TORSDOF 6
ENDMDL
