MODEL 1
REMARK VINA RESULT:      -6.6      0.000      0.000
REMARK  Name = *****
REMARK                            x       y       z     vdW  Elec       q    Type
REMARK                         _______ _______ _______ _____ _____    ______ ____
ROOT
ATOM      1  O   LIG    1       23.775 -25.840   5.961  0.00  0.00    -0.489 OA
ENDROOT
BRANCH   1   2
ATOM      2  C   LIG    1       24.078 -24.609   6.490  0.00  0.00    +0.121 A 
ATOM      3  C   LIG    1       25.426 -24.395   6.786  0.00  0.00    +0.047 A 
ATOM      4  C   LIG    1       25.865 -23.167   7.299  0.00  0.00    +0.023 A 
ATOM      5  C   LIG    1       24.943 -22.142   7.515  0.00  0.00    +0.041 A 
ATOM      6 CL   LIG    1       25.474 -20.623   8.121  0.00  0.00    -0.084 Cl
ATOM      7  C   LIG    1       23.598 -22.347   7.238  0.00  0.00    +0.023 A 
ATOM      8  C   LIG    1       23.161 -23.578   6.731  0.00  0.00    +0.047 A 
ENDBRANCH   1   2
BRANCH   1   9
ATOM      9  C   LIG    1       24.544 -26.953   6.448  0.00  0.00    +0.262 C 
BRANCH   9  10
ATOM     10  C   LIG    1       25.023 -27.806   5.260  0.00  0.00    +0.177 C 
BRANCH  10  11
ATOM     11  O   LIG    1       26.454 -27.737   5.154  0.00  0.00    -0.386 OA
ATOM     12  H   LIG    1       26.643 -27.020   4.520  0.00  0.00    +0.210 HD
ENDBRANCH  10  11
BRANCH  10  13
ATOM     13  C   LIG    1       24.660 -29.285   5.429  0.00  0.00    +0.190 C 
BRANCH  13  14
ATOM     14  O   LIG    1       23.241 -29.448   5.415  0.00  0.00    -0.392 OA
ATOM     15  H   LIG    1       22.951 -29.224   6.322  0.00  0.00    +0.209 HD
ENDBRANCH  13  14
ENDBRANCH  10  13
ENDBRANCH   9  10
ENDBRANCH   1   9
TORSDOF 6
ENDMDL
MODEL 2
REMARK VINA RESULT:      -6.6      6.043      7.534
REMARK  Name = *****
REMARK                            x       y       z     vdW  Elec       q    Type
REMARK                         _______ _______ _______ _____ _____    ______ ____
ROOT
ATOM      1  O   LIG    1       28.433 -20.445   8.418  0.00  0.00    -0.489 OA
ENDROOT
BRANCH   1   2
ATOM      2  C   LIG    1       27.258 -20.531   7.713  0.00  0.00    +0.121 A 
ATOM      3  C   LIG    1       26.106 -20.719   8.481  0.00  0.00    +0.047 A 
ATOM      4  C   LIG    1       24.843 -20.790   7.878  0.00  0.00    +0.023 A 
ATOM      5  C   LIG    1       24.732 -20.668   6.493  0.00  0.00    +0.041 A 
ATOM      6 CL   LIG    1       23.185 -20.728   5.746  0.00  0.00    -0.084 Cl
ATOM      7  C   LIG    1       25.871 -20.495   5.717  0.00  0.00    +0.023 A 
ATOM      8  C   LIG    1       27.134 -20.431   6.321  0.00  0.00    +0.047 A 
ENDBRANCH   1   2
BRANCH   1   9
ATOM      9  C   LIG    1       29.425 -19.541   7.901  0.00  0.00    +0.262 C 
BRANCH   9  10
ATOM     10  C   LIG    1       30.780 -19.826   8.574  0.00  0.00    +0.177 C 
BRANCH  10  11
ATOM     11  O   LIG    1       30.825 -19.201   9.866  0.00  0.00    -0.386 OA
ATOM     12  H   LIG    1       30.502 -19.870  10.500  0.00  0.00    +0.210 HD
ENDBRANCH  10  11
BRANCH  10  13
ATOM     13  C   LIG    1       31.009 -21.325   8.795  0.00  0.00    +0.190 C 
BRANCH  13  14
ATOM     14  O   LIG    1       32.231 -21.538   9.503  0.00  0.00    -0.392 OA
ATOM     15  H   LIG    1       32.813 -22.002   8.869  0.00  0.00    +0.209 HD
ENDBRANCH  13  14
ENDBRANCH  10  13
ENDBRANCH   9  10
ENDBRANCH   1   9
TORSDOF 6
ENDMDL
MODEL 3
REMARK VINA RESULT:      -6.5      0.837      1.571
REMARK  Name = *****
REMARK                            x       y       z     vdW  Elec       q    Type
REMARK                         _______ _______ _______ _____ _____    ______ ____
ROOT
ATOM      1  O   LIG    1       23.940 -26.273   6.159  0.00  0.00    -0.489 OA
ENDROOT
BRANCH   1   2
ATOM      2  C   LIG    1       24.287 -24.989   6.503  0.00  0.00    +0.121 A 
ATOM      3  C   LIG    1       23.225 -24.093   6.641  0.00  0.00    +0.047 A 
ATOM      4  C   LIG    1       23.449 -22.763   7.021  0.00  0.00    +0.023 A 
ATOM      5  C   LIG    1       24.752 -22.327   7.266  0.00  0.00    +0.041 A 
ATOM      6 CL   LIG    1       25.036 -20.704   7.756  0.00  0.00    -0.084 Cl
ATOM      7  C   LIG    1       25.818 -23.204   7.118  0.00  0.00    +0.023 A 
ATOM      8  C   LIG    1       25.591 -24.532   6.732  0.00  0.00    +0.047 A 
ENDBRANCH   1   2
BRANCH   1   9
ATOM      9  C   LIG    1       24.842 -26.967   5.279  0.00  0.00    +0.262 C 
BRANCH   9  10
ATOM     10  C   LIG    1       25.320 -28.264   5.954  0.00  0.00    +0.177 C 
BRANCH  10  11
ATOM     11  O   LIG    1       26.054 -27.952   7.149  0.00  0.00    -0.386 OA
ATOM     12  H   LIG    1       26.885 -27.534   6.853  0.00  0.00    +0.210 HD
ENDBRANCH  10  11
BRANCH  10  13
ATOM     13  C   LIG    1       24.150 -29.161   6.371  0.00  0.00    +0.190 C 
BRANCH  13  14
ATOM     14  O   LIG    1       23.198 -29.255   5.310  0.00  0.00    -0.392 OA
ATOM     15  H   LIG    1       23.682 -28.971   4.509  0.00  0.00    +0.209 HD
ENDBRANCH  13  14
ENDBRANCH  10  13
ENDBRANCH   9  10
ENDBRANCH   1   9
TORSDOF 6
ENDMDL
MODEL 4
REMARK VINA RESULT:      -6.5      6.172      7.899
REMARK  Name = *****
REMARK                            x       y       z     vdW  Elec       q    Type
REMARK                         _______ _______ _______ _____ _____    ______ ____
ROOT
ATOM      1  O   LIG    1       28.847 -20.046   8.168  0.00  0.00    -0.489 OA
ENDROOT
BRANCH   1   2
ATOM      2  C   LIG    1       27.611 -20.284   7.617  0.00  0.00    +0.121 A 
ATOM      3  C   LIG    1       26.581 -20.525   8.529  0.00  0.00    +0.047 A 
ATOM      4  C   LIG    1       25.269 -20.748   8.091  0.00  0.00    +0.023 A 
ATOM      5  C   LIG    1       24.986 -20.727   6.724  0.00  0.00    +0.041 A 
ATOM      6 CL   LIG    1       23.375 -20.974   6.176  0.00  0.00    -0.084 Cl
ATOM      7  C   LIG    1       26.004 -20.502   5.807  0.00  0.00    +0.023 A 
ATOM      8  C   LIG    1       27.317 -20.285   6.248  0.00  0.00    +0.047 A 
ENDBRANCH   1   2
BRANCH   1   9
ATOM      9  C   LIG    1       29.982 -20.522   7.423  0.00  0.00    +0.262 C 
BRANCH   9  10
ATOM     10  C   LIG    1       30.924 -19.344   7.115  0.00  0.00    +0.177 C 
BRANCH  10  11
ATOM     11  O   LIG    1       30.197 -18.295   6.458  0.00  0.00    -0.386 OA
ATOM     12  H   LIG    1       30.254 -17.518   7.046  0.00  0.00    +0.210 HD
ENDBRANCH  10  11
BRANCH  10  13
ATOM     13  C   LIG    1       31.524 -18.740   8.389  0.00  0.00    +0.190 C 
BRANCH  13  14
ATOM     14  O   LIG    1       31.933 -19.777   9.282  0.00  0.00    -0.392 OA
ATOM     15  H   LIG    1       32.709 -19.415   9.753  0.00  0.00    +0.209 HD
ENDBRANCH  13  14
ENDBRANCH  10  13
ENDBRANCH   9  10
ENDBRANCH   1   9
TORSDOF 6
ENDMDL
MODEL 5
REMARK VINA RESULT:      -6.5      6.018      7.434
REMARK  Name = *****
REMARK                            x       y       z     vdW  Elec       q    Type
REMARK                         _______ _______ _______ _____ _____    ______ ____
ROOT
ATOM      1  O   LIG    1       28.261 -20.259   8.246  0.00  0.00    -0.489 OA
ENDROOT
BRANCH   1   2
ATOM      2  C   LIG    1       27.067 -20.433   7.589  0.00  0.00    +0.121 A 
ATOM      3  C   LIG    1       25.958 -20.667   8.405  0.00  0.00    +0.047 A 
ATOM      4  C   LIG    1       24.680 -20.827   7.854  0.00  0.00    +0.023 A 
ATOM      5  C   LIG    1       24.511 -20.751   6.471  0.00  0.00    +0.041 A 
ATOM      6 CL   LIG    1       22.944 -20.921   5.786  0.00  0.00    -0.084 Cl
ATOM      7  C   LIG    1       25.608 -20.533   5.648  0.00  0.00    +0.023 A 
ATOM      8  C   LIG    1       26.887 -20.379   6.201  0.00  0.00    +0.047 A 
ENDBRANCH   1   2
BRANCH   1   9
ATOM      9  C   LIG    1       29.410 -20.906   7.670  0.00  0.00    +0.262 C 
BRANCH   9  10
ATOM     10  C   LIG    1       30.693 -20.285   8.249  0.00  0.00    +0.177 C 
BRANCH  10  11
ATOM     11  O   LIG    1       31.707 -21.294   8.383  0.00  0.00    -0.386 OA
ATOM     12  H   LIG    1       32.318 -21.162   7.634  0.00  0.00    +0.210 HD
ENDBRANCH  10  11
BRANCH  10  13
ATOM     13  C   LIG    1       31.267 -19.195   7.339  0.00  0.00    +0.190 C 
BRANCH  13  14
ATOM     14  O   LIG    1       30.213 -18.388   6.810  0.00  0.00    -0.392 OA
ATOM     15  H   LIG    1       30.479 -17.467   7.002  0.00  0.00    +0.209 HD
ENDBRANCH  13  14
ENDBRANCH  10  13
ENDBRANCH   9  10
ENDBRANCH   1   9
TORSDOF 6
ENDMDL
MODEL 6
REMARK VINA RESULT:      -6.4      3.026      4.191
REMARK  Name = *****
REMARK                            x       y       z     vdW  Elec       q    Type
REMARK                         _______ _______ _______ _____ _____    ______ ____
ROOT
ATOM      1  O   LIG    1       25.391 -22.547   5.805  0.00  0.00    -0.489 OA
ENDROOT
BRANCH   1   2
ATOM      2  C   LIG    1       24.562 -21.489   5.524  0.00  0.00    +0.121 A 
ATOM      3  C   LIG    1       24.861 -20.780   4.358  0.00  0.00    +0.047 A 
ATOM      4  C   LIG    1       24.067 -19.701   3.948  0.00  0.00    +0.023 A 
ATOM      5  C   LIG    1       22.961 -19.329   4.713  0.00  0.00    +0.041 A 
ATOM      6 CL   LIG    1       21.966 -18.022   4.206  0.00  0.00    -0.084 Cl
ATOM      7  C   LIG    1       22.661 -20.017   5.882  0.00  0.00    +0.023 A 
ATOM      8  C   LIG    1       23.460 -21.092   6.293  0.00  0.00    +0.047 A 
ENDBRANCH   1   2
BRANCH   1   9
ATOM      9  C   LIG    1       25.130 -23.259   7.027  0.00  0.00    +0.262 C 
BRANCH   9  10
ATOM     10  C   LIG    1       24.649 -24.683   6.700  0.00  0.00    +0.177 C 
BRANCH  10  11
ATOM     11  O   LIG    1       23.248 -24.666   6.384  0.00  0.00    -0.386 OA
ATOM     12  H   LIG    1       23.073 -25.489   5.891  0.00  0.00    +0.210 HD
ENDBRANCH  10  11
BRANCH  10  13
ATOM     13  C   LIG    1       25.373 -25.270   5.483  0.00  0.00    +0.190 C 
BRANCH  13  14
ATOM     14  O   LIG    1       24.776 -24.791   4.277  0.00  0.00    -0.392 OA
ATOM     15  H   LIG    1       25.383 -25.074   3.564  0.00  0.00    +0.209 HD
ENDBRANCH  13  14
ENDBRANCH  10  13
ENDBRANCH   9  10
ENDBRANCH   1   9
TORSDOF 6
ENDMDL
MODEL 7
REMARK VINA RESULT:      -6.3      7.831      9.924
REMARK  Name = *****
REMARK                            x       y       z     vdW  Elec       q    Type
REMARK                         _______ _______ _______ _____ _____    ______ ____
ROOT
ATOM      1  O   LIG    1       31.353 -18.310   7.499  0.00  0.00    -0.489 OA
ENDROOT
BRANCH   1   2
ATOM      2  C   LIG    1       30.171 -18.863   7.070  0.00  0.00    +0.121 A 
ATOM      3  C   LIG    1       29.518 -19.683   7.993  0.00  0.00    +0.047 A 
ATOM      4  C   LIG    1       28.287 -20.277   7.683  0.00  0.00    +0.023 A 
ATOM      5  C   LIG    1       27.704 -20.045   6.437  0.00  0.00    +0.041 A 
ATOM      6 CL   LIG    1       26.182 -20.749   6.057  0.00  0.00    -0.084 Cl
ATOM      7  C   LIG    1       28.350 -19.242   5.506  0.00  0.00    +0.023 A 
ATOM      8  C   LIG    1       29.583 -18.654   5.815  0.00  0.00    +0.047 A 
ENDBRANCH   1   2
BRANCH   1   9
ATOM      9  C   LIG    1       31.744 -18.605   8.852  0.00  0.00    +0.262 C 
BRANCH   9  10
ATOM     10  C   LIG    1       31.965 -17.291   9.621  0.00  0.00    +0.177 C 
BRANCH  10  11
ATOM     11  O   LIG    1       32.515 -16.296   8.741  0.00  0.00    -0.386 OA
ATOM     12  H   LIG    1       31.808 -16.081   8.103  0.00  0.00    +0.210 HD
ENDBRANCH  10  11
BRANCH  10  13
ATOM     13  C   LIG    1       30.655 -16.720  10.174  0.00  0.00    +0.190 C 
BRANCH  13  14
ATOM     14  O   LIG    1       30.044 -17.659  11.061  0.00  0.00    -0.392 OA
ATOM     15  H   LIG    1       30.783 -18.038  11.577  0.00  0.00    +0.209 HD
ENDBRANCH  13  14
ENDBRANCH  10  13
ENDBRANCH   9  10
ENDBRANCH   1   9
TORSDOF 6
ENDMDL
MODEL 8
REMARK VINA RESULT:      -6.2      2.851      3.922
REMARK  Name = *****
REMARK                            x       y       z     vdW  Elec       q    Type
REMARK                         _______ _______ _______ _____ _____    ______ ____
ROOT
ATOM      1  O   LIG    1       26.022 -22.270   6.549  0.00  0.00    -0.489 OA
ENDROOT
BRANCH   1   2
ATOM      2  C   LIG    1       25.040 -21.417   6.108  0.00  0.00    +0.121 A 
ATOM      3  C   LIG    1       25.265 -20.833   4.859  0.00  0.00    +0.047 A 
ATOM      4  C   LIG    1       24.320 -19.971   4.287  0.00  0.00    +0.023 A 
ATOM      5  C   LIG    1       23.137 -19.693   4.973  0.00  0.00    +0.041 A 
ATOM      6 CL   LIG    1       21.960 -18.657   4.269  0.00  0.00    -0.084 Cl
ATOM      7  C   LIG    1       22.908 -20.257   6.221  0.00  0.00    +0.023 A 
ATOM      8  C   LIG    1       23.857 -21.114   6.794  0.00  0.00    +0.047 A 
ENDBRANCH   1   2
BRANCH   1   9
ATOM      9  C   LIG    1       25.582 -23.528   7.092  0.00  0.00    +0.262 C 
BRANCH   9  10
ATOM     10  C   LIG    1       25.313 -24.517   5.944  0.00  0.00    +0.177 C 
BRANCH  10  11
ATOM     11  O   LIG    1       26.387 -25.466   5.855  0.00  0.00    -0.386 OA
ATOM     12  H   LIG    1       26.680 -25.628   6.771  0.00  0.00    +0.210 HD
ENDBRANCH  10  11
BRANCH  10  13
ATOM     13  C   LIG    1       24.027 -25.319   6.166  0.00  0.00    +0.190 C 
BRANCH  13  14
ATOM     14  O   LIG    1       22.955 -24.445   6.522  0.00  0.00    -0.392 OA
ATOM     15  H   LIG    1       22.987 -23.723   5.863  0.00  0.00    +0.209 HD
ENDBRANCH  13  14
ENDBRANCH  10  13
ENDBRANCH   9  10
ENDBRANCH   1   9
TORSDOF 6
ENDMDL
MODEL 9
REMARK VINA RESULT:      -6.2      1.357      2.274
REMARK  Name = *****
REMARK                            x       y       z     vdW  Elec       q    Type
REMARK                         _______ _______ _______ _____ _____    ______ ____
ROOT
ATOM      1  O   LIG    1       25.448 -26.665   6.291  0.00  0.00    -0.489 OA
ENDROOT
BRANCH   1   2
ATOM      2  C   LIG    1       25.077 -25.363   6.527  0.00  0.00    +0.121 A 
ATOM      3  C   LIG    1       23.713 -25.092   6.395  0.00  0.00    +0.047 A 
ATOM      4  C   LIG    1       23.207 -23.809   6.643  0.00  0.00    +0.023 A 
ATOM      5  C   LIG    1       24.077 -22.788   7.028  0.00  0.00    +0.041 A 
ATOM      6 CL   LIG    1       23.463 -21.216   7.358  0.00  0.00    -0.084 Cl
ATOM      7  C   LIG    1       25.437 -23.041   7.149  0.00  0.00    +0.023 A 
ATOM      8  C   LIG    1       25.941 -24.324   6.895  0.00  0.00    +0.047 A 
ENDBRANCH   1   2
BRANCH   1   9
ATOM      9  C   LIG    1       24.569 -27.441   5.459  0.00  0.00    +0.262 C 
BRANCH   9  10
ATOM     10  C   LIG    1       24.098 -28.687   6.229  0.00  0.00    +0.177 C 
BRANCH  10  11
ATOM     11  O   LIG    1       23.204 -29.459   5.412  0.00  0.00    -0.386 OA
ATOM     12  H   LIG    1       23.771 -29.999   4.829  0.00  0.00    +0.210 HD
ENDBRANCH  10  11
BRANCH  10  13
ATOM     13  C   LIG    1       25.265 -29.607   6.604  0.00  0.00    +0.190 C 
BRANCH  13  14
ATOM     14  O   LIG    1       25.877 -29.159   7.815  0.00  0.00    -0.392 OA
ATOM     15  H   LIG    1       26.232 -29.968   8.234  0.00  0.00    +0.209 HD
ENDBRANCH  13  14
ENDBRANCH  10  13
ENDBRANCH   9  10
ENDBRANCH   1   9
TORSDOF 6
ENDMDL
