MODEL 1
REMARK VINA RESULT:      -2.5      0.000      0.000
REMARK  Name = *****
REMARK                            x       y       z     vdW  Elec       q    Type
REMARK                         _______ _______ _______ _____ _____    ______ ____
ROOT
ATOM      1  C   LIG    1       25.361 -30.427   8.429  0.00  0.00    +0.264 C 
ATOM      2  C   LIG    1       24.166 -31.443   8.373  0.00  0.00    +0.257 C 
ATOM      3  O   LIG    1       23.993 -32.210   7.426  0.00  0.00    -0.272 OA
ATOM      4  N   LIG    1       23.288 -31.439   9.466  0.00  0.00    -0.288 N 
ATOM      5  C   LIG    1       22.574 -30.181   9.620  0.00  0.00    +0.133 C 
ATOM      6  C   LIG    1       22.556 -32.729   9.773  0.00  0.00    +0.187 C 
ATOM      7  C   LIG    1       21.248 -32.610  10.664  0.00  0.00    +0.329 C 
ATOM      8  O   LIG    1       20.987 -33.328  11.595  0.00  0.00    -0.249 OA
ATOM      9  O   LIG    1       20.383 -31.652  10.249  0.00  0.00    -0.450 OA
ATOM     10  C   LIG    1       19.228 -31.419  11.072  0.00  0.00    +0.264 C 
ATOM     11  C   LIG    1       19.581 -31.077  12.580  0.00  0.00    +0.257 C 
ATOM     12  O   LIG    1       18.882 -31.429  13.531  0.00  0.00    -0.272 OA
ATOM     13  N   LIG    1       20.701 -30.231  12.787  0.00  0.00    -0.288 N 
ATOM     14  C   LIG    1       20.413 -28.873  12.330  0.00  0.00    +0.133 C 
ATOM     15  C   LIG    1       21.381 -30.326  14.148  0.00  0.00    +0.187 C 
ATOM     16  C   LIG    1       22.660 -29.442  14.392  0.00  0.00    +0.329 C 
ATOM     17  O   LIG    1       23.164 -29.308  15.495  0.00  0.00    -0.249 OA
ATOM     18  O   LIG    1       23.124 -28.814  13.276  0.00  0.00    -0.450 OA
ATOM     19  C   LIG    1       24.050 -27.707  13.406  0.00  0.00    +0.264 C 
ATOM     20  C   LIG    1       25.536 -28.069  13.694  0.00  0.00    +0.257 C 
ATOM     21  O   LIG    1       25.964 -28.185  14.842  0.00  0.00    -0.272 OA
ATOM     22  N   LIG    1       26.416 -27.990  12.602  0.00  0.00    -0.288 N 
ATOM     23  C   LIG    1       27.570 -27.132  12.837  0.00  0.00    +0.133 C 
ATOM     24  C   LIG    1       26.701 -29.182  11.743  0.00  0.00    +0.187 C 
ATOM     25  C   LIG    1       25.752 -29.258  10.514  0.00  0.00    +0.329 C 
ATOM     26  O   LIG    1       24.972 -28.359  10.212  0.00  0.00    -0.249 OA
ATOM     27  O   LIG    1       25.997 -30.355   9.732  0.00  0.00    -0.450 OA
ENDROOT
BRANCH   1  29
ATOM     28  C   LIG    1       27.023 -32.194   7.605  0.00  0.00    +0.011 C 
ATOM     29  C   LIG    1       26.430 -30.805   7.353  0.00  0.00    +0.033 C 
ATOM     30  C   LIG    1       25.901 -30.759   5.913  0.00  0.00    +0.011 C 
ENDBRANCH   1  29
BRANCH   6  31
ATOM     31  C   LIG    1       23.516 -33.822  10.413  0.00  0.00    +0.014 C 
ATOM     32  C   LIG    1       24.924 -33.825   9.792  0.00  0.00    +0.009 C 
ATOM     33  C   LIG    1       23.720 -33.727  11.931  0.00  0.00    +0.009 C 
ENDBRANCH   6  31
BRANCH  10  34
ATOM     34  C   LIG    1       18.147 -32.532  10.915  0.00  0.00    +0.033 C 
ATOM     35  C   LIG    1       16.979 -32.331  11.891  0.00  0.00    +0.011 C 
ATOM     36  C   LIG    1       17.564 -32.610   9.494  0.00  0.00    +0.011 C 
ENDBRANCH  10  34
BRANCH  15  37
ATOM     37  C   LIG    1       21.681 -31.806  14.592  0.00  0.00    +0.014 C 
ATOM     38  C   LIG    1       23.016 -31.954  15.297  0.00  0.00    +0.009 C 
ATOM     39  C   LIG    1       20.612 -32.433  15.500  0.00  0.00    +0.009 C 
ENDBRANCH  15  37
BRANCH  19  40
ATOM     40  C   LIG    1       23.579 -26.611  14.429  0.00  0.00    +0.033 C 
ATOM     41  C   LIG    1       24.309 -25.277  14.228  0.00  0.00    +0.011 C 
ATOM     42  C   LIG    1       22.070 -26.364  14.387  0.00  0.00    +0.011 C 
ENDBRANCH  19  40
BRANCH  24  43
ATOM     43  C   LIG    1       26.932 -30.524  12.487  0.00  0.00    +0.014 C 
ATOM     44  C   LIG    1       27.686 -30.385  13.817  0.00  0.00    +0.009 C 
ATOM     45  C   LIG    1       25.658 -31.315  12.708  0.00  0.00    +0.009 C 
ENDBRANCH  24  43
TORSDOF 6
ENDMDL
MODEL 2
REMARK VINA RESULT:      -1.2      1.923      6.356
REMARK  Name = *****
REMARK                            x       y       z     vdW  Elec       q    Type
REMARK                         _______ _______ _______ _____ _____    ______ ____
ROOT
ATOM      1  C   LIG    1       22.477 -32.114  13.869  0.00  0.00    +0.264 C 
ATOM      2  C   LIG    1       22.095 -32.695  12.462  0.00  0.00    +0.257 C 
ATOM      3  O   LIG    1       21.151 -33.467  12.298  0.00  0.00    -0.272 OA
ATOM      4  N   LIG    1       22.889 -32.289  11.379  0.00  0.00    -0.288 N 
ATOM      5  C   LIG    1       24.272 -32.724  11.492  0.00  0.00    +0.133 C 
ATOM      6  C   LIG    1       22.242 -32.277  10.010  0.00  0.00    +0.187 C 
ATOM      7  C   LIG    1       23.221 -32.292   8.761  0.00  0.00    +0.329 C 
ATOM      8  O   LIG    1       23.108 -31.580   7.796  0.00  0.00    -0.249 OA
ATOM      9  O   LIG    1       24.189 -33.238   8.829  0.00  0.00    -0.450 OA
ATOM     10  C   LIG    1       25.173 -33.238   7.783  0.00  0.00    +0.264 C 
ATOM     11  C   LIG    1       25.921 -31.849   7.613  0.00  0.00    +0.257 C 
ATOM     12  O   LIG    1       26.293 -31.413   6.524  0.00  0.00    -0.272 OA
ATOM     13  N   LIG    1       26.253 -31.165   8.811  0.00  0.00    -0.288 N 
ATOM     14  C   LIG    1       27.304 -31.876   9.537  0.00  0.00    +0.133 C 
ATOM     15  C   LIG    1       26.451 -29.658   8.699  0.00  0.00    +0.187 C 
ATOM     16  C   LIG    1       26.767 -28.859  10.018  0.00  0.00    +0.329 C 
ATOM     17  O   LIG    1       27.119 -27.692  10.010  0.00  0.00    -0.249 OA
ATOM     18  O   LIG    1       26.650 -29.598  11.156  0.00  0.00    -0.450 OA
ATOM     19  C   LIG    1       27.244 -29.118  12.389  0.00  0.00    +0.264 C 
ATOM     20  C   LIG    1       26.467 -28.007  13.153  0.00  0.00    +0.257 C 
ATOM     21  O   LIG    1       26.664 -26.812  12.933  0.00  0.00    -0.272 OA
ATOM     22  N   LIG    1       25.742 -28.422  14.282  0.00  0.00    -0.288 N 
ATOM     23  C   LIG    1       26.083 -27.697  15.499  0.00  0.00    +0.133 C 
ATOM     24  C   LIG    1       24.301 -28.813  14.182  0.00  0.00    +0.187 C 
ATOM     25  C   LIG    1       24.123 -30.339  13.950  0.00  0.00    +0.329 C 
ATOM     26  O   LIG    1       25.054 -31.139  14.001  0.00  0.00    -0.249 OA
ATOM     27  O   LIG    1       22.807 -30.701  13.841  0.00  0.00    -0.450 OA
ENDROOT
BRANCH   1  29
ATOM     28  C   LIG    1       20.163 -31.354  14.665  0.00  0.00    +0.011 C 
ATOM     29  C   LIG    1       21.306 -32.352  14.876  0.00  0.00    +0.033 C 
ATOM     30  C   LIG    1       20.724 -33.771  14.825  0.00  0.00    +0.011 C 
ENDBRANCH   1  29
BRANCH   6  31
ATOM     31  C   LIG    1       21.216 -31.075   9.845  0.00  0.00    +0.014 C 
ATOM     32  C   LIG    1       19.746 -31.523   9.926  0.00  0.00    +0.009 C 
ATOM     33  C   LIG    1       21.367 -29.923  10.848  0.00  0.00    +0.009 C 
ENDBRANCH   6  31
BRANCH  10  34
ATOM     34  C   LIG    1       24.625 -33.825   6.445  0.00  0.00    +0.033 C 
ATOM     35  C   LIG    1       23.261 -33.224   6.078  0.00  0.00    +0.011 C 
ATOM     36  C   LIG    1       25.573 -33.601   5.255  0.00  0.00    +0.011 C 
ENDBRANCH  10  34
BRANCH  15  37
ATOM     37  C   LIG    1       25.291 -28.934   7.920  0.00  0.00    +0.014 C 
ATOM     38  C   LIG    1       24.069 -28.678   8.782  0.00  0.00    +0.009 C 
ATOM     39  C   LIG    1       25.686 -27.597   7.276  0.00  0.00    +0.009 C 
ENDBRANCH  15  37
BRANCH  19  40
ATOM     40  C   LIG    1       28.746 -28.685  12.234  0.00  0.00    +0.033 C 
ATOM     41  C   LIG    1       29.331 -28.138  13.543  0.00  0.00    +0.011 C 
ATOM     42  C   LIG    1       29.644 -29.813  11.722  0.00  0.00    +0.011 C 
ENDBRANCH  19  40
BRANCH  24  43
ATOM     43  C   LIG    1       23.402 -27.899  13.306  0.00  0.00    +0.014 C 
ATOM     44  C   LIG    1       21.908 -28.250  13.357  0.00  0.00    +0.009 C 
ATOM     45  C   LIG    1       23.584 -26.422  13.595  0.00  0.00    +0.009 C 
ENDBRANCH  24  43
TORSDOF 6
ENDMDL
MODEL 3
REMARK VINA RESULT:      -0.5      1.561      6.304
REMARK  Name = *****
REMARK                            x       y       z     vdW  Elec       q    Type
REMARK                         _______ _______ _______ _____ _____    ______ ____
ROOT
ATOM      1  C   LIG    1       25.234 -26.711  12.715  0.00  0.00    +0.264 C 
ATOM      2  C   LIG    1       26.263 -27.385  11.741  0.00  0.00    +0.257 C 
ATOM      3  O   LIG    1       27.332 -26.856  11.438  0.00  0.00    -0.272 OA
ATOM      4  N   LIG    1       25.908 -28.639  11.222  0.00  0.00    -0.288 N 
ATOM      5  C   LIG    1       24.722 -28.592  10.382  0.00  0.00    +0.133 C 
ATOM      6  C   LIG    1       27.034 -29.574  10.836  0.00  0.00    +0.187 C 
ATOM      7  C   LIG    1       26.669 -30.751   9.834  0.00  0.00    +0.329 C 
ATOM      8  O   LIG    1       27.010 -31.897   9.974  0.00  0.00    -0.249 OA
ATOM      9  O   LIG    1       25.978 -30.349   8.739  0.00  0.00    -0.450 OA
ATOM     10  C   LIG    1       25.524 -31.377   7.844  0.00  0.00    +0.264 C 
ATOM     11  C   LIG    1       24.635 -32.486   8.549  0.00  0.00    +0.257 C 
ATOM     12  O   LIG    1       24.652 -33.672   8.219  0.00  0.00    -0.272 OA
ATOM     13  N   LIG    1       23.712 -32.025   9.523  0.00  0.00    -0.288 N 
ATOM     14  C   LIG    1       22.633 -31.266   8.893  0.00  0.00    +0.133 C 
ATOM     15  C   LIG    1       23.264 -33.040  10.568  0.00  0.00    +0.187 C 
ATOM     16  C   LIG    1       22.283 -32.549  11.696  0.00  0.00    +0.329 C 
ATOM     17  O   LIG    1       21.727 -33.317  12.463  0.00  0.00    -0.249 OA
ATOM     18  O   LIG    1       22.084 -31.202  11.711  0.00  0.00    -0.450 OA
ATOM     19  C   LIG    1       20.956 -30.650  12.436  0.00  0.00    +0.264 C 
ATOM     20  C   LIG    1       21.106 -30.540  13.981  0.00  0.00    +0.257 C 
ATOM     21  O   LIG    1       20.769 -31.456  14.731  0.00  0.00    -0.272 OA
ATOM     22  N   LIG    1       21.384 -29.260  14.488  0.00  0.00    -0.288 N 
ATOM     23  C   LIG    1       20.437 -28.809  15.500  0.00  0.00    +0.133 C 
ATOM     24  C   LIG    1       22.790 -28.799  14.713  0.00  0.00    +0.187 C 
ATOM     25  C   LIG    1       23.362 -28.045  13.480  0.00  0.00    +0.329 C 
ATOM     26  O   LIG    1       22.681 -27.734  12.507  0.00  0.00    -0.249 OA
ATOM     27  O   LIG    1       24.655 -27.634  13.673  0.00  0.00    -0.450 OA
ENDROOT
BRANCH   1  29
ATOM     28  C   LIG    1       24.910 -24.458  13.892  0.00  0.00    +0.011 C 
ATOM     29  C   LIG    1       25.920 -25.534  13.480  0.00  0.00    +0.033 C 
ATOM     30  C   LIG    1       26.692 -25.976  14.731  0.00  0.00    +0.011 C 
ENDBRANCH   1  29
BRANCH   6  31
ATOM     31  C   LIG    1       27.762 -30.190  12.108  0.00  0.00    +0.014 C 
ATOM     32  C   LIG    1       29.027 -29.412  12.511  0.00  0.00    +0.009 C 
ATOM     33  C   LIG    1       26.908 -30.304  13.378  0.00  0.00    +0.009 C 
ENDBRANCH   6  31
BRANCH  10  34
ATOM     34  C   LIG    1       26.675 -31.958   6.966  0.00  0.00    +0.033 C 
ATOM     35  C   LIG    1       26.877 -33.459   7.214  0.00  0.00    +0.011 C 
ATOM     36  C   LIG    1       26.443 -31.758   5.459  0.00  0.00    +0.011 C 
ENDBRANCH  10  34
BRANCH  15  37
ATOM     37  C   LIG    1       24.460 -33.824  11.225  0.00  0.00    +0.014 C 
ATOM     38  C   LIG    1       25.711 -33.825  10.367  0.00  0.00    +0.009 C 
ATOM     39  C   LIG    1       24.864 -33.327  12.622  0.00  0.00    +0.009 C 
ENDBRANCH  15  37
BRANCH  19  40
ATOM     40  C   LIG    1       19.590 -31.348  12.099  0.00  0.00    +0.033 C 
ATOM     41  C   LIG    1       18.405 -30.680  12.810  0.00  0.00    +0.011 C 
ATOM     42  C   LIG    1       19.302 -31.402  10.597  0.00  0.00    +0.011 C 
ENDBRANCH  19  40
BRANCH  24  43
ATOM     43  C   LIG    1       23.752 -29.826  15.368  0.00  0.00    +0.014 C 
ATOM     44  C   LIG    1       23.760 -31.202  14.688  0.00  0.00    +0.009 C 
ATOM     45  C   LIG    1       25.174 -29.318  15.500  0.00  0.00    +0.009 C 
ENDBRANCH  24  43
TORSDOF 6
ENDMDL
MODEL 4
REMARK VINA RESULT:       0.2      1.675      2.355
REMARK  Name = *****
REMARK                            x       y       z     vdW  Elec       q    Type
REMARK                         _______ _______ _______ _____ _____    ______ ____
ROOT
ATOM      1  C   LIG    1       24.919 -29.742   7.891  0.00  0.00    +0.264 C 
ATOM      2  C   LIG    1       23.491 -30.393   7.898  0.00  0.00    +0.257 C 
ATOM      3  O   LIG    1       22.841 -30.575   6.870  0.00  0.00    -0.272 OA
ATOM      4  N   LIG    1       22.979 -30.767   9.149  0.00  0.00    -0.288 N 
ATOM      5  C   LIG    1       22.772 -29.637  10.041  0.00  0.00    +0.133 C 
ATOM      6  C   LIG    1       21.982 -31.906   9.179  0.00  0.00    +0.187 C 
ATOM      7  C   LIG    1       21.062 -32.012  10.468  0.00  0.00    +0.329 C 
ATOM      8  O   LIG    1       20.839 -33.034  11.065  0.00  0.00    -0.249 OA
ATOM      9  O   LIG    1       20.472 -30.845  10.823  0.00  0.00    -0.450 OA
ATOM     10  C   LIG    1       19.710 -30.846  12.041  0.00  0.00    +0.264 C 
ATOM     11  C   LIG    1       20.536 -31.330  13.306  0.00  0.00    +0.257 C 
ATOM     12  O   LIG    1       20.036 -31.972  14.230  0.00  0.00    -0.272 OA
ATOM     13  N   LIG    1       21.880 -30.884  13.387  0.00  0.00    -0.288 N 
ATOM     14  C   LIG    1       21.933 -29.446  13.645  0.00  0.00    +0.133 C 
ATOM     15  C   LIG    1       22.826 -31.728  14.233  0.00  0.00    +0.187 C 
ATOM     16  C   LIG    1       24.337 -31.293  14.300  0.00  0.00    +0.329 C 
ATOM     17  O   LIG    1       25.128 -31.788  15.086  0.00  0.00    -0.249 OA
ATOM     18  O   LIG    1       24.667 -30.295  13.435  0.00  0.00    -0.450 OA
ATOM     19  C   LIG    1       25.899 -29.555  13.626  0.00  0.00    +0.264 C 
ATOM     20  C   LIG    1       27.211 -30.250  13.163  0.00  0.00    +0.257 C 
ATOM     21  O   LIG    1       27.865 -30.969  13.918  0.00  0.00    -0.272 OA
ATOM     22  N   LIG    1       27.752 -29.806  11.945  0.00  0.00    -0.288 N 
ATOM     23  C   LIG    1       29.139 -29.369  12.041  0.00  0.00    +0.133 C 
ATOM     24  C   LIG    1       27.406 -30.471  10.649  0.00  0.00    +0.187 C 
ATOM     25  C   LIG    1       26.195 -29.793   9.949  0.00  0.00    +0.329 C 
ATOM     26  O   LIG    1       25.693 -28.744  10.343  0.00  0.00    -0.249 OA
ATOM     27  O   LIG    1       25.863 -30.407   8.771  0.00  0.00    -0.450 OA
ENDROOT
BRANCH   1  29
ATOM     28  C   LIG    1       25.842 -31.140   5.952  0.00  0.00    +0.011 C 
ATOM     29  C   LIG    1       25.489 -29.730   6.436  0.00  0.00    +0.033 C 
ATOM     30  C   LIG    1       24.549 -29.087   5.408  0.00  0.00    +0.011 C 
ENDBRANCH   1  29
BRANCH   6  31
ATOM     31  C   LIG    1       22.674 -33.314   8.924  0.00  0.00    +0.014 C 
ATOM     32  C   LIG    1       22.490 -33.822   7.483  0.00  0.00    +0.009 C 
ATOM     33  C   LIG    1       24.181 -33.380   9.210  0.00  0.00    +0.009 C 
ENDBRANCH   6  31
BRANCH  10  34
ATOM     34  C   LIG    1       18.328 -31.553  11.883  0.00  0.00    +0.033 C 
ATOM     35  C   LIG    1       17.305 -31.035  12.904  0.00  0.00    +0.011 C 
ATOM     36  C   LIG    1       17.721 -31.382  10.481  0.00  0.00    +0.011 C 
ENDBRANCH  10  34
BRANCH  15  37
ATOM     37  C   LIG    1       22.742 -33.267  13.912  0.00  0.00    +0.014 C 
ATOM     38  C   LIG    1       21.337 -33.824  14.046  0.00  0.00    +0.009 C 
ATOM     39  C   LIG    1       23.261 -33.662  12.521  0.00  0.00    +0.009 C 
ENDBRANCH  15  37
BRANCH  19  40
ATOM     40  C   LIG    1       26.088 -29.020  15.091  0.00  0.00    +0.033 C 
ATOM     41  C   LIG    1       27.485 -28.426  15.317  0.00  0.00    +0.011 C 
ATOM     42  C   LIG    1       25.036 -27.983  15.490  0.00  0.00    +0.011 C 
ENDBRANCH  19  40
BRANCH  24  43
ATOM     43  C   LIG    1       27.382 -32.023  10.660  0.00  0.00    +0.014 C 
ATOM     44  C   LIG    1       26.102 -32.629  11.253  0.00  0.00    +0.009 C 
ATOM     45  C   LIG    1       27.650 -32.637   9.301  0.00  0.00    +0.009 C 
ENDBRANCH  24  43
TORSDOF 6
ENDMDL
MODEL 5
REMARK VINA RESULT:       0.4      1.955      6.984
REMARK  Name = *****
REMARK                            x       y       z     vdW  Elec       q    Type
REMARK                         _______ _______ _______ _____ _____    ______ ____
ROOT
ATOM      1  C   LIG    1       25.234 -27.524  13.904  0.00  0.00    +0.264 C 
ATOM      2  C   LIG    1       26.068 -27.209  12.613  0.00  0.00    +0.257 C 
ATOM      3  O   LIG    1       26.863 -26.271  12.550  0.00  0.00    -0.272 OA
ATOM      4  N   LIG    1       25.866 -28.056  11.514  0.00  0.00    -0.288 N 
ATOM      5  C   LIG    1       24.511 -27.996  10.989  0.00  0.00    +0.133 C 
ATOM      6  C   LIG    1       27.014 -28.213  10.538  0.00  0.00    +0.187 C 
ATOM      7  C   LIG    1       26.649 -28.756   9.092  0.00  0.00    +0.329 C 
ATOM      8  O   LIG    1       27.261 -29.616   8.511  0.00  0.00    -0.249 OA
ATOM      9  O   LIG    1       25.606 -28.117   8.510  0.00  0.00    -0.450 OA
ATOM     10  C   LIG    1       25.155 -28.628   7.245  0.00  0.00    +0.264 C 
ATOM     11  C   LIG    1       24.770 -30.167   7.281  0.00  0.00    +0.257 C 
ATOM     12  O   LIG    1       24.954 -30.929   6.333  0.00  0.00    -0.272 OA
ATOM     13  N   LIG    1       24.083 -30.615   8.439  0.00  0.00    -0.288 N 
ATOM     14  C   LIG    1       22.730 -30.063   8.482  0.00  0.00    +0.133 C 
ATOM     15  C   LIG    1       24.186 -32.102   8.757  0.00  0.00    +0.187 C 
ATOM     16  C   LIG    1       23.482 -32.624  10.064  0.00  0.00    +0.329 C 
ATOM     17  O   LIG    1       23.351 -33.811  10.309  0.00  0.00    -0.249 OA
ATOM     18  O   LIG    1       23.002 -31.636  10.869  0.00  0.00    -0.450 OA
ATOM     19  C   LIG    1       22.034 -31.955  11.900  0.00  0.00    +0.264 C 
ATOM     20  C   LIG    1       22.588 -32.604  13.201  0.00  0.00    +0.257 C 
ATOM     21  O   LIG    1       22.689 -33.825  13.323  0.00  0.00    -0.272 OA
ATOM     22  N   LIG    1       22.708 -31.756  14.315  0.00  0.00    -0.288 N 
ATOM     23  C   LIG    1       22.012 -32.240  15.500  0.00  0.00    +0.133 C 
ATOM     24  C   LIG    1       23.982 -31.026  14.604  0.00  0.00    +0.187 C 
ATOM     25  C   LIG    1       24.000 -29.607  13.971  0.00  0.00    +0.329 C 
ATOM     26  O   LIG    1       23.019 -29.099  13.434  0.00  0.00    -0.249 OA
ATOM     27  O   LIG    1       25.170 -28.940  14.219  0.00  0.00    -0.450 OA
ENDROOT
BRANCH   1  29
ATOM     28  C   LIG    1       27.335 -27.001  15.275  0.00  0.00    +0.011 C 
ATOM     29  C   LIG    1       25.832 -26.750  15.124  0.00  0.00    +0.033 C 
ATOM     30  C   LIG    1       25.597 -25.234  15.070  0.00  0.00    +0.011 C 
ENDBRANCH   1  29
BRANCH   6  31
ATOM     31  C   LIG    1       28.190 -29.098  11.138  0.00  0.00    +0.014 C 
ATOM     32  C   LIG    1       28.432 -28.842  12.636  0.00  0.00    +0.009 C 
ATOM     33  C   LIG    1       28.030 -30.617  10.986  0.00  0.00    +0.009 C 
ENDBRANCH   6  31
BRANCH  10  34
ATOM     34  C   LIG    1       26.109 -28.246   6.070  0.00  0.00    +0.033 C 
ATOM     35  C   LIG    1       25.482 -28.561   4.704  0.00  0.00    +0.011 C 
ATOM     36  C   LIG    1       26.503 -26.760   6.075  0.00  0.00    +0.011 C 
ENDBRANCH  10  34
BRANCH  15  37
ATOM     37  C   LIG    1       25.662 -32.647   8.709  0.00  0.00    +0.014 C 
ATOM     38  C   LIG    1       26.011 -33.517   9.902  0.00  0.00    +0.009 C 
ATOM     39  C   LIG    1       26.011 -33.445   7.443  0.00  0.00    +0.009 C 
ENDBRANCH  15  37
BRANCH  19  40
ATOM     40  C   LIG    1       20.818 -32.801  11.378  0.00  0.00    +0.033 C 
ATOM     41  C   LIG    1       19.878 -33.228  12.513  0.00  0.00    +0.011 C 
ATOM     42  C   LIG    1       20.003 -32.077  10.304  0.00  0.00    +0.011 C 
ENDBRANCH  19  40
BRANCH  24  43
ATOM     43  C   LIG    1       25.292 -31.842  14.442  0.00  0.00    +0.014 C 
ATOM     44  C   LIG    1       25.367 -33.095  15.326  0.00  0.00    +0.009 C 
ATOM     45  C   LIG    1       25.590 -32.220  13.004  0.00  0.00    +0.009 C 
ENDBRANCH  24  43
TORSDOF 6
ENDMDL
