MODEL 1
REMARK VINA RESULT:      -9.8      0.000      0.000
REMARK  Name = *****
REMARK                            x       y       z     vdW  Elec       q    Type
REMARK                         _______ _______ _______ _____ _____    ______ ____
ROOT
ATOM      1  C   LIG    1       29.016 -19.010   7.416  0.00  0.00    +0.005 C 
ATOM      2  C   LIG    1       28.544 -20.469   7.121  0.00  0.00    +0.033 C 
ATOM      3  C   LIG    1       29.717 -21.429   6.825  0.00  0.00    +0.019 C 
ATOM      4  C   LIG    1       27.692 -20.324   5.820  0.00  0.00    +0.013 C 
ATOM      5  C   LIG    1       26.212 -19.941   6.023  0.00  0.00    +0.063 C 
ATOM      6  C   LIG    1       25.491 -20.752   7.110  0.00  0.00    +0.013 C 
ATOM      7  C   LIG    1       26.268 -20.612   8.419  0.00  0.00    +0.079 C 
ATOM      8  C   LIG    1       25.026 -22.219   6.711  0.00  0.00    -0.024 C 
ATOM      9  C   LIG    1       23.550 -22.341   7.193  0.00  0.00    +0.012 C 
ATOM     10  C   LIG    1       25.154 -22.454   5.179  0.00  0.00    +0.009 C 
ATOM     11  C   LIG    1       24.481 -23.752   4.725  0.00  0.00    +0.079 C 
ATOM     12  C   LIG    1       24.942 -24.953   5.526  0.00  0.00    +0.134 C 
ATOM     13  O   LIG    1       24.829 -26.086   5.052  0.00  0.00    -0.297 OA
ATOM     14  C   LIG    1       25.370 -24.774   6.969  0.00  0.00    +0.075 C 
ATOM     15  C   LIG    1       24.679 -21.264   4.356  0.00  0.00    +0.079 C 
ATOM     16  C   LIG    1       25.842 -23.369   7.353  0.00  0.00    +0.015 C 
ATOM     17  C   LIG    1       25.402 -19.989   4.727  0.00  0.00    +0.137 C 
ATOM     18  O   LIG    1       25.316 -18.997   4.000  0.00  0.00    -0.297 OA
ATOM     19  C   LIG    1       28.433 -19.243   5.018  0.00  0.00    +0.005 C 
ATOM     20  C   LIG    1       27.705 -21.053   8.273  0.00  0.00    +0.140 C 
ATOM     21  O   LIG    1       28.181 -21.831   9.101  0.00  0.00    -0.297 OA
ATOM     22  C   LIG    1       29.211 -18.396   6.016  0.00  0.00    +0.005 C 
ENDROOT
BRANCH   1  24
ATOM     23  C   LIG    1       31.059 -20.092   8.581  0.00  0.00    +0.008 C 
ATOM     24  C   LIG    1       30.291 -18.798   8.296  0.00  0.00    -0.010 C 
BRANCH  24  25
ATOM     25  C   LIG    1       30.002 -18.068   9.639  0.00  0.00    +0.015 C 
BRANCH  25  26
ATOM     26  C   LIG    1       30.640 -16.686   9.773  0.00  0.00    +0.121 C 
BRANCH  26  27
ATOM     27  C   LIG    1       32.143 -16.785   9.739  0.00  0.00    +0.305 C 
ATOM     28  O   LIG    1       32.807 -17.353  10.597  0.00  0.00    -0.251 OA
BRANCH  27  29
ATOM     29  O   LIG    1       32.705 -16.159   8.683  0.00  0.00    -0.481 OA
ATOM     30  H   LIG    1       33.212 -16.745   8.091  0.00  0.00    +0.295 HD
ENDBRANCH  27  29
ENDBRANCH  26  27
ENDBRANCH  25  26
ENDBRANCH  24  25
ENDBRANCH   1  24
TORSDOF 5
ENDMDL
MODEL 2
REMARK VINA RESULT:      -9.1      1.682      2.096
REMARK  Name = *****
REMARK                            x       y       z     vdW  Elec       q    Type
REMARK                         _______ _______ _______ _____ _____    ______ ____
ROOT
ATOM      1  C   LIG    1       28.599 -19.179   7.502  0.00  0.00    +0.005 C 
ATOM      2  C   LIG    1       28.168 -20.644   7.172  0.00  0.00    +0.033 C 
ATOM      3  C   LIG    1       29.373 -21.583   6.943  0.00  0.00    +0.019 C 
ATOM      4  C   LIG    1       27.396 -20.504   5.821  0.00  0.00    +0.013 C 
ATOM      5  C   LIG    1       25.900 -20.145   5.934  0.00  0.00    +0.063 C 
ATOM      6  C   LIG    1       25.127 -20.974   6.972  0.00  0.00    +0.013 C 
ATOM      7  C   LIG    1       25.820 -20.829   8.326  0.00  0.00    +0.079 C 
ATOM      8  C   LIG    1       24.711 -22.446   6.538  0.00  0.00    -0.024 C 
ATOM      9  C   LIG    1       23.211 -22.594   6.927  0.00  0.00    +0.012 C 
ATOM     10  C   LIG    1       24.937 -22.670   5.016  0.00  0.00    +0.009 C 
ATOM     11  C   LIG    1       24.314 -23.975   4.514  0.00  0.00    +0.079 C 
ATOM     12  C   LIG    1       24.743 -25.173   5.336  0.00  0.00    +0.134 C 
ATOM     13  O   LIG    1       24.678 -26.306   4.851  0.00  0.00    -0.297 OA
ATOM     14  C   LIG    1       25.079 -24.996   6.804  0.00  0.00    +0.075 C 
ATOM     15  C   LIG    1       24.494 -21.483   4.170  0.00  0.00    +0.079 C 
ATOM     16  C   LIG    1       25.505 -23.586   7.223  0.00  0.00    +0.015 C 
ATOM     17  C   LIG    1       25.172 -20.198   4.592  0.00  0.00    +0.137 C 
ATOM     18  O   LIG    1       25.115 -19.204   3.865  0.00  0.00    -0.297 OA
ATOM     19  C   LIG    1       28.167 -19.406   5.072  0.00  0.00    +0.005 C 
ATOM     20  C   LIG    1       27.270 -21.247   8.266  0.00  0.00    +0.140 C 
ATOM     21  O   LIG    1       27.707 -22.022   9.119  0.00  0.00    -0.297 OA
ATOM     22  C   LIG    1       28.869 -18.553   6.119  0.00  0.00    +0.005 C 
ENDROOT
BRANCH   1  24
ATOM     23  C   LIG    1       30.132 -17.475   8.703  0.00  0.00    +0.008 C 
ATOM     24  C   LIG    1       29.813 -18.952   8.460  0.00  0.00    -0.010 C 
BRANCH  24  25
ATOM     25  C   LIG    1       31.106 -19.688   8.005  0.00  0.00    +0.015 C 
BRANCH  25  26
ATOM     26  C   LIG    1       31.931 -20.304   9.133  0.00  0.00    +0.121 C 
BRANCH  26  27
ATOM     27  C   LIG    1       31.554 -21.748   9.344  0.00  0.00    +0.305 C 
ATOM     28  O   LIG    1       30.754 -22.126  10.191  0.00  0.00    -0.251 OA
BRANCH  27  29
ATOM     29  O   LIG    1       32.205 -22.604   8.528  0.00  0.00    -0.481 OA
ATOM     30  H   LIG    1       32.304 -23.505   8.888  0.00  0.00    +0.295 HD
ENDBRANCH  27  29
ENDBRANCH  26  27
ENDBRANCH  25  26
ENDBRANCH  24  25
ENDBRANCH   1  24
TORSDOF 5
ENDMDL
MODEL 3
REMARK VINA RESULT:      -7.8      9.547     12.118
REMARK  Name = *****
REMARK                            x       y       z     vdW  Elec       q    Type
REMARK                         _______ _______ _______ _____ _____    ______ ____
ROOT
ATOM      1  C   LIG    1       26.005 -31.286   9.861  0.00  0.00    +0.005 C 
ATOM      2  C   LIG    1       24.690 -30.494  10.149  0.00  0.00    +0.033 C 
ATOM      3  C   LIG    1       23.905 -30.151   8.864  0.00  0.00    +0.019 C 
ATOM      4  C   LIG    1       25.198 -29.159  10.782  0.00  0.00    +0.013 C 
ATOM      5  C   LIG    1       25.452 -29.187  12.302  0.00  0.00    +0.063 C 
ATOM      6  C   LIG    1       24.325 -29.835  13.121  0.00  0.00    +0.013 C 
ATOM      7  C   LIG    1       24.085 -31.248  12.588  0.00  0.00    +0.079 C 
ATOM      8  C   LIG    1       23.035 -28.944  13.384  0.00  0.00    -0.024 C 
ATOM      9  C   LIG    1       22.724 -29.087  14.903  0.00  0.00    +0.012 C 
ATOM     10  C   LIG    1       23.282 -27.462  12.982  0.00  0.00    +0.009 C 
ATOM     11  C   LIG    1       22.163 -26.530  13.454  0.00  0.00    +0.079 C 
ATOM     12  C   LIG    1       20.791 -27.014  13.031  0.00  0.00    +0.134 C 
ATOM     13  O   LIG    1       19.853 -26.216  12.964  0.00  0.00    -0.297 OA
ATOM     14  C   LIG    1       20.535 -28.499  12.866  0.00  0.00    +0.075 C 
ATOM     15  C   LIG    1       24.650 -26.951  13.415  0.00  0.00    +0.079 C 
ATOM     16  C   LIG    1       21.771 -29.359  12.589  0.00  0.00    +0.015 C 
ATOM     17  C   LIG    1       25.774 -27.808  12.878  0.00  0.00    +0.137 C 
ATOM     18  O   LIG    1       26.937 -27.401  12.928  0.00  0.00    -0.297 OA
ATOM     19  C   LIG    1       26.495 -28.861  10.015  0.00  0.00    +0.005 C 
ATOM     20  C   LIG    1       23.757 -31.247  11.114  0.00  0.00    +0.140 C 
ATOM     21  O   LIG    1       22.779 -31.884  10.717  0.00  0.00    -0.297 OA
ATOM     22  C   LIG    1       27.023 -30.189   9.490  0.00  0.00    +0.005 C 
ENDROOT
BRANCH   1  24
ATOM     23  C   LIG    1       25.981 -33.825   9.358  0.00  0.00    +0.008 C 
ATOM     24  C   LIG    1       25.980 -32.410   8.774  0.00  0.00    -0.010 C 
BRANCH  24  25
ATOM     25  C   LIG    1       27.126 -32.286   7.729  0.00  0.00    +0.015 C 
BRANCH  25  26
ATOM     26  C   LIG    1       26.691 -32.431   6.272  0.00  0.00    +0.121 C 
BRANCH  26  27
ATOM     27  C   LIG    1       25.567 -31.479   5.951  0.00  0.00    +0.305 C 
ATOM     28  O   LIG    1       24.417 -31.835   5.728  0.00  0.00    -0.251 OA
BRANCH  27  29
ATOM     29  O   LIG    1       25.949 -30.185   5.901  0.00  0.00    -0.481 OA
ATOM     30  H   LIG    1       25.915 -29.723   6.759  0.00  0.00    +0.295 HD
ENDBRANCH  27  29
ENDBRANCH  26  27
ENDBRANCH  25  26
ENDBRANCH  24  25
ENDBRANCH   1  24
TORSDOF 5
ENDMDL
