MODEL 1
REMARK VINA RESULT:      -7.6      0.000      0.000
REMARK  Name = *****
REMARK                            x       y       z     vdW  Elec       q    Type
REMARK                         _______ _______ _______ _____ _____    ______ ____
ROOT
ATOM      1  C   UNK A  1       26.485 -20.990   7.994  0.00  0.00    +0.214 C 
ATOM      2  N   UNK A  1       25.759 -21.759   7.120  0.00  0.00    -0.303 N 
ATOM      3  H   UNK A  1       26.100 -21.914   6.173  0.00  0.00    +0.149 HD
ATOM      4  O   UNK A  1       26.123 -20.806   9.154  0.00  0.00    -0.276 OA
ENDROOT
BRANCH   1   5
ATOM      5  C   UNK A  1       27.790 -20.455   7.424  0.00  0.00    +0.098 C 
BRANCH   5   6
ATOM      6  C   UNK A  1       28.997 -21.387   7.609  0.00  0.00    +0.039 C 
BRANCH   6   7
ATOM      7  C   UNK A  1       30.229 -20.771   8.283  0.00  0.00    +0.161 C 
BRANCH   7   8
ATOM      8  N   UNK A  1       31.148 -20.186   7.260  0.00  0.00    -0.318 NA
ATOM      9  H   UNK A  1       30.947 -19.184   7.181  0.00  0.00    +0.119 HD
ATOM     10  H   UNK A  1       32.098 -20.224   7.637  0.00  0.00    +0.119 HD
ENDBRANCH   7   8
BRANCH   7  11
ATOM     11  C   UNK A  1       31.041 -21.780   9.136  0.00  0.00    +0.322 C 
ATOM     12  O   UNK A  1       30.768 -22.180  10.241  0.00  0.00    -0.249 OA
BRANCH  11  13
ATOM     13  O   UNK A  1       32.170 -22.153   8.463  0.00  0.00    -0.479 OA
ATOM     14  H   UNK A  1       32.571 -22.890   8.975  0.00  0.00    +0.295 HD
ENDBRANCH  11  13
ENDBRANCH   7  11
ENDBRANCH   6   7
ENDBRANCH   5   6
ENDBRANCH   1   5
BRANCH   2  15
ATOM     15  C   UNK A  1       24.485 -22.368   7.513  0.00  0.00    +0.168 C 
BRANCH  15  16
ATOM     16  C   UNK A  1       24.300 -23.649   6.695  0.00  0.00    +0.235 C 
ATOM     17  N   GLY A  2       25.390 -23.991   5.917  0.00  0.00    -0.303 N 
ATOM     18  H   GLY A  2       26.143 -23.321   5.772  0.00  0.00    +0.149 HD
ATOM     19  O   UNK A  1       23.268 -24.314   6.722  0.00  0.00    -0.274 OA
BRANCH  17  20
ATOM     20  CA  GLY A  2       25.455 -25.285   5.244  0.00  0.00    +0.224 C 
BRANCH  20  21
ATOM     21  C   GLY A  2       26.247 -26.297   6.055  0.00  0.00    +0.322 C 
ATOM     22  O   GLY A  2       25.950 -26.642   7.197  0.00  0.00    -0.249 OA
BRANCH  21  23
ATOM     23  OXT GLY A  2       27.366 -26.743   5.434  0.00  0.00    -0.479 OA
ATOM     24  HXT GLY A  2       27.215 -26.844   4.475  0.00  0.00    +0.295 HD
ENDBRANCH  21  23
ENDBRANCH  20  21
ENDBRANCH  17  20
ENDBRANCH  15  16
BRANCH  15  25
ATOM     25  C   UNK A  1       23.294 -21.415   7.324  0.00  0.00    +0.097 C 
BRANCH  25  26
ATOM     26  S   UNK A  1       23.265 -20.598   5.689  0.00  0.00    -0.176 S 
ATOM     27  H   UNK A  1       24.597 -20.465   5.556  0.00  0.00    +0.102 HD
ENDBRANCH  25  26
ENDBRANCH  15  25
ENDBRANCH   2  15
TORSDOF 13
ENDMDL
MODEL 2
REMARK VINA RESULT:      -7.5      2.319      2.718
REMARK  Name = *****
REMARK                            x       y       z     vdW  Elec       q    Type
REMARK                         _______ _______ _______ _____ _____    ______ ____
ROOT
ATOM      1  C   UNK A  1       27.855 -20.193   6.983  0.00  0.00    +0.214 C 
ATOM      2  N   UNK A  1       26.934 -20.618   6.060  0.00  0.00    -0.303 N 
ATOM      3  H   UNK A  1       27.172 -20.626   5.070  0.00  0.00    +0.149 HD
ATOM      4  O   UNK A  1       27.617 -20.198   8.189  0.00  0.00    -0.276 OA
ENDROOT
BRANCH   1   5
ATOM      5  C   UNK A  1       29.197 -19.788   6.391  0.00  0.00    +0.098 C 
BRANCH   5   6
ATOM      6  C   UNK A  1       29.939 -18.698   7.179  0.00  0.00    +0.039 C 
BRANCH   6   7
ATOM      7  C   UNK A  1       31.392 -19.009   7.557  0.00  0.00    +0.161 C 
BRANCH   7   8
ATOM      8  N   UNK A  1       31.562 -20.469   7.828  0.00  0.00    -0.318 NA
ATOM      9  H   UNK A  1       31.714 -20.596   8.834  0.00  0.00    +0.119 HD
ATOM     10  H   UNK A  1       30.664 -20.925   7.649  0.00  0.00    +0.119 HD
ENDBRANCH   7   8
BRANCH   7  11
ATOM     11  C   UNK A  1       31.893 -18.230   8.801  0.00  0.00    +0.322 C 
ATOM     12  O   UNK A  1       31.899 -18.615   9.944  0.00  0.00    -0.249 OA
BRANCH  11  13
ATOM     13  O   UNK A  1       32.318 -16.986   8.428  0.00  0.00    -0.479 OA
ATOM     14  H   UNK A  1       33.090 -16.771   8.997  0.00  0.00    +0.295 HD
ENDBRANCH  11  13
ENDBRANCH   7  11
ENDBRANCH   6   7
ENDBRANCH   5   6
ENDBRANCH   1   5
BRANCH   2  15
ATOM     15  C   UNK A  1       25.596 -21.061   6.462  0.00  0.00    +0.168 C 
BRANCH  15  16
ATOM     16  C   UNK A  1       25.621 -22.587   6.591  0.00  0.00    +0.235 C 
ATOM     17  N   GLY A  2       25.081 -23.259   5.512  0.00  0.00    -0.303 N 
ATOM     18  H   GLY A  2       24.543 -22.751   4.812  0.00  0.00    +0.149 HD
ATOM     19  O   UNK A  1       26.078 -23.165   7.574  0.00  0.00    -0.274 OA
BRANCH  17  20
ATOM     20  CA  GLY A  2       25.218 -24.707   5.385  0.00  0.00    +0.224 C 
BRANCH  20  21
ATOM     21  C   GLY A  2       24.063 -25.438   6.050  0.00  0.00    +0.322 C 
ATOM     22  O   GLY A  2       24.007 -26.660   6.171  0.00  0.00    -0.249 OA
BRANCH  21  23
ATOM     23  OXT GLY A  2       23.051 -24.627   6.441  0.00  0.00    -0.479 OA
ATOM     24  HXT GLY A  2       23.143 -24.385   7.382  0.00  0.00    +0.295 HD
ENDBRANCH  21  23
ENDBRANCH  20  21
ENDBRANCH  17  20
ENDBRANCH  15  16
BRANCH  15  25
ATOM     25  C   UNK A  1       24.506 -20.608   5.479  0.00  0.00    +0.097 C 
BRANCH  25  26
ATOM     26  S   UNK A  1       25.168 -19.841   3.957  0.00  0.00    -0.176 S 
ATOM     27  H   UNK A  1       24.827 -20.836   3.118  0.00  0.00    +0.102 HD
ENDBRANCH  25  26
ENDBRANCH  15  25
ENDBRANCH   2  15
TORSDOF 13
ENDMDL
MODEL 3
REMARK VINA RESULT:      -7.2      1.456      1.560
REMARK  Name = *****
REMARK                            x       y       z     vdW  Elec       q    Type
REMARK                         _______ _______ _______ _____ _____    ______ ____
ROOT
ATOM      1  C   UNK A  1       27.126 -21.312   7.588  0.00  0.00    +0.214 C 
ATOM      2  N   UNK A  1       26.110 -21.791   6.801  0.00  0.00    -0.303 N 
ATOM      3  H   UNK A  1       26.198 -21.774   5.787  0.00  0.00    +0.149 HD
ATOM      4  O   UNK A  1       27.070 -21.345   8.814  0.00  0.00    -0.276 OA
ENDROOT
BRANCH   1   5
ATOM      5  C   UNK A  1       28.335 -20.809   6.813  0.00  0.00    +0.098 C 
BRANCH   5   6
ATOM      6  C   UNK A  1       29.583 -20.554   7.672  0.00  0.00    +0.039 C 
BRANCH   6   7
ATOM      7  C   UNK A  1       30.123 -19.119   7.669  0.00  0.00    +0.161 C 
BRANCH   7   8
ATOM      8  N   UNK A  1       30.264 -18.617   6.268  0.00  0.00    -0.318 NA
ATOM      9  H   UNK A  1       30.355 -17.596   6.299  0.00  0.00    +0.119 HD
ATOM     10  H   UNK A  1       31.167 -18.940   5.911  0.00  0.00    +0.119 HD
ENDBRANCH   7   8
BRANCH   7  11
ATOM     11  C   UNK A  1       31.497 -18.970   8.373  0.00  0.00    +0.322 C 
ATOM     12  O   UNK A  1       31.994 -19.733   9.164  0.00  0.00    -0.249 OA
BRANCH  11  13
ATOM     13  O   UNK A  1       32.088 -17.799   7.990  0.00  0.00    -0.479 OA
ATOM     14  H   UNK A  1       32.146 -17.237   8.795  0.00  0.00    +0.295 HD
ENDBRANCH  11  13
ENDBRANCH   7  11
ENDBRANCH   6   7
ENDBRANCH   5   6
ENDBRANCH   1   5
BRANCH   2  15
ATOM     15  C   UNK A  1       24.879 -22.331   7.387  0.00  0.00    +0.168 C 
BRANCH  15  16
ATOM     16  C   UNK A  1       24.511 -23.607   6.624  0.00  0.00    +0.235 C 
ATOM     17  N   GLY A  2       25.508 -24.082   5.793  0.00  0.00    -0.303 N 
ATOM     18  H   GLY A  2       26.315 -23.498   5.581  0.00  0.00    +0.149 HD
ATOM     19  O   UNK A  1       23.420 -24.160   6.737  0.00  0.00    -0.274 OA
BRANCH  17  20
ATOM     20  CA  GLY A  2       25.398 -25.393   5.162  0.00  0.00    +0.224 C 
BRANCH  20  21
ATOM     21  C   GLY A  2       26.198 -26.445   5.913  0.00  0.00    +0.322 C 
ATOM     22  O   GLY A  2       26.011 -26.733   7.094  0.00  0.00    -0.249 OA
BRANCH  21  23
ATOM     23  OXT GLY A  2       27.198 -26.998   5.185  0.00  0.00    -0.479 OA
ATOM     24  HXT GLY A  2       26.867 -27.746   4.652  0.00  0.00    +0.295 HD
ENDBRANCH  21  23
ENDBRANCH  20  21
ENDBRANCH  17  20
ENDBRANCH  15  16
BRANCH  15  25
ATOM     25  C   UNK A  1       23.722 -21.320   7.359  0.00  0.00    +0.097 C 
BRANCH  25  26
ATOM     26  S   UNK A  1       23.387 -20.638   5.696  0.00  0.00    -0.176 S 
ATOM     27  H   UNK A  1       24.124 -19.521   5.832  0.00  0.00    +0.102 HD
ENDBRANCH  25  26
ENDBRANCH  15  25
ENDBRANCH   2  15
TORSDOF 13
ENDMDL
MODEL 4
REMARK VINA RESULT:      -7.1      2.149      2.578
REMARK  Name = *****
REMARK                            x       y       z     vdW  Elec       q    Type
REMARK                         _______ _______ _______ _____ _____    ______ ____
ROOT
ATOM      1  C   UNK A  1       26.374 -21.440   7.852  0.00  0.00    +0.214 C 
ATOM      2  N   UNK A  1       25.988 -22.288   6.846  0.00  0.00    -0.303 N 
ATOM      3  H   UNK A  1       26.687 -22.818   6.329  0.00  0.00    +0.149 HD
ATOM      4  O   UNK A  1       25.558 -20.808   8.519  0.00  0.00    -0.276 OA
ENDROOT
BRANCH   1   5
ATOM      5  C   UNK A  1       27.874 -21.408   8.106  0.00  0.00    +0.098 C 
BRANCH   5   6
ATOM      6  C   UNK A  1       28.715 -20.959   6.901  0.00  0.00    +0.039 C 
BRANCH   6   7
ATOM      7  C   UNK A  1       28.229 -19.702   6.170  0.00  0.00    +0.161 C 
BRANCH   7   8
ATOM      8  N   UNK A  1       27.509 -20.073   4.913  0.00  0.00    -0.318 NA
ATOM      9  H   UNK A  1       28.175 -20.029   4.135  0.00  0.00    +0.119 HD
ATOM     10  H   UNK A  1       27.260 -21.063   4.978  0.00  0.00    +0.119 HD
ENDBRANCH   7   8
BRANCH   7  11
ATOM     11  C   UNK A  1       29.368 -18.718   5.797  0.00  0.00    +0.322 C 
ATOM     12  O   UNK A  1       30.425 -18.586   6.362  0.00  0.00    -0.249 OA
BRANCH  11  13
ATOM     13  O   UNK A  1       28.997 -17.966   4.718  0.00  0.00    -0.479 OA
ATOM     14  H   UNK A  1       28.112 -17.593   4.928  0.00  0.00    +0.295 HD
ENDBRANCH  11  13
ENDBRANCH   7  11
ENDBRANCH   6   7
ENDBRANCH   5   6
ENDBRANCH   1   5
BRANCH   2  15
ATOM     15  C   UNK A  1       24.577 -22.452   6.483  0.00  0.00    +0.168 C 
BRANCH  15  16
ATOM     16  C   UNK A  1       24.339 -23.932   6.166  0.00  0.00    +0.235 C 
ATOM     17  N   GLY A  2       25.246 -24.478   5.277  0.00  0.00    -0.303 N 
ATOM     18  H   GLY A  2       25.871 -23.871   4.750  0.00  0.00    +0.149 HD
ATOM     19  O   UNK A  1       23.416 -24.578   6.655  0.00  0.00    -0.274 OA
BRANCH  17  20
ATOM     20  CA  GLY A  2       25.285 -25.917   5.035  0.00  0.00    +0.224 C 
BRANCH  20  21
ATOM     21  C   GLY A  2       26.287 -26.610   5.944  0.00  0.00    +0.322 C 
ATOM     22  O   GLY A  2       26.081 -26.847   7.133  0.00  0.00    -0.249 OA
BRANCH  21  23
ATOM     23  OXT GLY A  2       27.471 -26.885   5.347  0.00  0.00    -0.479 OA
ATOM     24  HXT GLY A  2       27.951 -26.063   5.129  0.00  0.00    +0.295 HD
ENDBRANCH  21  23
ENDBRANCH  20  21
ENDBRANCH  17  20
ENDBRANCH  15  16
BRANCH  15  25
ATOM     25  C   UNK A  1       24.166 -21.562   5.300  0.00  0.00    +0.097 C 
BRANCH  25  26
ATOM     26  S   UNK A  1       22.960 -20.263   5.748  0.00  0.00    -0.176 S 
ATOM     27  H   UNK A  1       22.997 -20.465   7.078  0.00  0.00    +0.102 HD
ENDBRANCH  25  26
ENDBRANCH  15  25
ENDBRANCH   2  15
TORSDOF 13
ENDMDL
MODEL 5
REMARK VINA RESULT:      -6.8      3.342      4.667
REMARK  Name = *****
REMARK                            x       y       z     vdW  Elec       q    Type
REMARK                         _______ _______ _______ _____ _____    ______ ____
ROOT
ATOM      1  C   UNK A  1       27.930 -20.299   6.886  0.00  0.00    +0.214 C 
ATOM      2  N   UNK A  1       27.018 -21.154   7.451  0.00  0.00    -0.303 N 
ATOM      3  H   UNK A  1       27.043 -21.337   8.453  0.00  0.00    +0.149 HD
ATOM      4  O   UNK A  1       27.913 -20.029   5.688  0.00  0.00    -0.276 OA
ENDROOT
BRANCH   1   5
ATOM      5  C   UNK A  1       28.903 -19.677   7.876  0.00  0.00    +0.098 C 
BRANCH   5   6
ATOM      6  C   UNK A  1       29.904 -18.692   7.253  0.00  0.00    +0.039 C 
BRANCH   6   7
ATOM      7  C   UNK A  1       31.386 -18.961   7.542  0.00  0.00    +0.161 C 
BRANCH   7   8
ATOM      8  N   UNK A  1       31.620 -20.421   7.761  0.00  0.00    -0.318 NA
ATOM      9  H   UNK A  1       31.098 -20.942   7.049  0.00  0.00    +0.119 HD
ATOM     10  H   UNK A  1       32.601 -20.615   7.548  0.00  0.00    +0.119 HD
ENDBRANCH   7   8
BRANCH   7  11
ATOM     11  C   UNK A  1       31.928 -18.198   8.779  0.00  0.00    +0.322 C 
ATOM     12  O   UNK A  1       31.952 -18.590   9.919  0.00  0.00    -0.249 OA
BRANCH  11  13
ATOM     13  O   UNK A  1       32.367 -16.960   8.403  0.00  0.00    -0.479 OA
ATOM     14  H   UNK A  1       32.288 -16.919   7.424  0.00  0.00    +0.295 HD
ENDBRANCH  11  13
ENDBRANCH   7  11
ENDBRANCH   6   7
ENDBRANCH   5   6
ENDBRANCH   1   5
BRANCH   2  15
ATOM     15  C   UNK A  1       25.996 -21.826   6.643  0.00  0.00    +0.168 C 
BRANCH  15  16
ATOM     16  C   UNK A  1       24.691 -21.036   6.776  0.00  0.00    +0.235 C 
ATOM     17  N   GLY A  2       24.157 -20.609   5.575  0.00  0.00    -0.303 N 
ATOM     18  H   GLY A  2       24.714 -20.658   4.724  0.00  0.00    +0.149 HD
ATOM     19  O   UNK A  1       24.165 -20.796   7.860  0.00  0.00    -0.274 OA
BRANCH  17  20
ATOM     20  CA  GLY A  2       22.818 -20.030   5.513  0.00  0.00    +0.224 C 
BRANCH  20  21
ATOM     21  C   GLY A  2       22.731 -18.936   4.461  0.00  0.00    +0.322 C 
ATOM     22  O   GLY A  2       21.918 -18.015   4.499  0.00  0.00    -0.249 OA
BRANCH  21  23
ATOM     23  OXT GLY A  2       23.588 -19.101   3.425  0.00  0.00    -0.479 OA
ATOM     24  HXT GLY A  2       23.164 -19.596   2.698  0.00  0.00    +0.295 HD
ENDBRANCH  21  23
ENDBRANCH  20  21
ENDBRANCH  17  20
ENDBRANCH  15  16
BRANCH  15  25
ATOM     25  C   UNK A  1       25.796 -23.294   7.048  0.00  0.00    +0.097 C 
BRANCH  25  26
ATOM     26  S   UNK A  1       24.979 -24.303   5.761  0.00  0.00    -0.176 S 
ATOM     27  H   UNK A  1       25.892 -25.291   5.732  0.00  0.00    +0.102 HD
ENDBRANCH  25  26
ENDBRANCH  15  25
ENDBRANCH   2  15
TORSDOF 13
ENDMDL
MODEL 6
REMARK VINA RESULT:      -6.8      2.934      5.886
REMARK  Name = *****
REMARK                            x       y       z     vdW  Elec       q    Type
REMARK                         _______ _______ _______ _____ _____    ______ ____
ROOT
ATOM      1  C   UNK A  1       23.236 -21.710   6.850  0.00  0.00    +0.214 C 
ATOM      2  N   UNK A  1       24.462 -22.227   6.516  0.00  0.00    -0.303 N 
ATOM      3  H   UNK A  1       24.787 -22.188   5.552  0.00  0.00    +0.149 HD
ATOM      4  O   UNK A  1       22.824 -21.711   8.007  0.00  0.00    -0.276 OA
ENDROOT
BRANCH   1   5
ATOM      5  C   UNK A  1       22.480 -21.089   5.686  0.00  0.00    +0.098 C 
BRANCH   5   6
ATOM      6  C   UNK A  1       23.105 -19.797   5.136  0.00  0.00    +0.039 C 
BRANCH   6   7
ATOM      7  C   UNK A  1       23.988 -19.951   3.892  0.00  0.00    +0.161 C 
BRANCH   7   8
ATOM      8  N   UNK A  1       23.915 -21.349   3.368  0.00  0.00    -0.318 NA
ATOM      9  H   UNK A  1       24.300 -21.358   2.418  0.00  0.00    +0.119 HD
ATOM     10  H   UNK A  1       24.568 -21.920   3.911  0.00  0.00    +0.119 HD
ENDBRANCH   7   8
BRANCH   7  11
ATOM     11  C   UNK A  1       25.480 -19.610   4.142  0.00  0.00    +0.322 C 
ATOM     12  O   UNK A  1       26.200 -20.082   4.988  0.00  0.00    -0.249 OA
BRANCH  11  13
ATOM     13  O   UNK A  1       25.888 -18.646   3.265  0.00  0.00    -0.479 OA
ATOM     14  H   UNK A  1       25.536 -18.900   2.384  0.00  0.00    +0.295 HD
ENDBRANCH  11  13
ENDBRANCH   7  11
ENDBRANCH   6   7
ENDBRANCH   5   6
ENDBRANCH   1   5
BRANCH   2  15
ATOM     15  C   UNK A  1       25.330 -22.847   7.521  0.00  0.00    +0.168 C 
BRANCH  15  16
ATOM     16  C   UNK A  1       26.242 -21.760   8.096  0.00  0.00    +0.235 C 
ATOM     17  N   GLY A  2       27.374 -21.509   7.345  0.00  0.00    -0.303 N 
ATOM     18  H   GLY A  2       27.643 -22.149   6.599  0.00  0.00    +0.149 HD
ATOM     19  O   UNK A  1       25.992 -21.164   9.141  0.00  0.00    -0.274 OA
BRANCH  17  20
ATOM     20  CA  GLY A  2       28.233 -20.366   7.640  0.00  0.00    +0.224 C 
BRANCH  20  21
ATOM     21  C   GLY A  2       29.662 -20.798   7.922  0.00  0.00    +0.322 C 
ATOM     22  O   GLY A  2       29.982 -21.536   8.853  0.00  0.00    -0.249 OA
BRANCH  21  23
ATOM     23  OXT GLY A  2       30.579 -20.239   7.096  0.00  0.00    -0.479 OA
ATOM     24  HXT GLY A  2       30.612 -19.271   7.218  0.00  0.00    +0.295 HD
ENDBRANCH  21  23
ENDBRANCH  20  21
ENDBRANCH  17  20
ENDBRANCH  15  16
BRANCH  15  25
ATOM     25  C   UNK A  1       26.154 -24.012   6.949  0.00  0.00    +0.097 C 
BRANCH  25  26
ATOM     26  S   UNK A  1       25.133 -25.325   6.190  0.00  0.00    -0.176 S 
ATOM     27  H   UNK A  1       26.083 -26.278   6.181  0.00  0.00    +0.102 HD
ENDBRANCH  25  26
ENDBRANCH  15  25
ENDBRANCH   2  15
TORSDOF 13
ENDMDL
MODEL 7
REMARK VINA RESULT:      -6.7      3.019      7.738
REMARK  Name = *****
REMARK                            x       y       z     vdW  Elec       q    Type
REMARK                         _______ _______ _______ _____ _____    ______ ____
ROOT
ATOM      1  C   UNK A  1       27.966 -20.790   7.749  0.00  0.00    +0.214 C 
ATOM      2  N   UNK A  1       28.909 -19.807   7.908  0.00  0.00    -0.303 N 
ATOM      3  H   UNK A  1       28.657 -18.926   8.352  0.00  0.00    +0.149 HD
ATOM      4  O   UNK A  1       28.239 -21.877   7.246  0.00  0.00    -0.276 OA
ENDROOT
BRANCH   1   5
ATOM      5  C   UNK A  1       26.594 -20.439   8.305  0.00  0.00    +0.098 C 
BRANCH   5   6
ATOM      6  C   UNK A  1       25.639 -21.635   8.449  0.00  0.00    +0.039 C 
BRANCH   6   7
ATOM      7  C   UNK A  1       24.609 -21.816   7.329  0.00  0.00    +0.161 C 
BRANCH   7   8
ATOM      8  N   UNK A  1       23.230 -21.546   7.837  0.00  0.00    -0.318 NA
ATOM      9  H   UNK A  1       22.890 -20.680   7.406  0.00  0.00    +0.119 HD
ATOM     10  H   UNK A  1       22.613 -22.272   7.464  0.00  0.00    +0.119 HD
ENDBRANCH   7   8
BRANCH   7  11
ATOM     11  C   UNK A  1       24.619 -23.232   6.696  0.00  0.00    +0.322 C 
ATOM     12  O   UNK A  1       23.814 -24.112   6.877  0.00  0.00    -0.249 OA
BRANCH  11  13
ATOM     13  O   UNK A  1       25.717 -23.375   5.896  0.00  0.00    -0.479 OA
ATOM     14  H   UNK A  1       25.396 -23.736   5.040  0.00  0.00    +0.295 HD
ENDBRANCH  11  13
ENDBRANCH   7  11
ENDBRANCH   6   7
ENDBRANCH   5   6
ENDBRANCH   1   5
BRANCH   2  15
ATOM     15  C   UNK A  1       30.288 -19.987   7.445  0.00  0.00    +0.168 C 
BRANCH  15  16
ATOM     16  C   UNK A  1       31.226 -19.473   8.541  0.00  0.00    +0.235 C 
ATOM     17  N   GLY A  2       31.222 -18.100   8.697  0.00  0.00    -0.303 N 
ATOM     18  H   GLY A  2       30.780 -17.509   7.996  0.00  0.00    +0.149 HD
ATOM     19  O   UNK A  1       31.929 -20.218   9.220  0.00  0.00    -0.274 OA
BRANCH  17  20
ATOM     20  CA  GLY A  2       31.897 -17.472   9.829  0.00  0.00    +0.224 C 
BRANCH  20  21
ATOM     21  C   GLY A  2       30.999 -17.417  11.054  0.00  0.00    +0.322 C 
ATOM     22  O   GLY A  2       30.791 -18.377  11.794  0.00  0.00    -0.249 OA
BRANCH  21  23
ATOM     23  OXT GLY A  2       30.380 -16.225  11.229  0.00  0.00    -0.479 OA
ATOM     24  HXT GLY A  2       30.373 -15.712  10.398  0.00  0.00    +0.295 HD
ENDBRANCH  21  23
ENDBRANCH  20  21
ENDBRANCH  17  20
ENDBRANCH  15  16
BRANCH  15  25
ATOM     25  C   UNK A  1       30.558 -19.277   6.110  0.00  0.00    +0.097 C 
BRANCH  25  26
ATOM     26  S   UNK A  1       29.100 -18.400   5.441  0.00  0.00    -0.176 S 
ATOM     27  H   UNK A  1       29.462 -18.457   4.146  0.00  0.00    +0.102 HD
ENDBRANCH  25  26
ENDBRANCH  15  25
ENDBRANCH   2  15
TORSDOF 13
ENDMDL
MODEL 8
REMARK VINA RESULT:      -6.6      2.860      7.145
REMARK  Name = *****
REMARK                            x       y       z     vdW  Elec       q    Type
REMARK                         _______ _______ _______ _____ _____    ______ ____
ROOT
ATOM      1  C   UNK A  1       25.523 -24.595   6.184  0.00  0.00    +0.214 C 
ATOM      2  N   UNK A  1       25.938 -23.699   7.136  0.00  0.00    -0.303 N 
ATOM      3  H   UNK A  1       26.338 -24.033   8.010  0.00  0.00    +0.149 HD
ATOM      4  O   UNK A  1       25.064 -24.231   5.104  0.00  0.00    -0.276 OA
ENDROOT
BRANCH   1   5
ATOM      5  C   UNK A  1       25.742 -26.053   6.557  0.00  0.00    +0.098 C 
BRANCH   5   6
ATOM      6  C   UNK A  1       24.582 -26.989   6.184  0.00  0.00    +0.039 C 
BRANCH   6   7
ATOM      7  C   UNK A  1       24.607 -28.383   6.821  0.00  0.00    +0.161 C 
BRANCH   7   8
ATOM      8  N   UNK A  1       25.872 -28.584   7.591  0.00  0.00    -0.318 NA
ATOM      9  H   UNK A  1       26.653 -28.234   7.026  0.00  0.00    +0.119 HD
ATOM     10  H   UNK A  1       25.846 -27.960   8.401  0.00  0.00    +0.119 HD
ENDBRANCH   7   8
BRANCH   7  11
ATOM     11  C   UNK A  1       24.482 -29.539   5.795  0.00  0.00    +0.322 C 
ATOM     12  O   UNK A  1       25.382 -30.179   5.310  0.00  0.00    -0.249 OA
BRANCH  11  13
ATOM     13  O   UNK A  1       23.168 -29.732   5.472  0.00  0.00    -0.479 OA
ATOM     14  H   UNK A  1       22.652 -29.077   5.992  0.00  0.00    +0.295 HD
ENDBRANCH  11  13
ENDBRANCH   7  11
ENDBRANCH   6   7
ENDBRANCH   5   6
ENDBRANCH   1   5
BRANCH   2  15
ATOM     15  C   UNK A  1       25.816 -22.253   6.929  0.00  0.00    +0.168 C 
BRANCH  15  16
ATOM     16  C   UNK A  1       27.063 -21.584   7.516  0.00  0.00    +0.235 C 
ATOM     17  N   GLY A  2       27.951 -21.104   6.572  0.00  0.00    -0.303 N 
ATOM     18  H   GLY A  2       27.849 -21.372   5.595  0.00  0.00    +0.149 HD
ATOM     19  O   UNK A  1       27.261 -21.486   8.725  0.00  0.00    -0.274 OA
BRANCH  17  20
ATOM     20  CA  GLY A  2       29.077 -20.260   6.961  0.00  0.00    +0.224 C 
BRANCH  20  21
ATOM     21  C   GLY A  2       29.268 -19.104   5.994  0.00  0.00    +0.322 C 
ATOM     22  O   GLY A  2       30.164 -18.267   6.098  0.00  0.00    -0.249 OA
BRANCH  21  23
ATOM     23  OXT GLY A  2       28.315 -19.025   5.035  0.00  0.00    -0.479 OA
ATOM     24  HXT GLY A  2       27.475 -19.412   5.347  0.00  0.00    +0.295 HD
ENDBRANCH  21  23
ENDBRANCH  20  21
ENDBRANCH  17  20
ENDBRANCH  15  16
BRANCH  15  25
ATOM     25  C   UNK A  1       24.536 -21.675   7.552  0.00  0.00    +0.097 C 
BRANCH  25  26
ATOM     26  S   UNK A  1       23.258 -21.236   6.320  0.00  0.00    -0.176 S 
ATOM     27  H   UNK A  1       23.748 -21.981   5.312  0.00  0.00    +0.102 HD
ENDBRANCH  25  26
ENDBRANCH  15  25
ENDBRANCH   2  15
TORSDOF 13
ENDMDL
MODEL 9
REMARK VINA RESULT:      -6.6      2.255      6.816
REMARK  Name = *****
REMARK                            x       y       z     vdW  Elec       q    Type
REMARK                         _______ _______ _______ _____ _____    ______ ____
ROOT
ATOM      1  C   UNK A  1       25.511 -24.230   6.355  0.00  0.00    +0.214 C 
ATOM      2  N   UNK A  1       25.883 -23.251   7.242  0.00  0.00    -0.303 N 
ATOM      3  H   UNK A  1       26.331 -23.504   8.120  0.00  0.00    +0.149 HD
ATOM      4  O   UNK A  1       24.997 -23.963   5.272  0.00  0.00    -0.276 OA
ENDROOT
BRANCH   1   5
ATOM      5  C   UNK A  1       25.852 -25.643   6.801  0.00  0.00    +0.098 C 
BRANCH   5   6
ATOM      6  C   UNK A  1       25.282 -26.751   5.902  0.00  0.00    +0.039 C 
BRANCH   6   7
ATOM      7  C   UNK A  1       24.792 -28.015   6.617  0.00  0.00    +0.161 C 
BRANCH   7   8
ATOM      8  N   UNK A  1       25.773 -28.440   7.662  0.00  0.00    -0.318 NA
ATOM      9  H   UNK A  1       25.275 -28.533   8.553  0.00  0.00    +0.119 HD
ATOM     10  H   UNK A  1       26.072 -29.392   7.439  0.00  0.00    +0.119 HD
ENDBRANCH   7   8
BRANCH   7  11
ATOM     11  C   UNK A  1       24.555 -29.217   5.665  0.00  0.00    +0.322 C 
ATOM     12  O   UNK A  1       25.396 -29.931   5.176  0.00  0.00    -0.249 OA
BRANCH  11  13
ATOM     13  O   UNK A  1       23.219 -29.354   5.415  0.00  0.00    -0.479 OA
ATOM     14  H   UNK A  1       22.797 -29.597   6.270  0.00  0.00    +0.295 HD
ENDBRANCH  11  13
ENDBRANCH   7  11
ENDBRANCH   6   7
ENDBRANCH   5   6
ENDBRANCH   1   5
BRANCH   2  15
ATOM     15  C   UNK A  1       25.645 -21.833   6.960  0.00  0.00    +0.168 C 
BRANCH  15  16
ATOM     16  C   UNK A  1       26.747 -21.021   7.647  0.00  0.00    +0.235 C 
ATOM     17  N   GLY A  2       27.921 -20.929   6.925  0.00  0.00    -0.303 N 
ATOM     18  H   GLY A  2       28.069 -21.528   6.114  0.00  0.00    +0.149 HD
ATOM     19  O   UNK A  1       26.603 -20.501   8.751  0.00  0.00    -0.274 OA
BRANCH  17  20
ATOM     20  CA  GLY A  2       28.989 -20.024   7.340  0.00  0.00    +0.224 C 
BRANCH  20  21
ATOM     21  C   GLY A  2       30.126 -20.772   8.015  0.00  0.00    +0.322 C 
ATOM     22  O   GLY A  2       29.968 -21.567   8.939  0.00  0.00    -0.249 OA
BRANCH  21  23
ATOM     23  OXT GLY A  2       31.355 -20.434   7.556  0.00  0.00    -0.479 OA
ATOM     24  HXT GLY A  2       31.797 -19.816   8.170  0.00  0.00    +0.295 HD
ENDBRANCH  21  23
ENDBRANCH  20  21
ENDBRANCH  17  20
ENDBRANCH  15  16
BRANCH  15  25
ATOM     25  C   UNK A  1       24.253 -21.368   7.415  0.00  0.00    +0.097 C 
BRANCH  25  26
ATOM     26  S   UNK A  1       23.222 -20.709   6.056  0.00  0.00    -0.176 S 
ATOM     27  H   UNK A  1       24.061 -19.726   5.685  0.00  0.00    +0.102 HD
ENDBRANCH  25  26
ENDBRANCH  15  25
ENDBRANCH   2  15
TORSDOF 13
ENDMDL
