MODEL 1
REMARK VINA RESULT:      -8.1      0.000      0.000
REMARK  Name = *****
REMARK                            x       y       z     vdW  Elec       q    Type
REMARK                         _______ _______ _______ _____ _____    ______ ____
ROOT
ATOM      1  C   LIG    1       25.455 -29.900   9.128  0.00  0.00    +0.231 A 
ATOM      2  C   LIG    1       24.917 -31.179   9.126  0.00  0.00    +0.264 A 
ATOM      3  N   LIG    1       24.874 -31.965   8.037  0.00  0.00    -0.187 NA
ATOM      4  C   LIG    1       25.150 -31.460   6.830  0.00  0.00    +0.203 A 
ATOM      5  N   LIG    1       25.473 -30.168   6.675  0.00  0.00    -0.204 NA
ATOM      6  C   LIG    1       25.655 -29.441   7.809  0.00  0.00    +0.188 A 
ENDROOT
BRANCH   4   7
ATOM      7  C   LIG    1       24.824 -32.351   5.667  0.00  0.00    +0.198 A 
ATOM      8  N   LIG    1       23.656 -33.056   5.743  0.00  0.00    -0.233 NA
ATOM      9  C   LIG    1       23.289 -33.766   4.661  0.00  0.00    +0.115 A 
ATOM     10  C   LIG    1       24.034 -33.825   3.513  0.00  0.00    +0.039 A 
ATOM     11  C   LIG    1       25.213 -33.114   3.538  0.00  0.00    +0.115 A 
ATOM     12  N   LIG    1       25.630 -32.372   4.586  0.00  0.00    -0.233 NA
ENDBRANCH   4   7
BRANCH   6  13
ATOM     13  N   LIG    1       25.910 -28.061   7.489  0.00  0.00    -0.196 N 
ATOM     14  H   LIG    1       26.885 -27.812   7.422  0.00  0.00    +0.175 HD
BRANCH  13  15
ATOM     15  S   LIG    1       25.005 -27.425   6.222  0.00  0.00    +0.074 S 
ATOM     16  O   LIG    1       23.685 -27.922   6.249  0.00  0.00    -0.150 OA
ATOM     17  O   LIG    1       25.842 -27.540   5.035  0.00  0.00    -0.150 OA
BRANCH  15  18
ATOM     18  C   LIG    1       24.934 -25.673   6.606  0.00  0.00    +0.109 A 
ATOM     19  C   LIG    1       26.076 -24.919   6.899  0.00  0.00    +0.029 A 
ATOM     20  C   LIG    1       25.998 -23.513   7.002  0.00  0.00    +0.006 A 
ATOM     21  C   LIG    1       24.776 -22.837   6.826  0.00  0.00    -0.042 A 
ATOM     22  C   LIG    1       23.646 -23.635   6.559  0.00  0.00    +0.006 A 
ATOM     23  C   LIG    1       23.712 -25.033   6.443  0.00  0.00    +0.029 A 
BRANCH  21  24
ATOM     24  C   LIG    1       24.648 -21.294   6.839  0.00  0.00    -0.013 C 
ATOM     25  C   LIG    1       23.199 -20.781   7.004  0.00  0.00    +0.015 C 
ATOM     26  C   LIG    1       25.178 -20.691   5.512  0.00  0.00    +0.015 C 
ATOM     27  C   LIG    1       25.474 -20.718   8.010  0.00  0.00    +0.015 C 
ENDBRANCH  21  24
ENDBRANCH  15  18
ENDBRANCH  13  15
ENDBRANCH   6  13
BRANCH   1  28
ATOM     28  O   LIG    1       26.187 -29.350  10.165  0.00  0.00    -0.444 OA
BRANCH  28  30
ATOM     29  C   LIG    1       24.721 -28.591  12.131  0.00  0.00    +0.162 A 
ATOM     30  C   LIG    1       25.869 -28.665  11.330  0.00  0.00    +0.170 A 
ATOM     31  C   LIG    1       26.892 -27.738  11.675  0.00  0.00    +0.050 A 
ATOM     32  C   LIG    1       26.765 -26.787  12.714  0.00  0.00    +0.004 A 
ATOM     33  C   LIG    1       25.571 -26.664  13.398  0.00  0.00    +0.004 A 
ATOM     34  C   LIG    1       24.560 -27.563  13.099  0.00  0.00    +0.049 A 
BRANCH  29  36
ATOM     35  C   LIG    1       22.826 -29.220  13.307  0.00  0.00    +0.277 C 
ATOM     36  O   LIG    1       23.650 -29.430  12.198  0.00  0.00    -0.491 OA
ENDBRANCH  29  36
ENDBRANCH  28  30
ENDBRANCH   1  28
BRANCH   2  37
ATOM     37  O   LIG    1       24.176 -31.664  10.185  0.00  0.00    -0.471 OA
BRANCH  37  38
ATOM     38  C   LIG    1       22.723 -31.599   9.956  0.00  0.00    +0.258 C 
BRANCH  38  39
ATOM     39  C   LIG    1       22.096 -32.994   9.799  0.00  0.00    +0.197 C 
BRANCH  39  40
ATOM     40  O   LIG    1       22.055 -33.365   8.426  0.00  0.00    -0.392 OA
ATOM     41  H   LIG    1       22.924 -33.771   8.250  0.00  0.00    +0.209 HD
ENDBRANCH  39  40
ENDBRANCH  38  39
ENDBRANCH  37  38
ENDBRANCH   2  37
TORSDOF 12
ENDMDL
MODEL 2
REMARK VINA RESULT:      -7.9      2.215      5.970
REMARK  Name = *****
REMARK                            x       y       z     vdW  Elec       q    Type
REMARK                         _______ _______ _______ _____ _____    ______ ____
ROOT
ATOM      1  C   LIG    1       25.212 -31.132   7.076  0.00  0.00    +0.231 A 
ATOM      2  C   LIG    1       24.634 -32.046   7.945  0.00  0.00    +0.264 A 
ATOM      3  N   LIG    1       23.807 -31.698   8.946  0.00  0.00    -0.187 NA
ATOM      4  C   LIG    1       23.678 -30.415   9.297  0.00  0.00    +0.203 A 
ATOM      5  N   LIG    1       24.361 -29.449   8.667  0.00  0.00    -0.204 NA
ATOM      6  C   LIG    1       25.067 -29.817   7.566  0.00  0.00    +0.188 A 
ENDROOT
BRANCH   4   7
ATOM      7  C   LIG    1       22.937 -30.169  10.580  0.00  0.00    +0.198 A 
ATOM      8  N   LIG    1       23.688 -29.815  11.663  0.00  0.00    -0.233 NA
ATOM      9  C   LIG    1       23.033 -29.474  12.788  0.00  0.00    +0.115 A 
ATOM     10  C   LIG    1       21.667 -29.485  12.894  0.00  0.00    +0.039 A 
ATOM     11  C   LIG    1       20.991 -29.889  11.764  0.00  0.00    +0.115 A 
ATOM     12  N   LIG    1       21.590 -30.230  10.603  0.00  0.00    -0.233 NA
ENDBRANCH   4   7
BRANCH   6  13
ATOM     13  N   LIG    1       25.816 -28.701   7.049  0.00  0.00    -0.196 N 
ATOM     14  H   LIG    1       26.797 -28.878   6.902  0.00  0.00    +0.175 HD
BRANCH  13  15
ATOM     15  S   LIG    1       25.117 -27.888   5.753  0.00  0.00    +0.074 S 
ATOM     16  O   LIG    1       23.797 -28.336   5.533  0.00  0.00    -0.150 OA
ATOM     17  O   LIG    1       26.114 -27.896   4.691  0.00  0.00    -0.150 OA
BRANCH  15  18
ATOM     18  C   LIG    1       25.027 -26.192   6.331  0.00  0.00    +0.109 A 
ATOM     19  C   LIG    1       26.161 -25.460   6.697  0.00  0.00    +0.029 A 
ATOM     20  C   LIG    1       26.066 -24.075   6.957  0.00  0.00    +0.006 A 
ATOM     21  C   LIG    1       24.834 -23.400   6.868  0.00  0.00    -0.042 A 
ATOM     22  C   LIG    1       23.712 -24.179   6.521  0.00  0.00    +0.006 A 
ATOM     23  C   LIG    1       23.795 -25.555   6.250  0.00  0.00    +0.029 A 
BRANCH  21  24
ATOM     24  C   LIG    1       24.686 -21.870   7.053  0.00  0.00    -0.013 C 
ATOM     25  C   LIG    1       25.119 -21.040   5.823  0.00  0.00    +0.015 C 
ATOM     26  C   LIG    1       25.551 -21.377   8.241  0.00  0.00    +0.015 C 
ATOM     27  C   LIG    1       23.208 -21.527   7.339  0.00  0.00    +0.015 C 
ENDBRANCH  21  24
ENDBRANCH  15  18
ENDBRANCH  13  15
ENDBRANCH   6  13
BRANCH   1  28
ATOM     28  O   LIG    1       25.413 -31.343   5.724  0.00  0.00    -0.444 OA
BRANCH  28  30
ATOM     29  C   LIG    1       27.245 -33.065   5.203  0.00  0.00    +0.162 A 
ATOM     30  C   LIG    1       26.103 -32.286   4.973  0.00  0.00    +0.170 A 
ATOM     31  C   LIG    1       25.609 -32.340   3.639  0.00  0.00    +0.050 A 
ATOM     32  C   LIG    1       26.226 -33.084   2.608  0.00  0.00    +0.004 A 
ATOM     33  C   LIG    1       27.420 -33.739   2.846  0.00  0.00    +0.004 A 
ATOM     34  C   LIG    1       27.920 -33.721   4.138  0.00  0.00    +0.049 A 
BRANCH  29  36
ATOM     35  C   LIG    1       29.177 -33.824   6.232  0.00  0.00    +0.277 C 
ATOM     36  O   LIG    1       27.860 -33.384   6.376  0.00  0.00    -0.491 OA
ENDBRANCH  29  36
ENDBRANCH  28  30
ENDBRANCH   1  28
BRANCH   2  37
ATOM     37  O   LIG    1       25.037 -33.365   7.997  0.00  0.00    -0.471 OA
BRANCH  37  38
ATOM     38  C   LIG    1       26.024 -33.630   9.057  0.00  0.00    +0.258 C 
BRANCH  38  39
ATOM     39  C   LIG    1       25.373 -33.731  10.446  0.00  0.00    +0.197 C 
BRANCH  39  40
ATOM     40  O   LIG    1       25.665 -32.569  11.214  0.00  0.00    -0.392 OA
ATOM     41  H   LIG    1       24.962 -32.532  11.889  0.00  0.00    +0.209 HD
ENDBRANCH  39  40
ENDBRANCH  38  39
ENDBRANCH  37  38
ENDBRANCH   2  37
TORSDOF 12
ENDMDL
MODEL 3
REMARK VINA RESULT:      -7.7      1.803      2.468
REMARK  Name = *****
REMARK                            x       y       z     vdW  Elec       q    Type
REMARK                         _______ _______ _______ _____ _____    ______ ____
ROOT
ATOM      1  C   LIG    1       24.273 -30.306   7.954  0.00  0.00    +0.231 A 
ATOM      2  C   LIG    1       24.356 -31.684   7.820  0.00  0.00    +0.264 A 
ATOM      3  N   LIG    1       25.067 -32.296   6.856  0.00  0.00    -0.187 NA
ATOM      4  C   LIG    1       25.554 -31.591   5.830  0.00  0.00    +0.203 A 
ATOM      5  N   LIG    1       25.350 -30.269   5.734  0.00  0.00    -0.204 NA
ATOM      6  C   LIG    1       24.762 -29.662   6.798  0.00  0.00    +0.188 A 
ENDROOT
BRANCH   4   7
ATOM      7  C   LIG    1       26.103 -32.403   4.692  0.00  0.00    +0.198 A 
ATOM      8  N   LIG    1       25.525 -32.215   3.470  0.00  0.00    -0.233 NA
ATOM      9  C   LIG    1       26.080 -32.843   2.417  0.00  0.00    +0.115 A 
ATOM     10  C   LIG    1       27.173 -33.665   2.524  0.00  0.00    +0.039 A 
ATOM     11  C   LIG    1       27.668 -33.825   3.799  0.00  0.00    +0.115 A 
ATOM     12  N   LIG    1       27.164 -33.212   4.891  0.00  0.00    -0.233 NA
ENDBRANCH   4   7
BRANCH   6  13
ATOM     13  N   LIG    1       24.529 -28.269   6.518  0.00  0.00    -0.196 N 
ATOM     14  H   LIG    1       23.814 -27.835   7.082  0.00  0.00    +0.175 HD
BRANCH  13  15
ATOM     15  S   LIG    1       25.903 -27.308   6.389  0.00  0.00    +0.074 S 
ATOM     16  O   LIG    1       26.465 -27.408   5.098  0.00  0.00    -0.150 OA
ATOM     17  O   LIG    1       26.688 -27.569   7.588  0.00  0.00    -0.150 OA
BRANCH  15  18
ATOM     18  C   LIG    1       25.260 -25.643   6.574  0.00  0.00    +0.109 A 
ATOM     19  C   LIG    1       26.074 -24.554   6.907  0.00  0.00    +0.029 A 
ATOM     20  C   LIG    1       25.566 -23.238   6.851  0.00  0.00    +0.006 A 
ATOM     21  C   LIG    1       24.234 -22.986   6.472  0.00  0.00    -0.042 A 
ATOM     22  C   LIG    1       23.442 -24.112   6.170  0.00  0.00    +0.006 A 
ATOM     23  C   LIG    1       23.937 -25.425   6.212  0.00  0.00    +0.029 A 
BRANCH  21  24
ATOM     24  C   LIG    1       23.651 -21.562   6.305  0.00  0.00    -0.013 C 
ATOM     25  C   LIG    1       22.329 -21.510   5.506  0.00  0.00    +0.015 C 
ATOM     26  C   LIG    1       24.653 -20.646   5.557  0.00  0.00    +0.015 C 
ATOM     27  C   LIG    1       23.368 -20.956   7.697  0.00  0.00    +0.015 C 
ENDBRANCH  21  24
ENDBRANCH  15  18
ENDBRANCH  13  15
ENDBRANCH   6  13
BRANCH   1  28
ATOM     28  O   LIG    1       24.249 -29.628   9.159  0.00  0.00    -0.444 OA
BRANCH  28  30
ATOM     29  C   LIG    1       22.307 -30.192  10.741  0.00  0.00    +0.162 A 
ATOM     30  C   LIG    1       23.608 -29.819  10.376  0.00  0.00    +0.170 A 
ATOM     31  C   LIG    1       24.428 -29.395  11.460  0.00  0.00    +0.050 A 
ATOM     32  C   LIG    1       23.974 -29.315  12.796  0.00  0.00    +0.004 A 
ATOM     33  C   LIG    1       22.649 -29.573  13.094  0.00  0.00    +0.004 A 
ATOM     34  C   LIG    1       21.829 -30.005  12.066  0.00  0.00    +0.049 A 
BRANCH  29  36
ATOM     35  C   LIG    1       20.077 -30.806  10.605  0.00  0.00    +0.277 C 
ATOM     36  O   LIG    1       21.339 -30.807  10.006  0.00  0.00    -0.491 OA
ENDBRANCH  29  36
ENDBRANCH  28  30
ENDBRANCH   1  28
BRANCH   2  37
ATOM     37  O   LIG    1       23.534 -32.541   8.524  0.00  0.00    -0.471 OA
BRANCH  37  38
ATOM     38  C   LIG    1       24.253 -33.678   9.122  0.00  0.00    +0.258 C 
BRANCH  38  39
ATOM     39  C   LIG    1       25.002 -33.282  10.405  0.00  0.00    +0.197 C 
BRANCH  39  40
ATOM     40  O   LIG    1       26.404 -33.456  10.232  0.00  0.00    -0.392 OA
ATOM     41  H   LIG    1       26.796 -32.603  10.495  0.00  0.00    +0.209 HD
ENDBRANCH  39  40
ENDBRANCH  38  39
ENDBRANCH  37  38
ENDBRANCH   2  37
TORSDOF 12
ENDMDL
MODEL 4
REMARK VINA RESULT:      -7.6      2.194      6.273
REMARK  Name = *****
REMARK                            x       y       z     vdW  Elec       q    Type
REMARK                         _______ _______ _______ _____ _____    ______ ____
ROOT
ATOM      1  C   LIG    1       25.617 -30.551   7.574  0.00  0.00    +0.231 A 
ATOM      2  C   LIG    1       25.567 -31.497   8.587  0.00  0.00    +0.264 A 
ATOM      3  N   LIG    1       25.374 -31.190   9.881  0.00  0.00    -0.187 NA
ATOM      4  C   LIG    1       25.445 -29.919  10.289  0.00  0.00    +0.203 A 
ATOM      5  N   LIG    1       25.708 -28.925   9.428  0.00  0.00    -0.204 NA
ATOM      6  C   LIG    1       25.746 -29.252   8.109  0.00  0.00    +0.188 A 
ENDROOT
BRANCH   4   7
ATOM      7  C   LIG    1       25.470 -29.719  11.777  0.00  0.00    +0.198 A 
ATOM      8  N   LIG    1       26.353 -30.485  12.483  0.00  0.00    -0.233 NA
ATOM      9  C   LIG    1       26.475 -30.236  13.800  0.00  0.00    +0.115 A 
ATOM     10  C   LIG    1       25.749 -29.274  14.453  0.00  0.00    +0.039 A 
ATOM     11  C   LIG    1       24.857 -28.576  13.670  0.00  0.00    +0.115 A 
ATOM     12  N   LIG    1       24.698 -28.769  12.344  0.00  0.00    -0.233 NA
ENDBRANCH   4   7
BRANCH   6  13
ATOM     13  N   LIG    1       26.123 -28.111   7.317  0.00  0.00    -0.196 N 
ATOM     14  H   LIG    1       27.024 -28.181   6.870  0.00  0.00    +0.175 HD
BRANCH  13  15
ATOM     15  S   LIG    1       24.943 -27.522   6.274  0.00  0.00    +0.074 S 
ATOM     16  O   LIG    1       23.675 -28.047   6.603  0.00  0.00    -0.150 OA
ATOM     17  O   LIG    1       25.496 -27.645   4.932  0.00  0.00    -0.150 OA
BRANCH  15  18
ATOM     18  C   LIG    1       24.913 -25.764   6.635  0.00  0.00    +0.109 A 
ATOM     19  C   LIG    1       26.068 -25.041   6.951  0.00  0.00    +0.029 A 
ATOM     20  C   LIG    1       26.029 -23.632   7.036  0.00  0.00    +0.006 A 
ATOM     21  C   LIG    1       24.834 -22.922   6.818  0.00  0.00    -0.042 A 
ATOM     22  C   LIG    1       23.688 -23.690   6.528  0.00  0.00    +0.006 A 
ATOM     23  C   LIG    1       23.715 -25.091   6.430  0.00  0.00    +0.029 A 
BRANCH  21  24
ATOM     24  C   LIG    1       24.752 -21.376   6.808  0.00  0.00    -0.013 C 
ATOM     25  C   LIG    1       25.296 -20.722   5.517  0.00  0.00    +0.015 C 
ATOM     26  C   LIG    1       25.569 -20.778   7.981  0.00  0.00    +0.015 C 
ATOM     27  C   LIG    1       23.278 -20.938   6.956  0.00  0.00    +0.015 C 
ENDBRANCH  21  24
ENDBRANCH  15  18
ENDBRANCH  13  15
ENDBRANCH   6  13
BRANCH   1  28
ATOM     28  O   LIG    1       25.093 -30.721   6.305  0.00  0.00    -0.444 OA
BRANCH  28  30
ATOM     29  C   LIG    1       25.371 -32.410   4.391  0.00  0.00    +0.162 A 
ATOM     30  C   LIG    1       24.779 -31.820   5.516  0.00  0.00    +0.170 A 
ATOM     31  C   LIG    1       23.500 -32.345   5.856  0.00  0.00    +0.050 A 
ATOM     32  C   LIG    1       22.849 -33.355   5.111  0.00  0.00    +0.004 A 
ATOM     33  C   LIG    1       23.411 -33.823   3.939  0.00  0.00    +0.004 A 
ATOM     34  C   LIG    1       24.664 -33.345   3.588  0.00  0.00    +0.049 A 
BRANCH  29  36
ATOM     35  C   LIG    1       26.935 -33.144   2.848  0.00  0.00    +0.277 C 
ATOM     36  O   LIG    1       26.637 -32.283   3.906  0.00  0.00    -0.491 OA
ENDBRANCH  29  36
ENDBRANCH  28  30
ENDBRANCH   1  28
BRANCH   2  37
ATOM     37  O   LIG    1       25.939 -32.811   8.382  0.00  0.00    -0.471 OA
BRANCH  37  38
ATOM     38  C   LIG    1       27.355 -33.070   8.693  0.00  0.00    +0.258 C 
BRANCH  38  39
ATOM     39  C   LIG    1       28.083 -33.779   7.540  0.00  0.00    +0.197 C 
BRANCH  39  40
ATOM     40  O   LIG    1       28.115 -32.943   6.388  0.00  0.00    -0.392 OA
ATOM     41  H   LIG    1       28.405 -32.073   6.719  0.00  0.00    +0.209 HD
ENDBRANCH  39  40
ENDBRANCH  38  39
ENDBRANCH  37  38
ENDBRANCH   2  37
TORSDOF 12
ENDMDL
MODEL 5
REMARK VINA RESULT:      -7.5      2.208      6.225
REMARK  Name = *****
REMARK                            x       y       z     vdW  Elec       q    Type
REMARK                         _______ _______ _______ _____ _____    ______ ____
ROOT
ATOM      1  C   LIG    1       25.958 -30.601   8.339  0.00  0.00    +0.231 A 
ATOM      2  C   LIG    1       26.036 -31.140   9.615  0.00  0.00    +0.264 A 
ATOM      3  N   LIG    1       25.904 -30.414  10.738  0.00  0.00    -0.187 NA
ATOM      4  C   LIG    1       25.913 -29.078  10.681  0.00  0.00    +0.203 A 
ATOM      5  N   LIG    1       26.053 -28.432   9.514  0.00  0.00    -0.204 NA
ATOM      6  C   LIG    1       26.031 -29.192   8.387  0.00  0.00    +0.188 A 
ENDROOT
BRANCH   4   7
ATOM      7  C   LIG    1       26.018 -28.377  12.004  0.00  0.00    +0.198 A 
ATOM      8  N   LIG    1       26.429 -27.075  11.977  0.00  0.00    -0.233 NA
ATOM      9  C   LIG    1       26.413 -26.395  13.139  0.00  0.00    +0.115 A 
ATOM     10  C   LIG    1       26.026 -26.952  14.330  0.00  0.00    +0.039 A 
ATOM     11  C   LIG    1       25.663 -28.279  14.270  0.00  0.00    +0.115 A 
ATOM     12  N   LIG    1       25.644 -29.010  13.135  0.00  0.00    -0.233 NA
ENDBRANCH   4   7
BRANCH   6  13
ATOM     13  N   LIG    1       26.279 -28.380   7.225  0.00  0.00    -0.196 N 
ATOM     14  H   LIG    1       27.071 -28.661   6.669  0.00  0.00    +0.175 HD
BRANCH  13  15
ATOM     15  S   LIG    1       24.935 -28.028   6.278  0.00  0.00    +0.074 S 
ATOM     16  O   LIG    1       23.756 -28.525   6.875  0.00  0.00    -0.150 OA
ATOM     17  O   LIG    1       25.305 -28.374   4.913  0.00  0.00    -0.150 OA
BRANCH  15  18
ATOM     18  C   LIG    1       24.854 -26.236   6.328  0.00  0.00    +0.109 A 
ATOM     19  C   LIG    1       23.649 -25.533   6.212  0.00  0.00    +0.029 A 
ATOM     20  C   LIG    1       23.607 -24.142   6.450  0.00  0.00    +0.006 A 
ATOM     21  C   LIG    1       24.768 -23.427   6.797  0.00  0.00    -0.042 A 
ATOM     22  C   LIG    1       25.964 -24.167   6.878  0.00  0.00    +0.006 A 
ATOM     23  C   LIG    1       26.018 -25.553   6.653  0.00  0.00    +0.029 A 
BRANCH  21  24
ATOM     24  C   LIG    1       24.764 -21.921   7.158  0.00  0.00    -0.013 C 
ATOM     25  C   LIG    1       25.269 -20.999   6.025  0.00  0.00    +0.015 C 
ATOM     26  C   LIG    1       25.675 -21.650   8.383  0.00  0.00    +0.015 C 
ATOM     27  C   LIG    1       23.325 -21.478   7.501  0.00  0.00    +0.015 C 
ENDBRANCH  21  24
ENDBRANCH  15  18
ENDBRANCH  13  15
ENDBRANCH   6  13
BRANCH   1  28
ATOM     28  O   LIG    1       25.368 -31.220   7.252  0.00  0.00    -0.444 OA
BRANCH  28  30
ATOM     29  C   LIG    1       26.878 -32.958   6.114  0.00  0.00    +0.162 A 
ATOM     30  C   LIG    1       25.824 -32.040   6.228  0.00  0.00    +0.170 A 
ATOM     31  C   LIG    1       25.153 -31.755   5.006  0.00  0.00    +0.050 A 
ATOM     32  C   LIG    1       25.526 -32.314   3.762  0.00  0.00    +0.004 A 
ATOM     33  C   LIG    1       26.647 -33.117   3.673  0.00  0.00    +0.004 A 
ATOM     34  C   LIG    1       27.313 -33.429   4.847  0.00  0.00    +0.049 A 
BRANCH  29  36
ATOM     35  C   LIG    1       28.932 -33.819   6.751  0.00  0.00    +0.277 C 
ATOM     36  O   LIG    1       27.597 -33.582   7.087  0.00  0.00    -0.491 OA
ENDBRANCH  29  36
ENDBRANCH  28  30
ENDBRANCH   1  28
BRANCH   2  37
ATOM     37  O   LIG    1       26.483 -32.427   9.840  0.00  0.00    -0.471 OA
BRANCH  37  38
ATOM     38  C   LIG    1       25.404 -33.429   9.824  0.00  0.00    +0.258 C 
BRANCH  38  39
ATOM     39  C   LIG    1       24.843 -33.701  11.229  0.00  0.00    +0.197 C 
BRANCH  39  40
ATOM     40  O   LIG    1       25.901 -33.781  12.177  0.00  0.00    -0.392 OA
ATOM     41  H   LIG    1       25.485 -33.575  13.034  0.00  0.00    +0.209 HD
ENDBRANCH  39  40
ENDBRANCH  38  39
ENDBRANCH  37  38
ENDBRANCH   2  37
TORSDOF 12
ENDMDL
MODEL 6
REMARK VINA RESULT:      -7.5      2.007      5.924
REMARK  Name = *****
REMARK                            x       y       z     vdW  Elec       q    Type
REMARK                         _______ _______ _______ _____ _____    ______ ____
ROOT
ATOM      1  C   LIG    1       25.414 -30.286   7.802  0.00  0.00    +0.231 A 
ATOM      2  C   LIG    1       25.448 -30.964   9.012  0.00  0.00    +0.264 A 
ATOM      3  N   LIG    1       25.565 -30.351  10.203  0.00  0.00    -0.187 NA
ATOM      4  C   LIG    1       25.884 -29.054  10.264  0.00  0.00    +0.203 A 
ATOM      5  N   LIG    1       26.093 -28.335   9.152  0.00  0.00    -0.204 NA
ATOM      6  C   LIG    1       25.818 -28.945   7.968  0.00  0.00    +0.188 A 
ENDROOT
BRANCH   4   7
ATOM      7  C   LIG    1       26.238 -28.541  11.630  0.00  0.00    +0.198 A 
ATOM      8  N   LIG    1       26.200 -29.445  12.653  0.00  0.00    -0.233 NA
ATOM      9  C   LIG    1       26.629 -29.034  13.860  0.00  0.00    +0.115 A 
ATOM     10  C   LIG    1       27.078 -27.762  14.105  0.00  0.00    +0.039 A 
ATOM     11  C   LIG    1       27.048 -26.908  13.025  0.00  0.00    +0.115 A 
ATOM     12  N   LIG    1       26.642 -27.264  11.787  0.00  0.00    -0.233 NA
ENDBRANCH   4   7
BRANCH   6  13
ATOM     13  N   LIG    1       26.172 -28.089   6.866  0.00  0.00    -0.196 N 
ATOM     14  H   LIG    1       26.876 -28.460   6.247  0.00  0.00    +0.175 HD
BRANCH  13  15
ATOM     15  S   LIG    1       24.884 -27.412   6.023  0.00  0.00    +0.074 S 
ATOM     16  O   LIG    1       23.657 -27.955   6.461  0.00  0.00    -0.150 OA
ATOM     17  O   LIG    1       25.270 -27.429   4.619  0.00  0.00    -0.150 OA
BRANCH  15  18
ATOM     18  C   LIG    1       24.925 -25.689   6.523  0.00  0.00    +0.109 A 
ATOM     19  C   LIG    1       26.120 -25.001   6.757  0.00  0.00    +0.029 A 
ATOM     20  C   LIG    1       26.114 -23.604   6.957  0.00  0.00    +0.006 A 
ATOM     21  C   LIG    1       24.913 -22.870   6.939  0.00  0.00    -0.042 A 
ATOM     22  C   LIG    1       23.729 -23.604   6.727  0.00  0.00    +0.006 A 
ATOM     23  C   LIG    1       23.722 -24.993   6.516  0.00  0.00    +0.029 A 
BRANCH  21  24
ATOM     24  C   LIG    1       24.856 -21.328   7.062  0.00  0.00    -0.013 C 
ATOM     25  C   LIG    1       25.531 -20.770   8.335  0.00  0.00    +0.015 C 
ATOM     26  C   LIG    1       23.386 -20.837   7.093  0.00  0.00    +0.015 C 
ATOM     27  C   LIG    1       25.567 -20.688   5.849  0.00  0.00    +0.015 C 
ENDBRANCH  21  24
ENDBRANCH  15  18
ENDBRANCH  13  15
ENDBRANCH   6  13
BRANCH   1  28
ATOM     28  O   LIG    1       24.624 -30.636   6.721  0.00  0.00    -0.444 OA
BRANCH  28  30
ATOM     29  C   LIG    1       23.972 -32.781   5.470  0.00  0.00    +0.162 A 
ATOM     30  C   LIG    1       24.694 -31.609   5.733  0.00  0.00    +0.170 A 
ATOM     31  C   LIG    1       25.848 -31.430   4.918  0.00  0.00    +0.050 A 
ATOM     32  C   LIG    1       26.266 -32.364   3.943  0.00  0.00    +0.004 A 
ATOM     33  C   LIG    1       25.597 -33.564   3.801  0.00  0.00    +0.004 A 
ATOM     34  C   LIG    1       24.460 -33.763   4.567  0.00  0.00    +0.049 A 
BRANCH  29  36
ATOM     35  C   LIG    1       22.746 -33.648   7.235  0.00  0.00    +0.277 C 
ATOM     36  O   LIG    1       22.747 -33.169   5.923  0.00  0.00    -0.491 OA
ENDBRANCH  29  36
ENDBRANCH  28  30
ENDBRANCH   1  28
BRANCH   2  37
ATOM     37  O   LIG    1       25.595 -32.335   9.081  0.00  0.00    -0.471 OA
BRANCH  37  38
ATOM     38  C   LIG    1       24.827 -32.948  10.178  0.00  0.00    +0.258 C 
BRANCH  38  39
ATOM     39  C   LIG    1       25.706 -33.825  11.083  0.00  0.00    +0.197 C 
BRANCH  39  40
ATOM     40  O   LIG    1       25.724 -33.305  12.408  0.00  0.00    -0.392 OA
ATOM     41  H   LIG    1       26.394 -33.837  12.876  0.00  0.00    +0.209 HD
ENDBRANCH  39  40
ENDBRANCH  38  39
ENDBRANCH  37  38
ENDBRANCH   2  37
TORSDOF 12
ENDMDL
MODEL 7
REMARK VINA RESULT:      -7.0      2.968      6.062
REMARK  Name = *****
REMARK                            x       y       z     vdW  Elec       q    Type
REMARK                         _______ _______ _______ _____ _____    ______ ____
ROOT
ATOM      1  C   LIG    1       24.562 -30.288   8.465  0.00  0.00    +0.231 A 
ATOM      2  C   LIG    1       24.308 -30.268   7.101  0.00  0.00    +0.264 A 
ATOM      3  N   LIG    1       24.858 -31.132   6.231  0.00  0.00    -0.187 NA
ATOM      4  C   LIG    1       25.865 -31.924   6.613  0.00  0.00    +0.203 A 
ATOM      5  N   LIG    1       26.350 -31.879   7.862  0.00  0.00    -0.204 NA
ATOM      6  C   LIG    1       25.674 -31.107   8.754  0.00  0.00    +0.188 A 
ENDROOT
BRANCH   4   7
ATOM      7  C   LIG    1       26.567 -32.656   5.505  0.00  0.00    +0.198 A 
ATOM      8  N   LIG    1       26.001 -32.579   4.265  0.00  0.00    -0.233 NA
ATOM      9  C   LIG    1       26.678 -33.126   3.239  0.00  0.00    +0.115 A 
ATOM     10  C   LIG    1       27.882 -33.763   3.389  0.00  0.00    +0.039 A 
ATOM     11  C   LIG    1       28.361 -33.825   4.678  0.00  0.00    +0.115 A 
ATOM     12  N   LIG    1       27.736 -33.284   5.746  0.00  0.00    -0.233 NA
ENDBRANCH   4   7
BRANCH   6  13
ATOM     13  N   LIG    1       26.356 -31.086  10.022  0.00  0.00    -0.196 N 
ATOM     14  H   LIG    1       26.909 -31.905  10.222  0.00  0.00    +0.175 HD
BRANCH  13  15
ATOM     15  S   LIG    1       27.176 -29.664  10.388  0.00  0.00    +0.074 S 
ATOM     16  O   LIG    1       27.150 -28.774   9.292  0.00  0.00    -0.150 OA
ATOM     17  O   LIG    1       28.427 -30.072  11.011  0.00  0.00    -0.150 OA
BRANCH  15  18
ATOM     18  C   LIG    1       26.185 -28.942  11.698  0.00  0.00    +0.109 A 
ATOM     19  C   LIG    1       26.218 -27.577  12.002  0.00  0.00    +0.029 A 
ATOM     20  C   LIG    1       25.284 -27.022  12.904  0.00  0.00    +0.006 A 
ATOM     21  C   LIG    1       24.308 -27.823  13.527  0.00  0.00    -0.042 A 
ATOM     22  C   LIG    1       24.327 -29.197  13.214  0.00  0.00    +0.006 A 
ATOM     23  C   LIG    1       25.244 -29.760  12.311  0.00  0.00    +0.029 A 
BRANCH  21  24
ATOM     24  C   LIG    1       23.204 -27.255  14.452  0.00  0.00    -0.013 C 
ATOM     25  C   LIG    1       23.702 -26.174  15.439  0.00  0.00    +0.015 C 
ATOM     26  C   LIG    1       22.581 -28.382  15.314  0.00  0.00    +0.015 C 
ATOM     27  C   LIG    1       22.093 -26.614  13.593  0.00  0.00    +0.015 C 
ENDBRANCH  21  24
ENDBRANCH  15  18
ENDBRANCH  13  15
ENDBRANCH   6  13
BRANCH   1  28
ATOM     28  O   LIG    1       23.624 -30.032   9.449  0.00  0.00    -0.444 OA
BRANCH  28  30
ATOM     29  C   LIG    1       22.217 -32.114   9.977  0.00  0.00    +0.162 A 
ATOM     30  C   LIG    1       22.638 -30.780  10.078  0.00  0.00    +0.170 A 
ATOM     31  C   LIG    1       21.799 -29.954  10.876  0.00  0.00    +0.050 A 
ATOM     32  C   LIG    1       20.614 -30.413  11.496  0.00  0.00    +0.004 A 
ATOM     33  C   LIG    1       20.169 -31.702  11.271  0.00  0.00    +0.004 A 
ATOM     34  C   LIG    1       20.971 -32.538  10.512  0.00  0.00    +0.049 A 
BRANCH  29  36
ATOM     35  C   LIG    1       22.595 -33.430   8.108  0.00  0.00    +0.277 C 
ATOM     36  O   LIG    1       22.864 -33.194   9.458  0.00  0.00    -0.491 OA
ENDBRANCH  29  36
ENDBRANCH  28  30
ENDBRANCH   1  28
BRANCH   2  37
ATOM     37  O   LIG    1       23.650 -29.218   6.493  0.00  0.00    -0.471 OA
BRANCH  37  38
ATOM     38  C   LIG    1       24.400 -28.634   5.369  0.00  0.00    +0.258 C 
BRANCH  38  39
ATOM     39  C   LIG    1       24.700 -27.141   5.584  0.00  0.00    +0.197 C 
BRANCH  39  40
ATOM     40  O   LIG    1       26.028 -26.840   5.168  0.00  0.00    -0.392 OA
ATOM     41  H   LIG    1       26.556 -27.615   5.437  0.00  0.00    +0.209 HD
ENDBRANCH  39  40
ENDBRANCH  38  39
ENDBRANCH  37  38
ENDBRANCH   2  37
TORSDOF 12
ENDMDL
MODEL 8
REMARK VINA RESULT:      -7.0      1.538      2.462
REMARK  Name = *****
REMARK                            x       y       z     vdW  Elec       q    Type
REMARK                         _______ _______ _______ _____ _____    ______ ____
ROOT
ATOM      1  C   LIG    1       24.475 -30.000   8.815  0.00  0.00    +0.231 A 
ATOM      2  C   LIG    1       24.303 -31.360   8.604  0.00  0.00    +0.264 A 
ATOM      3  N   LIG    1       25.025 -32.071   7.721  0.00  0.00    -0.187 NA
ATOM      4  C   LIG    1       25.802 -31.448   6.830  0.00  0.00    +0.203 A 
ATOM      5  N   LIG    1       25.883 -30.110   6.792  0.00  0.00    -0.204 NA
ATOM      6  C   LIG    1       25.263 -29.431   7.792  0.00  0.00    +0.188 A 
ENDROOT
BRANCH   4   7
ATOM      7  C   LIG    1       26.356 -32.317   5.738  0.00  0.00    +0.198 A 
ATOM      8  N   LIG    1       25.814 -32.159   4.494  0.00  0.00    -0.233 NA
ATOM      9  C   LIG    1       26.378 -32.842   3.480  0.00  0.00    +0.115 A 
ATOM     10  C   LIG    1       27.443 -33.688   3.645  0.00  0.00    +0.039 A 
ATOM     11  C   LIG    1       27.902 -33.814   4.937  0.00  0.00    +0.115 A 
ATOM     12  N   LIG    1       27.388 -33.147   5.993  0.00  0.00    -0.233 NA
ENDBRANCH   4   7
BRANCH   6  13
ATOM     13  N   LIG    1       25.359 -28.011   7.573  0.00  0.00    -0.196 N 
ATOM     14  H   LIG    1       26.163 -27.569   7.991  0.00  0.00    +0.175 HD
BRANCH  13  15
ATOM     15  S   LIG    1       25.103 -27.495   5.993  0.00  0.00    +0.074 S 
ATOM     16  O   LIG    1       23.892 -28.013   5.487  0.00  0.00    -0.150 OA
ATOM     17  O   LIG    1       26.368 -27.690   5.298  0.00  0.00    -0.150 OA
BRANCH  15  18
ATOM     18  C   LIG    1       24.905 -25.720   6.167  0.00  0.00    +0.109 A 
ATOM     19  C   LIG    1       23.673 -25.126   6.464  0.00  0.00    +0.029 A 
ATOM     20  C   LIG    1       23.601 -23.752   6.783  0.00  0.00    +0.006 A 
ATOM     21  C   LIG    1       24.754 -22.946   6.799  0.00  0.00    -0.042 A 
ATOM     22  C   LIG    1       25.969 -23.578   6.469  0.00  0.00    +0.006 A 
ATOM     23  C   LIG    1       26.057 -24.945   6.160  0.00  0.00    +0.029 A 
BRANCH  21  24
ATOM     24  C   LIG    1       24.747 -21.459   7.229  0.00  0.00    -0.013 C 
ATOM     25  C   LIG    1       25.310 -20.491   6.163  0.00  0.00    +0.015 C 
ATOM     26  C   LIG    1       25.603 -21.254   8.504  0.00  0.00    +0.015 C 
ATOM     27  C   LIG    1       23.298 -21.016   7.528  0.00  0.00    +0.015 C 
ENDBRANCH  21  24
ENDBRANCH  15  18
ENDBRANCH  13  15
ENDBRANCH   6  13
BRANCH   1  28
ATOM     28  O   LIG    1       24.391 -29.372  10.045  0.00  0.00    -0.444 OA
BRANCH  28  30
ATOM     29  C   LIG    1       26.297 -29.965  11.660  0.00  0.00    +0.162 A 
ATOM     30  C   LIG    1       25.020 -29.538  11.272  0.00  0.00    +0.170 A 
ATOM     31  C   LIG    1       24.099 -29.376  12.346  0.00  0.00    +0.050 A 
ATOM     32  C   LIG    1       24.418 -29.652  13.695  0.00  0.00    +0.004 A 
ATOM     33  C   LIG    1       25.649 -30.189  14.020  0.00  0.00    +0.004 A 
ATOM     34  C   LIG    1       26.575 -30.343  13.001  0.00  0.00    +0.049 A 
BRANCH  29  36
ATOM     35  C   LIG    1       28.593 -29.651  11.629  0.00  0.00    +0.277 C 
ATOM     36  O   LIG    1       27.447 -30.043  10.933  0.00  0.00    -0.491 OA
ENDBRANCH  29  36
ENDBRANCH  28  30
ENDBRANCH   1  28
BRANCH   2  37
ATOM     37  O   LIG    1       23.224 -32.051   9.117  0.00  0.00    -0.471 OA
BRANCH  37  38
ATOM     38  C   LIG    1       23.535 -33.451   9.452  0.00  0.00    +0.258 C 
BRANCH  38  39
ATOM     39  C   LIG    1       23.828 -33.638  10.950  0.00  0.00    +0.197 C 
BRANCH  39  40
ATOM     40  O   LIG    1       25.223 -33.502  11.200  0.00  0.00    -0.392 OA
ATOM     41  H   LIG    1       25.580 -33.073  10.401  0.00  0.00    +0.209 HD
ENDBRANCH  39  40
ENDBRANCH  38  39
ENDBRANCH  37  38
ENDBRANCH   2  37
TORSDOF 12
ENDMDL
MODEL 9
REMARK VINA RESULT:      -6.9      3.714      7.045
REMARK  Name = *****
REMARK                            x       y       z     vdW  Elec       q    Type
REMARK                         _______ _______ _______ _____ _____    ______ ____
ROOT
ATOM      1  C   LIG    1       25.597 -28.832  12.989  0.00  0.00    +0.231 A 
ATOM      2  C   LIG    1       26.458 -28.222  13.889  0.00  0.00    +0.264 A 
ATOM      3  N   LIG    1       27.785 -28.442  13.913  0.00  0.00    -0.187 NA
ATOM      4  C   LIG    1       28.314 -29.444  13.204  0.00  0.00    +0.203 A 
ATOM      5  N   LIG    1       27.545 -30.250  12.457  0.00  0.00    -0.204 NA
ATOM      6  C   LIG    1       26.236 -29.907  12.336  0.00  0.00    +0.188 A 
ENDROOT
BRANCH   4   7
ATOM      7  C   LIG    1       29.751 -29.757  13.503  0.00  0.00    +0.198 A 
ATOM      8  N   LIG    1       30.643 -29.573  12.485  0.00  0.00    -0.233 NA
ATOM      9  C   LIG    1       31.949 -29.732  12.768  0.00  0.00    +0.115 A 
ATOM     10  C   LIG    1       32.411 -30.083  14.010  0.00  0.00    +0.039 A 
ATOM     11  C   LIG    1       31.440 -30.282  14.966  0.00  0.00    +0.115 A 
ATOM     12  N   LIG    1       30.117 -30.126  14.748  0.00  0.00    -0.233 NA
ENDBRANCH   4   7
BRANCH   6  13
ATOM     13  N   LIG    1       25.520 -30.904  11.583  0.00  0.00    -0.196 N 
ATOM     14  H   LIG    1       24.520 -30.780  11.553  0.00  0.00    +0.175 HD
BRANCH  13  15
ATOM     15  S   LIG    1       26.157 -31.277  10.072  0.00  0.00    +0.074 S 
ATOM     16  O   LIG    1       25.425 -32.319   9.463  0.00  0.00    -0.150 OA
ATOM     17  O   LIG    1       27.599 -31.360  10.254  0.00  0.00    -0.150 OA
BRANCH  15  18
ATOM     18  C   LIG    1       25.866 -29.782   9.122  0.00  0.00    +0.109 A 
ATOM     19  C   LIG    1       26.636 -28.626   9.284  0.00  0.00    +0.029 A 
ATOM     20  C   LIG    1       26.501 -27.545   8.386  0.00  0.00    +0.006 A 
ATOM     21  C   LIG    1       25.587 -27.595   7.317  0.00  0.00    -0.042 A 
ATOM     22  C   LIG    1       24.812 -28.767   7.205  0.00  0.00    +0.006 A 
ATOM     23  C   LIG    1       24.944 -29.854   8.086  0.00  0.00    +0.029 A 
BRANCH  21  24
ATOM     24  C   LIG    1       25.461 -26.480   6.250  0.00  0.00    -0.013 C 
ATOM     25  C   LIG    1       25.930 -25.088   6.733  0.00  0.00    +0.015 C 
ATOM     26  C   LIG    1       23.987 -26.316   5.803  0.00  0.00    +0.015 C 
ATOM     27  C   LIG    1       26.317 -26.848   5.018  0.00  0.00    +0.015 C 
ENDBRANCH  21  24
ENDBRANCH  15  18
ENDBRANCH  13  15
ENDBRANCH   6  13
BRANCH   1  28
ATOM     28  O   LIG    1       24.507 -28.219  12.397  0.00  0.00    -0.444 OA
BRANCH  28  30
ATOM     29  C   LIG    1       22.026 -28.880  12.424  0.00  0.00    +0.162 A 
ATOM     30  C   LIG    1       23.159 -28.105  12.711  0.00  0.00    +0.170 A 
ATOM     31  C   LIG    1       22.880 -26.852  13.324  0.00  0.00    +0.050 A 
ATOM     32  C   LIG    1       21.571 -26.392  13.598  0.00  0.00    +0.004 A 
ATOM     33  C   LIG    1       20.478 -27.131  13.188  0.00  0.00    +0.004 A 
ATOM     34  C   LIG    1       20.714 -28.364  12.603  0.00  0.00    +0.049 A 
BRANCH  29  36
ATOM     35  C   LIG    1       22.224 -30.373  10.664  0.00  0.00    +0.277 C 
ATOM     36  O   LIG    1       21.938 -30.176  12.017  0.00  0.00    -0.491 OA
ENDBRANCH  29  36
ENDBRANCH  28  30
ENDBRANCH   1  28
BRANCH   2  37
ATOM     37  O   LIG    1       25.998 -27.516  14.982  0.00  0.00    -0.471 OA
BRANCH  37  38
ATOM     38  C   LIG    1       26.426 -26.107  14.986  0.00  0.00    +0.258 C 
BRANCH  38  39
ATOM     39  C   LIG    1       26.396 -25.486  13.580  0.00  0.00    +0.197 C 
BRANCH  39  40
ATOM     40  O   LIG    1       27.714 -25.147  13.163  0.00  0.00    -0.392 OA
ATOM     41  H   LIG    1       27.683 -24.187  12.995  0.00  0.00    +0.209 HD
ENDBRANCH  39  40
ENDBRANCH  38  39
ENDBRANCH  37  38
ENDBRANCH   2  37
TORSDOF 12
ENDMDL
