MODEL 1
REMARK VINA RESULT:     -10.2      0.000      0.000
REMARK  Name = *****
REMARK                            x       y       z     vdW  Elec       q    Type
REMARK                         _______ _______ _______ _____ _____    ______ ____
ROOT
ATOM      1  C   LIG    1       25.994 -19.368   4.716  0.00  0.00    +0.045 C 
ATOM      2  C   LIG    1       25.623 -20.687   5.336  0.00  0.00    -0.029 A 
ATOM      3  C   LIG    1       26.134 -21.130   6.572  0.00  0.00    +0.038 A 
ATOM      4  C   LIG    1       25.886 -22.462   6.954  0.00  0.00    +0.046 A 
ATOM      5  C   LIG    1       25.118 -23.324   6.147  0.00  0.00    +0.035 A 
ATOM      6  C   LIG    1       24.501 -22.812   5.021  0.00  0.00    +0.024 A 
ATOM      7  C   LIG    1       24.754 -21.511   4.610  0.00  0.00    +0.007 A 
ENDROOT
BRANCH   5   8
ATOM      8  N   LIG    1       25.041 -24.683   6.521  0.00  0.00    -0.281 N 
ATOM      9  H   LIG    1       24.944 -24.841   7.502  0.00  0.00    +0.155 HD
ATOM     10  C   LIG    1       25.260 -25.778   5.674  0.00  0.00    +0.248 C 
ATOM     11  O   LIG    1       25.558 -25.726   4.488  0.00  0.00    -0.270 OA
BRANCH  10  12
ATOM     12  C   LIG    1       25.157 -27.138   6.300  0.00  0.00    +0.037 A 
ATOM     13  C   LIG    1       24.378 -28.160   5.779  0.00  0.00    +0.013 A 
ATOM     14  C   LIG    1       24.243 -29.368   6.464  0.00  0.00    +0.006 A 
ATOM     15  C   LIG    1       24.903 -29.582   7.680  0.00  0.00    -0.033 A 
ATOM     16  C   LIG    1       25.746 -28.580   8.176  0.00  0.00    +0.006 A 
ATOM     17  C   LIG    1       25.877 -27.364   7.492  0.00  0.00    +0.013 A 
BRANCH  15  18
ATOM     18  C   LIG    1       24.676 -30.866   8.456  0.00  0.00    +0.119 C 
BRANCH  18  19
ATOM     19  N   LIG    1       23.268 -31.136   8.783  0.00  0.00    -0.296 NA
ATOM     20  C   LIG    1       22.957 -32.572   8.924  0.00  0.00    +0.100 C 
ATOM     21  C   LIG    1       23.393 -33.217  10.258  0.00  0.00    +0.099 C 
ATOM     22  N   LIG    1       22.894 -32.525  11.461  0.00  0.00    -0.303 NA
ATOM     23  C   LIG    1       21.458 -32.741  11.645  0.00  0.00    +0.105 C 
ATOM     24  C   LIG    1       23.221 -31.090  11.360  0.00  0.00    +0.099 C 
ATOM     25  C   LIG    1       22.858 -30.414  10.009  0.00  0.00    +0.100 C 
ENDBRANCH  18  19
ENDBRANCH  15  18
ENDBRANCH  10  12
ENDBRANCH   5   8
BRANCH   3  26
ATOM     26  N   LIG    1       26.930 -20.274   7.353  0.00  0.00    -0.283 N 
ATOM     27  H   LIG    1       26.429 -19.689   8.008  0.00  0.00    +0.155 HD
BRANCH  26  28
ATOM     28  C   LIG    1       28.269 -20.367   7.723  0.00  0.00    +0.220 A 
ATOM     29  N   LIG    1       28.911 -19.294   8.214  0.00  0.00    -0.214 NA
ATOM     30  C   LIG    1       30.188 -19.436   8.632  0.00  0.00    +0.077 A 
ATOM     31  C   LIG    1       30.840 -20.648   8.535  0.00  0.00    +0.048 A 
ATOM     32  C   LIG    1       30.113 -21.689   8.013  0.00  0.00    +0.116 A 
ATOM     33  N   LIG    1       28.833 -21.579   7.617  0.00  0.00    -0.223 NA
BRANCH  30  34
ATOM     34  C   LIG    1       30.807 -18.229   9.211  0.00  0.00    +0.019 A 
ATOM     35  C   LIG    1       31.907 -17.593   8.632  0.00  0.00    +0.120 A 
ATOM     36  N   LIG    1       32.527 -16.491   9.125  0.00  0.00    -0.263 NA
ATOM     37  C   LIG    1       32.025 -15.974  10.265  0.00  0.00    +0.111 A 
ATOM     38  C   LIG    1       30.936 -16.509  10.929  0.00  0.00    +0.020 A 
ATOM     39  C   LIG    1       30.325 -17.643  10.393  0.00  0.00    +0.013 A 
ENDBRANCH  30  34
ENDBRANCH  26  28
ENDBRANCH   3  26
TORSDOF 7
ENDMDL
MODEL 2
REMARK VINA RESULT:     -10.2      1.738      2.577
REMARK  Name = *****
REMARK                            x       y       z     vdW  Elec       q    Type
REMARK                         _______ _______ _______ _____ _____    ______ ____
ROOT
ATOM      1  C   LIG    1       23.447 -19.078   4.639  0.00  0.00    +0.045 C 
ATOM      2  C   LIG    1       23.789 -20.394   5.281  0.00  0.00    -0.029 A 
ATOM      3  C   LIG    1       25.043 -21.020   5.136  0.00  0.00    +0.038 A 
ATOM      4  C   LIG    1       25.183 -22.342   5.601  0.00  0.00    +0.046 A 
ATOM      5  C   LIG    1       24.116 -23.013   6.228  0.00  0.00    +0.035 A 
ATOM      6  C   LIG    1       22.952 -22.317   6.495  0.00  0.00    +0.024 A 
ATOM      7  C   LIG    1       22.782 -21.024   6.021  0.00  0.00    +0.007 A 
ENDROOT
BRANCH   5   8
ATOM      8  N   LIG    1       24.285 -24.383   6.529  0.00  0.00    -0.281 N 
ATOM      9  H   LIG    1       24.183 -24.613   7.495  0.00  0.00    +0.155 HD
ATOM     10  C   LIG    1       24.739 -25.366   5.638  0.00  0.00    +0.248 C 
ATOM     11  O   LIG    1       25.066 -25.189   4.472  0.00  0.00    -0.270 OA
BRANCH  10  12
ATOM     12  C   LIG    1       24.874 -26.755   6.189  0.00  0.00    +0.037 A 
ATOM     13  C   LIG    1       24.159 -27.840   5.705  0.00  0.00    +0.013 A 
ATOM     14  C   LIG    1       24.251 -29.085   6.328  0.00  0.00    +0.006 A 
ATOM     15  C   LIG    1       25.080 -29.271   7.441  0.00  0.00    -0.033 A 
ATOM     16  C   LIG    1       25.857 -28.197   7.891  0.00  0.00    +0.006 A 
ATOM     17  C   LIG    1       25.760 -26.945   7.271  0.00  0.00    +0.013 A 
BRANCH  15  18
ATOM     18  C   LIG    1       25.102 -30.608   8.160  0.00  0.00    +0.119 C 
BRANCH  18  19
ATOM     19  N   LIG    1       23.778 -31.095   8.576  0.00  0.00    -0.296 NA
ATOM     20  C   LIG    1       23.740 -32.545   8.850  0.00  0.00    +0.100 C 
ATOM     21  C   LIG    1       24.329 -32.978  10.211  0.00  0.00    +0.099 C 
ATOM     22  N   LIG    1       23.751 -32.280  11.374  0.00  0.00    -0.303 NA
ATOM     23  C   LIG    1       22.385 -32.733  11.645  0.00  0.00    +0.105 C 
ATOM     24  C   LIG    1       23.806 -30.825  11.139  0.00  0.00    +0.099 C 
ATOM     25  C   LIG    1       23.282 -30.351   9.755  0.00  0.00    +0.100 C 
ENDBRANCH  18  19
ENDBRANCH  15  18
ENDBRANCH  10  12
ENDBRANCH   5   8
BRANCH   3  26
ATOM     26  N   LIG    1       26.091 -20.355   4.476  0.00  0.00    -0.283 N 
ATOM     27  H   LIG    1       25.891 -20.057   3.531  0.00  0.00    +0.155 HD
BRANCH  26  28
ATOM     28  C   LIG    1       27.176 -19.645   4.982  0.00  0.00    +0.220 A 
ATOM     29  N   LIG    1       27.939 -20.176   5.952  0.00  0.00    -0.214 NA
ATOM     30  C   LIG    1       29.027 -19.493   6.371  0.00  0.00    +0.077 A 
ATOM     31  C   LIG    1       29.343 -18.260   5.839  0.00  0.00    +0.048 A 
ATOM     32  C   LIG    1       28.505 -17.788   4.859  0.00  0.00    +0.116 A 
ATOM     33  N   LIG    1       27.434 -18.462   4.407  0.00  0.00    -0.223 NA
BRANCH  30  34
ATOM     34  C   LIG    1       29.846 -20.165   7.396  0.00  0.00    +0.019 A 
ATOM     35  C   LIG    1       31.030 -19.618   7.895  0.00  0.00    +0.120 A 
ATOM     36  N   LIG    1       31.831 -20.195   8.826  0.00  0.00    -0.263 NA
ATOM     37  C   LIG    1       31.436 -21.391   9.306  0.00  0.00    +0.111 A 
ATOM     38  C   LIG    1       30.280 -22.032   8.898  0.00  0.00    +0.020 A 
ATOM     39  C   LIG    1       29.482 -21.409   7.938  0.00  0.00    +0.013 A 
ENDBRANCH  30  34
ENDBRANCH  26  28
ENDBRANCH   3  26
TORSDOF 7
ENDMDL
MODEL 3
REMARK VINA RESULT:      -9.3      2.440     11.053
REMARK  Name = *****
REMARK                            x       y       z     vdW  Elec       q    Type
REMARK                         _______ _______ _______ _____ _____    ______ ____
ROOT
ATOM      1  C   LIG    1       23.715 -31.664   7.004  0.00  0.00    +0.045 C 
ATOM      2  C   LIG    1       24.368 -30.321   6.828  0.00  0.00    -0.029 A 
ATOM      3  C   LIG    1       25.196 -29.731   7.805  0.00  0.00    +0.038 A 
ATOM      4  C   LIG    1       25.581 -28.388   7.625  0.00  0.00    +0.046 A 
ATOM      5  C   LIG    1       25.185 -27.660   6.488  0.00  0.00    +0.035 A 
ATOM      6  C   LIG    1       24.508 -28.314   5.476  0.00  0.00    +0.024 A 
ATOM      7  C   LIG    1       24.094 -29.628   5.643  0.00  0.00    +0.007 A 
ENDROOT
BRANCH   5   8
ATOM      8  N   LIG    1       25.482 -26.279   6.453  0.00  0.00    -0.281 N 
ATOM      9  H   LIG    1       26.442 -26.055   6.603  0.00  0.00    +0.155 HD
ATOM     10  C   LIG    1       24.540 -25.242   6.403  0.00  0.00    +0.248 C 
ATOM     11  O   LIG    1       23.323 -25.370   6.390  0.00  0.00    -0.270 OA
BRANCH  10  12
ATOM     12  C   LIG    1       25.086 -23.844   6.408  0.00  0.00    +0.037 A 
ATOM     13  C   LIG    1       24.824 -22.920   5.408  0.00  0.00    +0.013 A 
ATOM     14  C   LIG    1       25.445 -21.671   5.417  0.00  0.00    +0.006 A 
ATOM     15  C   LIG    1       26.329 -21.315   6.443  0.00  0.00    -0.033 A 
ATOM     16  C   LIG    1       26.543 -22.218   7.491  0.00  0.00    +0.006 A 
ATOM     17  C   LIG    1       25.926 -23.475   7.480  0.00  0.00    +0.013 A 
BRANCH  15  18
ATOM     18  C   LIG    1       27.063 -19.988   6.391  0.00  0.00    +0.119 C 
BRANCH  18  19
ATOM     19  N   LIG    1       28.464 -20.086   5.955  0.00  0.00    -0.296 NA
ATOM     20  C   LIG    1       29.157 -18.784   5.891  0.00  0.00    +0.100 C 
ATOM     21  C   LIG    1       29.618 -18.210   7.249  0.00  0.00    +0.099 C 
ATOM     22  N   LIG    1       30.451 -19.129   8.047  0.00  0.00    -0.303 NA
ATOM     23  C   LIG    1       31.791 -19.269   7.475  0.00  0.00    +0.105 C 
ATOM     24  C   LIG    1       29.765 -20.431   8.154  0.00  0.00    +0.099 C 
ATOM     25  C   LIG    1       29.228 -21.015   6.818  0.00  0.00    +0.100 C 
ENDBRANCH  18  19
ENDBRANCH  15  18
ENDBRANCH  10  12
ENDBRANCH   5   8
BRANCH   3  26
ATOM     26  N   LIG    1       25.555 -30.455   8.955  0.00  0.00    -0.283 N 
ATOM     27  H   LIG    1       26.233 -31.191   8.812  0.00  0.00    +0.155 HD
BRANCH  26  28
ATOM     28  C   LIG    1       25.509 -30.101  10.300  0.00  0.00    +0.220 A 
ATOM     29  N   LIG    1       24.447 -29.440  10.790  0.00  0.00    -0.214 NA
ATOM     30  C   LIG    1       24.400 -29.175  12.114  0.00  0.00    +0.077 A 
ATOM     31  C   LIG    1       25.430 -29.548  12.953  0.00  0.00    +0.048 A 
ATOM     32  C   LIG    1       26.481 -30.211  12.368  0.00  0.00    +0.116 A 
ATOM     33  N   LIG    1       26.536 -30.510  11.058  0.00  0.00    -0.223 NA
BRANCH  30  34
ATOM     34  C   LIG    1       23.178 -28.498  12.586  0.00  0.00    +0.019 A 
ATOM     35  C   LIG    1       21.905 -29.055  12.451  0.00  0.00    +0.120 A 
ATOM     36  N   LIG    1       20.746 -28.474  12.853  0.00  0.00    -0.263 NA
ATOM     37  C   LIG    1       20.848 -27.262  13.434  0.00  0.00    +0.111 A 
ATOM     38  C   LIG    1       22.051 -26.609  13.630  0.00  0.00    +0.020 A 
ATOM     39  C   LIG    1       23.222 -27.237  13.204  0.00  0.00    +0.013 A 
ENDBRANCH  30  34
ENDBRANCH  26  28
ENDBRANCH   3  26
TORSDOF 7
ENDMDL
MODEL 4
REMARK VINA RESULT:      -9.3      4.650     11.211
REMARK  Name = *****
REMARK                            x       y       z     vdW  Elec       q    Type
REMARK                         _______ _______ _______ _____ _____    ______ ____
ROOT
ATOM      1  C   LIG    1       23.891 -33.670   6.836  0.00  0.00    +0.045 C 
ATOM      2  C   LIG    1       24.305 -32.227   6.778  0.00  0.00    -0.029 A 
ATOM      3  C   LIG    1       24.102 -31.323   7.841  0.00  0.00    +0.038 A 
ATOM      4  C   LIG    1       24.334 -29.955   7.602  0.00  0.00    +0.046 A 
ATOM      5  C   LIG    1       24.791 -29.497   6.351  0.00  0.00    +0.035 A 
ATOM      6  C   LIG    1       25.130 -30.424   5.383  0.00  0.00    +0.024 A 
ATOM      7  C   LIG    1       24.883 -31.775   5.586  0.00  0.00    +0.007 A 
ENDROOT
BRANCH   5   8
ATOM      8  N   LIG    1       24.855 -28.102   6.142  0.00  0.00    -0.281 N 
ATOM      9  H   LIG    1       24.452 -27.790   5.284  0.00  0.00    +0.155 HD
ATOM     10  C   LIG    1       25.567 -27.189   6.932  0.00  0.00    +0.248 C 
ATOM     11  O   LIG    1       26.246 -27.458   7.913  0.00  0.00    -0.270 OA
BRANCH  10  12
ATOM     12  C   LIG    1       25.519 -25.752   6.500  0.00  0.00    +0.037 A 
ATOM     13  C   LIG    1       25.958 -24.703   7.292  0.00  0.00    +0.013 A 
ATOM     14  C   LIG    1       25.791 -23.382   6.875  0.00  0.00    +0.006 A 
ATOM     15  C   LIG    1       25.194 -23.088   5.643  0.00  0.00    -0.033 A 
ATOM     16  C   LIG    1       24.811 -24.145   4.809  0.00  0.00    +0.006 A 
ATOM     17  C   LIG    1       24.973 -25.471   5.229  0.00  0.00    +0.013 A 
BRANCH  15  18
ATOM     18  C   LIG    1       24.940 -21.645   5.244  0.00  0.00    +0.119 C 
BRANCH  18  19
ATOM     19  N   LIG    1       23.728 -21.444   4.437  0.00  0.00    -0.296 NA
ATOM     20  C   LIG    1       22.548 -21.043   5.228  0.00  0.00    +0.100 C 
ATOM     21  C   LIG    1       22.511 -19.559   5.658  0.00  0.00    +0.099 C 
ATOM     22  N   LIG    1       22.661 -18.600   4.547  0.00  0.00    -0.303 NA
ATOM     23  C   LIG    1       21.456 -18.552   3.717  0.00  0.00    +0.105 C 
ATOM     24  C   LIG    1       23.853 -18.960   3.757  0.00  0.00    +0.099 C 
ATOM     25  C   LIG    1       23.964 -20.458   3.358  0.00  0.00    +0.100 C 
ENDBRANCH  18  19
ENDBRANCH  15  18
ENDBRANCH  10  12
ENDBRANCH   5   8
BRANCH   3  26
ATOM     26  N   LIG    1       23.611 -31.784   9.074  0.00  0.00    -0.283 N 
ATOM     27  H   LIG    1       24.209 -32.435   9.566  0.00  0.00    +0.155 HD
BRANCH  26  28
ATOM     28  C   LIG    1       22.697 -31.215   9.957  0.00  0.00    +0.220 A 
ATOM     29  N   LIG    1       23.086 -30.247  10.803  0.00  0.00    -0.214 NA
ATOM     30  C   LIG    1       22.159 -29.665  11.595  0.00  0.00    +0.077 A 
ATOM     31  C   LIG    1       20.840 -30.068  11.564  0.00  0.00    +0.048 A 
ATOM     32  C   LIG    1       20.531 -31.070  10.677  0.00  0.00    +0.116 A 
ATOM     33  N   LIG    1       21.431 -31.643   9.859  0.00  0.00    -0.223 NA
BRANCH  30  34
ATOM     34  C   LIG    1       22.651 -28.573  12.455  0.00  0.00    +0.019 A 
ATOM     35  C   LIG    1       23.973 -28.496  12.896  0.00  0.00    +0.120 A 
ATOM     36  N   LIG    1       24.478 -27.525  13.699  0.00  0.00    -0.263 NA
ATOM     37  C   LIG    1       23.624 -26.558  14.089  0.00  0.00    +0.111 A 
ATOM     38  C   LIG    1       22.293 -26.520  13.714  0.00  0.00    +0.020 A 
ATOM     39  C   LIG    1       21.809 -27.535  12.889  0.00  0.00    +0.013 A 
ENDBRANCH  30  34
ENDBRANCH  26  28
ENDBRANCH   3  26
TORSDOF 7
ENDMDL
MODEL 5
REMARK VINA RESULT:      -9.1      2.816     10.475
REMARK  Name = *****
REMARK                            x       y       z     vdW  Elec       q    Type
REMARK                         _______ _______ _______ _____ _____    ______ ____
ROOT
ATOM      1  C   LIG    1       23.684 -31.612   6.981  0.00  0.00    +0.045 C 
ATOM      2  C   LIG    1       24.342 -30.271   6.815  0.00  0.00    -0.029 A 
ATOM      3  C   LIG    1       25.125 -29.667   7.819  0.00  0.00    +0.038 A 
ATOM      4  C   LIG    1       25.516 -28.326   7.639  0.00  0.00    +0.046 A 
ATOM      5  C   LIG    1       25.170 -27.613   6.476  0.00  0.00    +0.035 A 
ATOM      6  C   LIG    1       24.538 -28.281   5.445  0.00  0.00    +0.024 A 
ATOM      7  C   LIG    1       24.119 -29.594   5.610  0.00  0.00    +0.007 A 
ENDROOT
BRANCH   5   8
ATOM      8  N   LIG    1       25.466 -26.232   6.436  0.00  0.00    -0.281 N 
ATOM      9  H   LIG    1       26.432 -26.009   6.550  0.00  0.00    +0.155 HD
ATOM     10  C   LIG    1       24.523 -25.194   6.427  0.00  0.00    +0.248 C 
ATOM     11  O   LIG    1       23.307 -25.322   6.461  0.00  0.00    -0.270 OA
BRANCH  10  12
ATOM     12  C   LIG    1       25.070 -23.796   6.417  0.00  0.00    +0.037 A 
ATOM     13  C   LIG    1       24.784 -22.873   5.423  0.00  0.00    +0.013 A 
ATOM     14  C   LIG    1       25.406 -21.624   5.416  0.00  0.00    +0.006 A 
ATOM     15  C   LIG    1       26.316 -21.269   6.420  0.00  0.00    -0.033 A 
ATOM     16  C   LIG    1       26.555 -22.170   7.463  0.00  0.00    +0.006 A 
ATOM     17  C   LIG    1       25.937 -23.427   7.468  0.00  0.00    +0.013 A 
BRANCH  15  18
ATOM     18  C   LIG    1       27.049 -19.942   6.349  0.00  0.00    +0.119 C 
BRANCH  18  19
ATOM     19  N   LIG    1       28.450 -20.045   5.913  0.00  0.00    -0.296 NA
ATOM     20  C   LIG    1       29.151 -18.747   5.860  0.00  0.00    +0.100 C 
ATOM     21  C   LIG    1       29.614 -18.188   7.224  0.00  0.00    +0.099 C 
ATOM     22  N   LIG    1       30.440 -19.119   8.014  0.00  0.00    -0.303 NA
ATOM     23  C   LIG    1       31.780 -19.263   7.442  0.00  0.00    +0.105 C 
ATOM     24  C   LIG    1       29.746 -20.417   8.110  0.00  0.00    +0.099 C 
ATOM     25  C   LIG    1       29.206 -20.987   6.769  0.00  0.00    +0.100 C 
ENDBRANCH  18  19
ENDBRANCH  15  18
ENDBRANCH  10  12
ENDBRANCH   5   8
BRANCH   3  26
ATOM     26  N   LIG    1       25.435 -30.374   8.993  0.00  0.00    -0.283 N 
ATOM     27  H   LIG    1       26.302 -30.894   8.973  0.00  0.00    +0.155 HD
BRANCH  26  28
ATOM     28  C   LIG    1       25.030 -30.170  10.310  0.00  0.00    +0.220 A 
ATOM     29  N   LIG    1       25.348 -29.029  10.945  0.00  0.00    -0.214 NA
ATOM     30  C   LIG    1       24.879 -28.830  12.196  0.00  0.00    +0.077 A 
ATOM     31  C   LIG    1       24.111 -29.785  12.831  0.00  0.00    +0.048 A 
ATOM     32  C   LIG    1       23.842 -30.924  12.112  0.00  0.00    +0.116 A 
ATOM     33  N   LIG    1       24.274 -31.131  10.856  0.00  0.00    -0.223 NA
BRANCH  30  34
ATOM     34  C   LIG    1       25.222 -27.532  12.807  0.00  0.00    +0.019 A 
ATOM     35  C   LIG    1       26.483 -26.948  12.680  0.00  0.00    +0.120 A 
ATOM     36  N   LIG    1       26.860 -25.766  13.230  0.00  0.00    -0.263 NA
ATOM     37  C   LIG    1       25.928 -25.109  13.949  0.00  0.00    +0.111 A 
ATOM     38  C   LIG    1       24.643 -25.581  14.142  0.00  0.00    +0.020 A 
ATOM     39  C   LIG    1       24.291 -26.800  13.562  0.00  0.00    +0.013 A 
ENDBRANCH  30  34
ENDBRANCH  26  28
ENDBRANCH   3  26
TORSDOF 7
ENDMDL
MODEL 6
REMARK VINA RESULT:      -9.0      1.775      2.519
REMARK  Name = *****
REMARK                            x       y       z     vdW  Elec       q    Type
REMARK                         _______ _______ _______ _____ _____    ______ ____
ROOT
ATOM      1  C   LIG    1       26.199 -17.578   3.498  0.00  0.00    +0.045 C 
ATOM      2  C   LIG    1       25.866 -18.923   4.080  0.00  0.00    -0.029 A 
ATOM      3  C   LIG    1       26.732 -19.627   4.941  0.00  0.00    +0.038 A 
ATOM      4  C   LIG    1       26.414 -20.962   5.256  0.00  0.00    +0.046 A 
ATOM      5  C   LIG    1       25.248 -21.574   4.758  0.00  0.00    +0.035 A 
ATOM      6  C   LIG    1       24.343 -20.808   4.046  0.00  0.00    +0.024 A 
ATOM      7  C   LIG    1       24.648 -19.500   3.700  0.00  0.00    +0.007 A 
ENDROOT
BRANCH   5   8
ATOM      8  N   LIG    1       25.076 -22.956   4.992  0.00  0.00    -0.281 N 
ATOM      9  H   LIG    1       24.460 -23.414   4.354  0.00  0.00    +0.155 HD
ATOM     10  C   LIG    1       25.546 -23.660   6.109  0.00  0.00    +0.248 C 
ATOM     11  O   LIG    1       26.166 -23.188   7.053  0.00  0.00    -0.270 OA
BRANCH  10  12
ATOM     12  C   LIG    1       25.216 -25.123   6.164  0.00  0.00    +0.037 A 
ATOM     13  C   LIG    1       24.067 -25.667   5.610  0.00  0.00    +0.013 A 
ATOM     14  C   LIG    1       23.766 -27.017   5.785  0.00  0.00    +0.006 A 
ATOM     15  C   LIG    1       24.624 -27.857   6.506  0.00  0.00    -0.033 A 
ATOM     16  C   LIG    1       25.819 -27.329   7.008  0.00  0.00    +0.006 A 
ATOM     17  C   LIG    1       26.119 -25.972   6.839  0.00  0.00    +0.013 A 
BRANCH  15  18
ATOM     18  C   LIG    1       24.239 -29.302   6.762  0.00  0.00    +0.119 C 
BRANCH  18  19
ATOM     19  N   LIG    1       25.367 -30.178   7.112  0.00  0.00    -0.296 NA
ATOM     20  C   LIG    1       25.234 -30.813   8.438  0.00  0.00    +0.100 C 
ATOM     21  C   LIG    1       24.274 -32.021   8.502  0.00  0.00    +0.099 C 
ATOM     22  N   LIG    1       24.563 -33.081   7.517  0.00  0.00    -0.303 NA
ATOM     23  C   LIG    1       25.773 -33.825   7.872  0.00  0.00    +0.105 C 
ATOM     24  C   LIG    1       24.670 -32.476   6.176  0.00  0.00    +0.099 C 
ATOM     25  C   LIG    1       25.576 -31.218   6.080  0.00  0.00    +0.100 C 
ENDBRANCH  18  19
ENDBRANCH  15  18
ENDBRANCH  10  12
ENDBRANCH   5   8
BRANCH   3  26
ATOM     26  N   LIG    1       27.912 -19.021   5.404  0.00  0.00    -0.283 N 
ATOM     27  H   LIG    1       27.967 -18.019   5.276  0.00  0.00    +0.155 HD
BRANCH  26  28
ATOM     28  C   LIG    1       28.821 -19.429   6.377  0.00  0.00    +0.220 A 
ATOM     29  N   LIG    1       29.459 -18.518   7.131  0.00  0.00    -0.214 NA
ATOM     30  C   LIG    1       30.279 -18.948   8.114  0.00  0.00    +0.077 A 
ATOM     31  C   LIG    1       30.487 -20.295   8.332  0.00  0.00    +0.048 A 
ATOM     32  C   LIG    1       29.802 -21.156   7.510  0.00  0.00    +0.116 A 
ATOM     33  N   LIG    1       28.959 -20.751   6.544  0.00  0.00    -0.223 NA
BRANCH  30  34
ATOM     34  C   LIG    1       30.899 -17.892   8.935  0.00  0.00    +0.019 A 
ATOM     35  C   LIG    1       32.023 -17.175   8.519  0.00  0.00    +0.120 A 
ATOM     36  N   LIG    1       32.645 -16.204   9.235  0.00  0.00    -0.263 NA
ATOM     37  C   LIG    1       32.120 -15.914  10.443  0.00  0.00    +0.111 A 
ATOM     38  C   LIG    1       31.007 -16.549  10.962  0.00  0.00    +0.020 A 
ATOM     39  C   LIG    1       30.394 -17.542  10.198  0.00  0.00    +0.013 A 
ENDBRANCH  30  34
ENDBRANCH  26  28
ENDBRANCH   3  26
TORSDOF 7
ENDMDL
MODEL 7
REMARK VINA RESULT:      -8.9      2.934     10.895
REMARK  Name = *****
REMARK                            x       y       z     vdW  Elec       q    Type
REMARK                         _______ _______ _______ _____ _____    ______ ____
ROOT
ATOM      1  C   LIG    1       23.666 -29.353   6.147  0.00  0.00    +0.045 C 
ATOM      2  C   LIG    1       24.597 -28.173   6.174  0.00  0.00    -0.029 A 
ATOM      3  C   LIG    1       25.622 -28.021   7.128  0.00  0.00    +0.038 A 
ATOM      4  C   LIG    1       26.294 -26.784   7.190  0.00  0.00    +0.046 A 
ATOM      5  C   LIG    1       25.982 -25.737   6.302  0.00  0.00    +0.035 A 
ATOM      6  C   LIG    1       25.084 -25.974   5.278  0.00  0.00    +0.024 A 
ATOM      7  C   LIG    1       24.389 -27.173   5.215  0.00  0.00    +0.007 A 
ENDROOT
BRANCH   5   8
ATOM      8  N   LIG    1       26.589 -24.482   6.523  0.00  0.00    -0.281 N 
ATOM      9  H   LIG    1       27.563 -24.446   6.307  0.00  0.00    +0.155 HD
ATOM     10  C   LIG    1       25.992 -23.386   7.162  0.00  0.00    +0.248 C 
ATOM     11  O   LIG    1       24.863 -23.350   7.631  0.00  0.00    -0.270 OA
BRANCH  10  12
ATOM     12  C   LIG    1       26.842 -22.159   7.317  0.00  0.00    +0.037 A 
ATOM     13  C   LIG    1       28.109 -22.035   6.769  0.00  0.00    +0.013 A 
ATOM     14  C   LIG    1       28.891 -20.910   7.036  0.00  0.00    +0.006 A 
ATOM     15  C   LIG    1       28.407 -19.876   7.847  0.00  0.00    -0.033 A 
ATOM     16  C   LIG    1       27.103 -19.964   8.347  0.00  0.00    +0.006 A 
ATOM     17  C   LIG    1       26.320 -21.096   8.085  0.00  0.00    +0.013 A 
BRANCH  15  18
ATOM     18  C   LIG    1       29.302 -18.702   8.199  0.00  0.00    +0.119 C 
BRANCH  18  19
ATOM     19  N   LIG    1       30.292 -18.987   9.249  0.00  0.00    -0.296 NA
ATOM     20  C   LIG    1       31.685 -18.729   8.835  0.00  0.00    +0.100 C 
ATOM     21  C   LIG    1       32.112 -17.244   8.834  0.00  0.00    +0.099 C 
ATOM     22  N   LIG    1       31.879 -16.543  10.110  0.00  0.00    -0.303 NA
ATOM     23  C   LIG    1       32.827 -16.976  11.139  0.00  0.00    +0.105 C 
ATOM     24  C   LIG    1       30.482 -16.759  10.531  0.00  0.00    +0.099 C 
ATOM     25  C   LIG    1       29.990 -18.232  10.486  0.00  0.00    +0.100 C 
ENDBRANCH  18  19
ENDBRANCH  15  18
ENDBRANCH  10  12
ENDBRANCH   5   8
BRANCH   3  26
ATOM     26  N   LIG    1       25.902 -29.058   8.034  0.00  0.00    -0.283 N 
ATOM     27  H   LIG    1       26.740 -29.591   7.841  0.00  0.00    +0.155 HD
BRANCH  26  28
ATOM     28  C   LIG    1       25.521 -29.231   9.362  0.00  0.00    +0.220 A 
ATOM     29  N   LIG    1       26.171 -28.583  10.343  0.00  0.00    -0.214 NA
ATOM     30  C   LIG    1       25.731 -28.715  11.613  0.00  0.00    +0.077 A 
ATOM     31  C   LIG    1       24.651 -29.520  11.913  0.00  0.00    +0.048 A 
ATOM     32  C   LIG    1       24.051 -30.152  10.852  0.00  0.00    +0.116 A 
ATOM     33  N   LIG    1       24.454 -30.013   9.577  0.00  0.00    -0.223 NA
BRANCH  30  34
ATOM     34  C   LIG    1       26.460 -27.930  12.625  0.00  0.00    +0.019 A 
ATOM     35  C   LIG    1       27.325 -28.513  13.554  0.00  0.00    +0.120 A 
ATOM     36  N   LIG    1       28.010 -27.845  14.516  0.00  0.00    -0.263 NA
ATOM     37  C   LIG    1       27.838 -26.509  14.564  0.00  0.00    +0.111 A 
ATOM     38  C   LIG    1       27.015 -25.815  13.696  0.00  0.00    +0.020 A 
ATOM     39  C   LIG    1       26.325 -26.535  12.720  0.00  0.00    +0.013 A 
ENDBRANCH  30  34
ENDBRANCH  26  28
ENDBRANCH   3  26
TORSDOF 7
ENDMDL
MODEL 8
REMARK VINA RESULT:      -8.9      1.973     12.475
REMARK  Name = *****
REMARK                            x       y       z     vdW  Elec       q    Type
REMARK                         _______ _______ _______ _____ _____    ______ ____
ROOT
ATOM      1  C   LIG    1       23.705 -31.694   6.271  0.00  0.00    +0.045 C 
ATOM      2  C   LIG    1       24.375 -30.349   6.318  0.00  0.00    -0.029 A 
ATOM      3  C   LIG    1       24.753 -29.717   7.520  0.00  0.00    +0.038 A 
ATOM      4  C   LIG    1       25.178 -28.375   7.459  0.00  0.00    +0.046 A 
ATOM      5  C   LIG    1       25.260 -27.689   6.233  0.00  0.00    +0.035 A 
ATOM      6  C   LIG    1       25.034 -28.385   5.060  0.00  0.00    +0.024 A 
ATOM      7  C   LIG    1       24.587 -29.698   5.097  0.00  0.00    +0.007 A 
ENDROOT
BRANCH   5   8
ATOM      8  N   LIG    1       25.547 -26.307   6.269  0.00  0.00    -0.281 N 
ATOM      9  H   LIG    1       26.512 -26.084   6.392  0.00  0.00    +0.155 HD
ATOM     10  C   LIG    1       24.598 -25.276   6.319  0.00  0.00    +0.248 C 
ATOM     11  O   LIG    1       23.382 -25.414   6.350  0.00  0.00    -0.270 OA
BRANCH  10  12
ATOM     12  C   LIG    1       25.135 -23.876   6.386  0.00  0.00    +0.037 A 
ATOM     13  C   LIG    1       24.792 -22.884   5.480  0.00  0.00    +0.013 A 
ATOM     14  C   LIG    1       25.405 -21.632   5.534  0.00  0.00    +0.006 A 
ATOM     15  C   LIG    1       26.364 -21.344   6.513  0.00  0.00    -0.033 A 
ATOM     16  C   LIG    1       26.664 -22.318   7.472  0.00  0.00    +0.006 A 
ATOM     17  C   LIG    1       26.054 -23.578   7.415  0.00  0.00    +0.013 A 
BRANCH  15  18
ATOM     18  C   LIG    1       27.085 -20.008   6.503  0.00  0.00    +0.119 C 
BRANCH  18  19
ATOM     19  N   LIG    1       28.478 -20.074   6.036  0.00  0.00    -0.296 NA
ATOM     20  C   LIG    1       29.160 -18.765   6.021  0.00  0.00    +0.100 C 
ATOM     21  C   LIG    1       29.642 -18.252   7.395  0.00  0.00    +0.099 C 
ATOM     22  N   LIG    1       30.498 -19.201   8.133  0.00  0.00    -0.303 NA
ATOM     23  C   LIG    1       31.828 -19.303   7.529  0.00  0.00    +0.105 C 
ATOM     24  C   LIG    1       29.824 -20.512   8.191  0.00  0.00    +0.099 C 
ATOM     25  C   LIG    1       29.265 -21.037   6.840  0.00  0.00    +0.100 C 
ENDBRANCH  18  19
ENDBRANCH  15  18
ENDBRANCH  10  12
ENDBRANCH   5   8
BRANCH   3  26
ATOM     26  N   LIG    1       24.632 -30.398   8.743  0.00  0.00    -0.283 N 
ATOM     27  H   LIG    1       25.498 -30.738   9.140  0.00  0.00    +0.155 HD
BRANCH  26  28
ATOM     28  C   LIG    1       23.650 -30.329   9.727  0.00  0.00    +0.220 A 
ATOM     29  N   LIG    1       22.466 -30.938   9.545  0.00  0.00    -0.214 NA
ATOM     30  C   LIG    1       21.562 -30.913  10.548  0.00  0.00    +0.077 A 
ATOM     31  C   LIG    1       21.827 -30.255  11.732  0.00  0.00    +0.048 A 
ATOM     32  C   LIG    1       23.057 -29.652  11.830  0.00  0.00    +0.116 A 
ATOM     33  N   LIG    1       23.983 -29.688  10.856  0.00  0.00    -0.223 NA
BRANCH  30  34
ATOM     34  C   LIG    1       20.310 -31.650  10.296  0.00  0.00    +0.019 A 
ATOM     35  C   LIG    1       19.053 -31.046  10.354  0.00  0.00    +0.120 A 
ATOM     36  N   LIG    1       17.868 -31.674  10.146  0.00  0.00    -0.263 NA
ATOM     37  C   LIG    1       17.925 -32.989   9.854  0.00  0.00    +0.111 A 
ATOM     38  C   LIG    1       19.108 -33.699   9.762  0.00  0.00    +0.020 A 
ATOM     39  C   LIG    1       20.306 -33.020   9.983  0.00  0.00    +0.013 A 
ENDBRANCH  30  34
ENDBRANCH  26  28
ENDBRANCH   3  26
TORSDOF 7
ENDMDL
MODEL 9
REMARK VINA RESULT:      -8.9      4.802     11.121
REMARK  Name = *****
REMARK                            x       y       z     vdW  Elec       q    Type
REMARK                         _______ _______ _______ _____ _____    ______ ____
ROOT
ATOM      1  C   LIG    1       24.491 -33.805   7.457  0.00  0.00    +0.045 C 
ATOM      2  C   LIG    1       24.753 -32.339   7.252  0.00  0.00    -0.029 A 
ATOM      3  C   LIG    1       24.676 -31.389   8.290  0.00  0.00    +0.038 A 
ATOM      4  C   LIG    1       24.731 -30.024   7.947  0.00  0.00    +0.046 A 
ATOM      5  C   LIG    1       24.896 -29.612   6.611  0.00  0.00    +0.035 A 
ATOM      6  C   LIG    1       25.127 -30.568   5.640  0.00  0.00    +0.024 A 
ATOM      7  C   LIG    1       25.048 -31.918   5.949  0.00  0.00    +0.007 A 
ENDROOT
BRANCH   5   8
ATOM      8  N   LIG    1       24.791 -28.232   6.329  0.00  0.00    -0.281 N 
ATOM      9  H   LIG    1       24.112 -27.999   5.635  0.00  0.00    +0.155 HD
ATOM     10  C   LIG    1       25.653 -27.233   6.801  0.00  0.00    +0.248 C 
ATOM     11  O   LIG    1       26.630 -27.401   7.518  0.00  0.00    -0.270 OA
BRANCH  10  12
ATOM     12  C   LIG    1       25.368 -25.833   6.342  0.00  0.00    +0.037 A 
ATOM     13  C   LIG    1       24.954 -25.521   5.056  0.00  0.00    +0.013 A 
ATOM     14  C   LIG    1       24.805 -24.191   4.662  0.00  0.00    +0.006 A 
ATOM     15  C   LIG    1       25.052 -23.144   5.559  0.00  0.00    -0.033 A 
ATOM     16  C   LIG    1       25.404 -23.455   6.877  0.00  0.00    +0.006 A 
ATOM     17  C   LIG    1       25.560 -24.789   7.273  0.00  0.00    +0.013 A 
BRANCH  15  18
ATOM     18  C   LIG    1       24.972 -21.704   5.089  0.00  0.00    +0.119 C 
BRANCH  18  19
ATOM     19  N   LIG    1       23.787 -21.396   4.274  0.00  0.00    -0.296 NA
ATOM     20  C   LIG    1       22.589 -21.067   5.071  0.00  0.00    +0.100 C 
ATOM     21  C   LIG    1       22.557 -19.639   5.660  0.00  0.00    +0.099 C 
ATOM     22  N   LIG    1       22.751 -18.566   4.666  0.00  0.00    -0.303 NA
ATOM     23  C   LIG    1       21.572 -18.409   3.812  0.00  0.00    +0.105 C 
ATOM     24  C   LIG    1       23.962 -18.856   3.876  0.00  0.00    +0.099 C 
ATOM     25  C   LIG    1       24.067 -20.302   3.318  0.00  0.00    +0.100 C 
ENDBRANCH  18  19
ENDBRANCH  15  18
ENDBRANCH  10  12
ENDBRANCH   5   8
BRANCH   3  26
ATOM     26  N   LIG    1       24.474 -31.809   9.616  0.00  0.00    -0.283 N 
ATOM     27  H   LIG    1       24.505 -32.808   9.766  0.00  0.00    +0.155 HD
BRANCH  26  28
ATOM     28  C   LIG    1       24.671 -31.138  10.820  0.00  0.00    +0.220 A 
ATOM     29  N   LIG    1       23.835 -30.154  11.192  0.00  0.00    -0.214 NA
ATOM     30  C   LIG    1       24.010 -29.573  12.398  0.00  0.00    +0.077 A 
ATOM     31  C   LIG    1       25.043 -29.955  13.231  0.00  0.00    +0.048 A 
ATOM     32  C   LIG    1       25.855 -30.961  12.769  0.00  0.00    +0.116 A 
ATOM     33  N   LIG    1       25.682 -31.573  11.585  0.00  0.00    -0.223 NA
BRANCH  30  34
ATOM     34  C   LIG    1       23.021 -28.542  12.759  0.00  0.00    +0.019 A 
ATOM     35  C   LIG    1       21.646 -28.727  12.602  0.00  0.00    +0.120 A 
ATOM     36  N   LIG    1       20.690 -27.811  12.903  0.00  0.00    -0.263 NA
ATOM     37  C   LIG    1       21.117 -26.633  13.399  0.00  0.00    +0.111 A 
ATOM     38  C   LIG    1       22.450 -26.332  13.607  0.00  0.00    +0.020 A 
ATOM     39  C   LIG    1       23.405 -27.297  13.286  0.00  0.00    +0.013 A 
ENDBRANCH  30  34
ENDBRANCH  26  28
ENDBRANCH   3  26
TORSDOF 7
ENDMDL
