MODEL 1
REMARK VINA RESULT:      -5.8      0.000      0.000
REMARK  Name = *****
REMARK                            x       y       z     vdW  Elec       q    Type
REMARK                         _______ _______ _______ _____ _____    ______ ____
ROOT
ATOM      1  C   LIG    1       19.642 -26.358  13.340  0.00  0.00    +0.013 C 
ATOM      2  C   LIG    1       20.210 -27.671  13.923  0.00  0.00    +0.027 C 
ATOM      3  C   LIG    1       21.514 -28.042  13.162  0.00  0.00    +0.062 C 
ATOM      4  C   LIG    1       21.596 -29.439  12.624  0.00  0.00    +0.046 C 
ATOM      5  C   LIG    1       22.775 -30.050  12.387  0.00  0.00    +0.141 C 
ATOM      6  C   LIG    1       24.110 -29.418  12.694  0.00  0.00    +0.192 C 
ATOM      7  C   LIG    1       24.049 -27.945  13.154  0.00  0.00    +0.090 C 
ATOM      8  C   LIG    1       25.430 -27.580  13.792  0.00  0.00    +0.132 C 
ATOM      9  C   LIG    1       26.588 -28.022  12.861  0.00  0.00    +0.127 C 
ATOM     10  C   LIG    1       26.424 -28.823  11.780  0.00  0.00    +0.120 C 
ATOM     11  C   LIG    1       25.058 -29.347  11.479  0.00  0.00    +0.211 C 
ATOM     12  O   LIG    1       24.719 -29.577  10.321  0.00  0.00    -0.288 OA
ATOM     13  C   LIG    1       20.349 -30.199  12.343  0.00  0.00    +0.197 C 
ATOM     14  O   LIG    1       20.364 -31.062  11.476  0.00  0.00    -0.287 OA
ATOM     15  C   LIG    1       19.162 -29.901  13.183  0.00  0.00    +0.067 A 
ATOM     16  C   LIG    1       18.089 -30.812  13.252  0.00  0.00    +0.128 A 
ATOM     17  C   LIG    1       16.975 -30.556  14.055  0.00  0.00    +0.046 A 
ATOM     18  C   LIG    1       16.928 -29.395  14.814  0.00  0.00    +0.004 A 
ATOM     19  C   LIG    1       17.990 -28.494  14.767  0.00  0.00    +0.005 A 
ATOM     20  C   LIG    1       22.789 -27.695  14.004  0.00  0.00    +0.131 C 
ATOM     21  C   LIG    1       19.115 -28.723  13.944  0.00  0.00    -0.030 A 
ENDROOT
BRANCH   8  22
ATOM     22  N   LIG    1       25.455 -26.164  14.259  0.00  0.00    -0.298 NA
ATOM     23  C   LIG    1       25.903 -25.200  13.250  0.00  0.00    +0.105 C 
ATOM     24  C   LIG    1       26.251 -25.994  15.484  0.00  0.00    +0.105 C 
ENDBRANCH   8  22
BRANCH  10  25
ATOM     25  C   LIG    1       27.584 -29.171  10.950  0.00  0.00    +0.219 C 
ATOM     26  N   LIG    1       28.678 -29.700  11.375  0.00  0.00    -0.267 NA
ATOM     27  H   LIG    1       29.340 -29.839  10.608  0.00  0.00    +0.190 HD
BRANCH  25  28
ATOM     28  O   LIG    1       27.400 -28.950   9.647  0.00  0.00    -0.492 OA
ATOM     29  H   LIG    1       26.741 -28.266   9.468  0.00  0.00    +0.294 HD
ENDBRANCH  25  28
ENDBRANCH  10  25
BRANCH   5  30
ATOM     30  O   LIG    1       22.873 -31.374  11.970  0.00  0.00    -0.507 OA
ATOM     31  H   LIG    1       22.578 -31.414  11.028  0.00  0.00    +0.292 HD
ENDBRANCH   5  30
BRANCH   6  32
ATOM     32  O   LIG    1       24.674 -30.248  13.717  0.00  0.00    -0.373 OA
ATOM     33  H   LIG    1       25.636 -30.051  13.703  0.00  0.00    +0.211 HD
ENDBRANCH   6  32
BRANCH   9  34
ATOM     34  O   LIG    1       27.847 -27.548  13.229  0.00  0.00    -0.509 OA
ATOM     35  H   LIG    1       28.130 -28.014  14.050  0.00  0.00    +0.292 HD
ENDBRANCH   9  34
BRANCH  16  36
ATOM     36  O   LIG    1       18.122 -31.993  12.562  0.00  0.00    -0.506 OA
ATOM     37  H   LIG    1       17.595 -32.665  13.020  0.00  0.00    +0.292 HD
ENDBRANCH  16  36
BRANCH  20  38
ATOM     38  O   LIG    1       22.701 -26.322  14.392  0.00  0.00    -0.391 OA
ATOM     39  H   LIG    1       22.036 -25.902  13.802  0.00  0.00    +0.210 HD
ENDBRANCH  20  38
TORSDOF 8
ENDMDL
MODEL 2
REMARK VINA RESULT:      -5.8      2.064      2.792
REMARK  Name = *****
REMARK                            x       y       z     vdW  Elec       q    Type
REMARK                         _______ _______ _______ _____ _____    ______ ____
ROOT
ATOM      1  C   LIG    1       20.934 -27.289  13.329  0.00  0.00    +0.013 C 
ATOM      2  C   LIG    1       21.137 -28.819  13.387  0.00  0.00    +0.027 C 
ATOM      3  C   LIG    1       21.945 -29.272  12.138  0.00  0.00    +0.062 C 
ATOM      4  C   LIG    1       21.365 -30.404  11.344  0.00  0.00    +0.046 C 
ATOM      5  C   LIG    1       22.126 -31.203  10.568  0.00  0.00    +0.141 C 
ATOM      6  C   LIG    1       23.627 -31.077  10.476  0.00  0.00    +0.192 C 
ATOM      7  C   LIG    1       24.231 -29.859  11.207  0.00  0.00    +0.090 C 
ATOM      8  C   LIG    1       25.772 -30.092  11.343  0.00  0.00    +0.132 C 
ATOM      9  C   LIG    1       26.376 -30.517   9.981  0.00  0.00    +0.127 C 
ATOM     10  C   LIG    1       25.634 -30.870   8.903  0.00  0.00    +0.120 C 
ATOM     11  C   LIG    1       24.147 -30.891   9.034  0.00  0.00    +0.211 C 
ATOM     12  O   LIG    1       23.431 -30.652   8.065  0.00  0.00    -0.288 OA
ATOM     13  C   LIG    1       19.904 -30.677  11.402  0.00  0.00    +0.197 C 
ATOM     14  O   LIG    1       19.360 -31.201  10.440  0.00  0.00    -0.287 OA
ATOM     15  C   LIG    1       19.196 -30.346  12.665  0.00  0.00    +0.067 A 
ATOM     16  C   LIG    1       17.937 -30.913  12.947  0.00  0.00    +0.128 A 
ATOM     17  C   LIG    1       17.269 -30.629  14.140  0.00  0.00    +0.046 A 
ATOM     18  C   LIG    1       17.860 -29.791  15.075  0.00  0.00    +0.004 A 
ATOM     19  C   LIG    1       19.112 -29.238  14.815  0.00  0.00    +0.005 A 
ATOM     20  C   LIG    1       23.444 -29.556  12.496  0.00  0.00    +0.131 C 
ATOM     21  C   LIG    1       19.794 -29.493  13.606  0.00  0.00    -0.030 A 
ENDROOT
BRANCH   8  22
ATOM     22  N   LIG    1       26.434 -28.950  12.037  0.00  0.00    -0.298 NA
ATOM     23  C   LIG    1       26.856 -27.862  11.150  0.00  0.00    +0.105 C 
ATOM     24  C   LIG    1       27.575 -29.382  12.858  0.00  0.00    +0.105 C 
ENDBRANCH   8  22
BRANCH  10  25
ATOM     25  C   LIG    1       26.303 -31.242   7.650  0.00  0.00    +0.219 C 
ATOM     26  N   LIG    1       27.167 -32.186   7.513  0.00  0.00    -0.267 NA
ATOM     27  H   LIG    1       27.496 -32.244   6.546  0.00  0.00    +0.190 HD
BRANCH  25  28
ATOM     28  O   LIG    1       25.889 -30.543   6.591  0.00  0.00    -0.492 OA
ATOM     29  H   LIG    1       24.949 -30.325   6.624  0.00  0.00    +0.294 HD
ENDBRANCH  25  28
ENDBRANCH  10  25
BRANCH   5  30
ATOM     30  O   LIG    1       21.621 -32.309   9.893  0.00  0.00    -0.507 OA
ATOM     31  H   LIG    1       20.761 -32.042   9.484  0.00  0.00    +0.292 HD
ENDBRANCH   5  30
BRANCH   6  32
ATOM     32  O   LIG    1       24.125 -32.302  11.029  0.00  0.00    -0.373 OA
ATOM     33  H   LIG    1       23.590 -32.452  11.838  0.00  0.00    +0.211 HD
ENDBRANCH   6  32
BRANCH   9  34
ATOM     34  O   LIG    1       27.770 -30.535   9.940  0.00  0.00    -0.509 OA
ATOM     35  H   LIG    1       28.085 -31.378  10.340  0.00  0.00    +0.292 HD
ENDBRANCH   9  34
BRANCH  16  36
ATOM     36  O   LIG    1       17.347 -31.786  12.075  0.00  0.00    -0.506 OA
ATOM     37  H   LIG    1       16.419 -31.543  11.932  0.00  0.00    +0.292 HD
ENDBRANCH  16  36
BRANCH  20  38
ATOM     38  O   LIG    1       23.968 -28.399  13.152  0.00  0.00    -0.391 OA
ATOM     39  H   LIG    1       23.260 -27.717  13.133  0.00  0.00    +0.210 HD
ENDBRANCH  20  38
TORSDOF 8
ENDMDL
MODEL 3
REMARK VINA RESULT:      -5.2      3.674      6.747
REMARK  Name = *****
REMARK                            x       y       z     vdW  Elec       q    Type
REMARK                         _______ _______ _______ _____ _____    ______ ____
ROOT
ATOM      1  C   LIG    1       24.048 -29.142  15.082  0.00  0.00    +0.013 C 
ATOM      2  C   LIG    1       24.034 -28.373  13.742  0.00  0.00    +0.027 C 
ATOM      3  C   LIG    1       24.604 -29.290  12.624  0.00  0.00    +0.062 C 
ATOM      4  C   LIG    1       25.695 -28.707  11.776  0.00  0.00    +0.046 C 
ATOM      5  C   LIG    1       25.948 -29.147  10.526  0.00  0.00    +0.141 C 
ATOM      6  C   LIG    1       25.126 -30.213   9.844  0.00  0.00    +0.192 C 
ATOM      7  C   LIG    1       24.063 -30.893  10.734  0.00  0.00    +0.090 C 
ATOM      8  C   LIG    1       23.069 -31.660   9.800  0.00  0.00    +0.132 C 
ATOM      9  C   LIG    1       23.849 -32.525   8.776  0.00  0.00    +0.127 C 
ATOM     10  C   LIG    1       25.185 -32.431   8.571  0.00  0.00    +0.120 C 
ATOM     11  C   LIG    1       25.958 -31.413   9.343  0.00  0.00    +0.211 C 
ATOM     12  O   LIG    1       27.133 -31.612   9.638  0.00  0.00    -0.288 OA
ATOM     13  C   LIG    1       26.536 -27.601  12.309  0.00  0.00    +0.197 C 
ATOM     14  O   LIG    1       27.680 -27.474  11.894  0.00  0.00    -0.287 OA
ATOM     15  C   LIG    1       25.907 -26.671  13.280  0.00  0.00    +0.067 A 
ATOM     16  C   LIG    1       26.478 -25.407  13.530  0.00  0.00    +0.128 A 
ATOM     17  C   LIG    1       25.887 -24.512  14.424  0.00  0.00    +0.046 A 
ATOM     18  C   LIG    1       24.706 -24.860  15.064  0.00  0.00    +0.004 A 
ATOM     19  C   LIG    1       24.122 -26.100  14.812  0.00  0.00    +0.005 A 
ATOM     20  C   LIG    1       23.462 -29.884  11.730  0.00  0.00    +0.131 C 
ATOM     21  C   LIG    1       24.716 -27.029  13.930  0.00  0.00    -0.030 A 
ENDROOT
BRANCH   8  22
ATOM     22  N   LIG    1       22.010 -32.353  10.587  0.00  0.00    -0.298 NA
ATOM     23  C   LIG    1       22.374 -33.698  11.042  0.00  0.00    +0.105 C 
ATOM     24  C   LIG    1       20.728 -32.411   9.869  0.00  0.00    +0.105 C 
ENDBRANCH   8  22
BRANCH  10  25
ATOM     25  C   LIG    1       25.833 -33.308   7.589  0.00  0.00    +0.219 C 
ATOM     26  N   LIG    1       25.405 -33.545   6.398  0.00  0.00    -0.267 NA
ATOM     27  H   LIG    1       26.024 -34.197   5.909  0.00  0.00    +0.190 HD
BRANCH  25  28
ATOM     28  O   LIG    1       26.990 -33.825   8.008  0.00  0.00    -0.492 OA
ATOM     29  H   LIG    1       27.160 -33.662   8.945  0.00  0.00    +0.294 HD
ENDBRANCH  25  28
ENDBRANCH  10  25
BRANCH   5  30
ATOM     30  O   LIG    1       26.897 -28.562   9.694  0.00  0.00    -0.507 OA
ATOM     31  H   LIG    1       26.785 -27.582   9.755  0.00  0.00    +0.292 HD
ENDBRANCH   5  30
BRANCH   6  32
ATOM     32  O   LIG    1       24.510 -29.539   8.739  0.00  0.00    -0.373 OA
ATOM     33  H   LIG    1       25.255 -29.145   8.235  0.00  0.00    +0.211 HD
ENDBRANCH   6  32
BRANCH   9  34
ATOM     34  O   LIG    1       23.062 -33.415   8.045  0.00  0.00    -0.509 OA
ATOM     35  H   LIG    1       23.092 -34.295   8.486  0.00  0.00    +0.292 HD
ENDBRANCH   9  34
BRANCH  16  36
ATOM     36  O   LIG    1       27.611 -25.005  12.878  0.00  0.00    -0.506 OA
ATOM     37  H   LIG    1       28.392 -25.423  13.271  0.00  0.00    +0.292 HD
ENDBRANCH  16  36
BRANCH  20  38
ATOM     38  O   LIG    1       22.514 -30.519  12.589  0.00  0.00    -0.391 OA
ATOM     39  H   LIG    1       21.745 -29.910  12.663  0.00  0.00    +0.210 HD
ENDBRANCH  20  38
TORSDOF 8
ENDMDL
MODEL 4
REMARK VINA RESULT:      -5.2      4.182      6.285
REMARK  Name = *****
REMARK                            x       y       z     vdW  Elec       q    Type
REMARK                         _______ _______ _______ _____ _____    ______ ____
ROOT
ATOM      1  C   LIG    1       22.049 -32.095  10.126  0.00  0.00    +0.013 C 
ATOM      2  C   LIG    1       23.530 -32.192   9.698  0.00  0.00    +0.027 C 
ATOM      3  C   LIG    1       24.335 -31.054  10.388  0.00  0.00    +0.062 C 
ATOM      4  C   LIG    1       25.191 -30.208   9.494  0.00  0.00    +0.046 C 
ATOM      5  C   LIG    1       26.268 -29.538   9.954  0.00  0.00    +0.141 C 
ATOM      6  C   LIG    1       26.747 -29.625  11.382  0.00  0.00    +0.192 C 
ATOM      7  C   LIG    1       25.824 -30.410  12.338  0.00  0.00    +0.090 C 
ATOM      8  C   LIG    1       26.634 -30.732  13.637  0.00  0.00    +0.132 C 
ATOM      9  C   LIG    1       27.340 -29.456  14.163  0.00  0.00    +0.127 C 
ATOM     10  C   LIG    1       27.434 -28.302  13.461  0.00  0.00    +0.120 C 
ATOM     11  C   LIG    1       26.862 -28.254  12.082  0.00  0.00    +0.211 C 
ATOM     12  O   LIG    1       26.417 -27.203  11.626  0.00  0.00    -0.288 OA
ATOM     13  C   LIG    1       24.865 -30.094   8.047  0.00  0.00    +0.197 C 
ATOM     14  O   LIG    1       25.187 -29.079   7.445  0.00  0.00    -0.287 OA
ATOM     15  C   LIG    1       24.211 -31.259   7.399  0.00  0.00    +0.067 A 
ATOM     16  C   LIG    1       24.221 -31.394   5.997  0.00  0.00    +0.128 A 
ATOM     17  C   LIG    1       23.630 -32.495   5.374  0.00  0.00    +0.046 A 
ATOM     18  C   LIG    1       23.039 -33.486   6.145  0.00  0.00    +0.004 A 
ATOM     19  C   LIG    1       23.038 -33.372   7.534  0.00  0.00    +0.005 A 
ATOM     20  C   LIG    1       25.163 -31.592  11.605  0.00  0.00    +0.131 C 
ATOM     21  C   LIG    1       23.609 -32.256   8.183  0.00  0.00    -0.030 A 
ENDROOT
BRANCH   8  22
ATOM     22  N   LIG    1       25.806 -31.489  14.619  0.00  0.00    -0.298 NA
ATOM     23  C   LIG    1       24.984 -30.648  15.495  0.00  0.00    +0.105 C 
ATOM     24  C   LIG    1       26.612 -32.407  15.439  0.00  0.00    +0.105 C 
ENDBRANCH   8  22
BRANCH  10  25
ATOM     25  C   LIG    1       28.110 -27.141  14.055  0.00  0.00    +0.219 C 
ATOM     26  N   LIG    1       29.185 -27.181  14.762  0.00  0.00    -0.267 NA
ATOM     27  H   LIG    1       29.455 -26.245  15.072  0.00  0.00    +0.190 HD
BRANCH  25  28
ATOM     28  O   LIG    1       27.543 -25.973  13.750  0.00  0.00    -0.492 OA
ATOM     29  H   LIG    1       26.839 -26.053  13.093  0.00  0.00    +0.294 HD
ENDBRANCH  25  28
ENDBRANCH  10  25
BRANCH   5  30
ATOM     30  O   LIG    1       27.123 -28.818   9.125  0.00  0.00    -0.507 OA
ATOM     31  H   LIG    1       27.477 -29.442   8.446  0.00  0.00    +0.292 HD
ENDBRANCH   5  30
BRANCH   6  32
ATOM     32  O   LIG    1       28.035 -30.246  11.292  0.00  0.00    -0.373 OA
ATOM     33  H   LIG    1       28.660 -29.593  11.676  0.00  0.00    +0.211 HD
ENDBRANCH   6  32
BRANCH   9  34
ATOM     34  O   LIG    1       27.906 -29.583  15.432  0.00  0.00    -0.509 OA
ATOM     35  H   LIG    1       27.350 -29.084  16.074  0.00  0.00    +0.292 HD
ENDBRANCH   9  34
BRANCH  16  36
ATOM     36  O   LIG    1       24.841 -30.467   5.204  0.00  0.00    -0.506 OA
ATOM     37  H   LIG    1       25.787 -30.666   5.131  0.00  0.00    +0.292 HD
ENDBRANCH  16  36
BRANCH  20  38
ATOM     38  O   LIG    1       24.269 -32.293  12.471  0.00  0.00    -0.391 OA
ATOM     39  H   LIG    1       23.746 -32.904  11.906  0.00  0.00    +0.210 HD
ENDBRANCH  20  38
TORSDOF 8
ENDMDL
MODEL 5
REMARK VINA RESULT:      -4.9      2.577      4.092
REMARK  Name = *****
REMARK                            x       y       z     vdW  Elec       q    Type
REMARK                         _______ _______ _______ _____ _____    ______ ____
ROOT
ATOM      1  C   LIG    1       20.376 -33.126  10.500  0.00  0.00    +0.013 C 
ATOM      2  C   LIG    1       20.429 -31.654  10.963  0.00  0.00    +0.027 C 
ATOM      3  C   LIG    1       21.878 -31.315  11.413  0.00  0.00    +0.062 C 
ATOM      4  C   LIG    1       22.024 -30.681  12.764  0.00  0.00    +0.046 C 
ATOM      5  C   LIG    1       23.087 -29.915  13.089  0.00  0.00    +0.141 C 
ATOM      6  C   LIG    1       24.188 -29.576  12.114  0.00  0.00    +0.192 C 
ATOM      7  C   LIG    1       24.106 -30.299  10.753  0.00  0.00    +0.090 C 
ATOM      8  C   LIG    1       25.058 -29.560   9.755  0.00  0.00    +0.132 C 
ATOM      9  C   LIG    1       26.451 -29.341  10.400  0.00  0.00    +0.127 C 
ATOM     10  C   LIG    1       26.714 -29.541  11.714  0.00  0.00    +0.120 C 
ATOM     11  C   LIG    1       25.597 -29.962  12.611  0.00  0.00    +0.211 C 
ATOM     12  O   LIG    1       25.817 -30.664  13.595  0.00  0.00    -0.288 OA
ATOM     13  C   LIG    1       20.971 -30.882  13.796  0.00  0.00    +0.197 C 
ATOM     14  O   LIG    1       21.281 -30.834  14.977  0.00  0.00    -0.287 OA
ATOM     15  C   LIG    1       19.577 -31.074  13.321  0.00  0.00    +0.067 A 
ATOM     16  C   LIG    1       18.491 -30.885  14.199  0.00  0.00    +0.128 A 
ATOM     17  C   LIG    1       17.175 -31.041  13.763  0.00  0.00    +0.046 A 
ATOM     18  C   LIG    1       16.924 -31.367  12.437  0.00  0.00    +0.004 A 
ATOM     19  C   LIG    1       17.989 -31.540  11.555  0.00  0.00    +0.005 A 
ATOM     20  C   LIG    1       22.638 -30.484  10.324  0.00  0.00    +0.131 C 
ATOM     21  C   LIG    1       19.328 -31.410  11.981  0.00  0.00    -0.030 A 
ENDROOT
BRANCH   8  22
ATOM     22  N   LIG    1       25.041 -30.204   8.411  0.00  0.00    -0.298 NA
ATOM     23  C   LIG    1       26.065 -31.234   8.217  0.00  0.00    +0.105 C 
ATOM     24  C   LIG    1       25.126 -29.221   7.319  0.00  0.00    +0.105 C 
ENDBRANCH   8  22
BRANCH  10  25
ATOM     25  C   LIG    1       28.073 -29.322  12.225  0.00  0.00    +0.219 C 
ATOM     26  N   LIG    1       29.161 -29.673  11.635  0.00  0.00    -0.267 NA
ATOM     27  H   LIG    1       29.980 -29.420  12.193  0.00  0.00    +0.190 HD
BRANCH  25  28
ATOM     28  O   LIG    1       28.114 -28.643  13.373  0.00  0.00    -0.492 OA
ATOM     29  H   LIG    1       29.009 -28.543  13.723  0.00  0.00    +0.294 HD
ENDBRANCH  25  28
ENDBRANCH  10  25
BRANCH   5  30
ATOM     30  O   LIG    1       23.199 -29.250  14.305  0.00  0.00    -0.507 OA
ATOM     31  H   LIG    1       22.569 -28.488  14.288  0.00  0.00    +0.292 HD
ENDBRANCH   5  30
BRANCH   6  32
ATOM     32  O   LIG    1       24.092 -28.157  11.945  0.00  0.00    -0.373 OA
ATOM     33  H   LIG    1       24.256 -28.003  10.989  0.00  0.00    +0.211 HD
ENDBRANCH   6  32
BRANCH   9  34
ATOM     34  O   LIG    1       27.437 -28.891   9.522  0.00  0.00    -0.509 OA
ATOM     35  H   LIG    1       27.191 -29.165   8.608  0.00  0.00    +0.292 HD
ENDBRANCH   9  34
BRANCH  16  36
ATOM     36  O   LIG    1       18.694 -30.509  15.499  0.00  0.00    -0.506 OA
ATOM     37  H   LIG    1       18.209 -31.096  16.099  0.00  0.00    +0.292 HD
ENDBRANCH  16  36
BRANCH  20  38
ATOM     38  O   LIG    1       22.555 -31.196   9.088  0.00  0.00    -0.391 OA
ATOM     39  H   LIG    1       22.674 -30.535   8.370  0.00  0.00    +0.210 HD
ENDBRANCH  20  38
TORSDOF 8
ENDMDL
MODEL 6
REMARK VINA RESULT:      -4.8      1.755      2.112
REMARK  Name = *****
REMARK                            x       y       z     vdW  Elec       q    Type
REMARK                         _______ _______ _______ _____ _____    ______ ____
ROOT
ATOM      1  C   LIG    1       20.304 -26.276  12.718  0.00  0.00    +0.013 C 
ATOM      2  C   LIG    1       20.589 -27.499  13.618  0.00  0.00    +0.027 C 
ATOM      3  C   LIG    1       21.496 -28.497  12.845  0.00  0.00    +0.062 C 
ATOM      4  C   LIG    1       21.030 -29.922  12.800  0.00  0.00    +0.046 C 
ATOM      5  C   LIG    1       21.881 -30.952  12.613  0.00  0.00    +0.141 C 
ATOM      6  C   LIG    1       23.375 -30.777  12.495  0.00  0.00    +0.192 C 
ATOM      7  C   LIG    1       23.864 -29.314  12.440  0.00  0.00    +0.090 C 
ATOM      8  C   LIG    1       25.404 -29.308  12.712  0.00  0.00    +0.132 C 
ATOM      9  C   LIG    1       26.113 -30.364  11.826  0.00  0.00    +0.127 C 
ATOM     10  C   LIG    1       25.459 -31.310  11.110  0.00  0.00    +0.120 C 
ATOM     11  C   LIG    1       23.970 -31.375  11.202  0.00  0.00    +0.211 C 
ATOM     12  O   LIG    1       23.302 -31.769  10.250  0.00  0.00    -0.288 OA
ATOM     13  C   LIG    1       19.586 -30.235  12.972  0.00  0.00    +0.197 C 
ATOM     14  O   LIG    1       19.132 -31.244  12.451  0.00  0.00    -0.287 OA
ATOM     15  C   LIG    1       18.785 -29.321  13.826  0.00  0.00    +0.067 A 
ATOM     16  C   LIG    1       17.545 -29.738  14.350  0.00  0.00    +0.128 A 
ATOM     17  C   LIG    1       16.791 -28.898  15.172  0.00  0.00    +0.046 A 
ATOM     18  C   LIG    1       17.275 -27.639  15.498  0.00  0.00    +0.004 A 
ATOM     19  C   LIG    1       18.508 -27.222  15.000  0.00  0.00    +0.005 A 
ATOM     20  C   LIG    1       22.984 -28.415  13.329  0.00  0.00    +0.131 C 
ATOM     21  C   LIG    1       19.276 -28.046  14.148  0.00  0.00    -0.030 A 
ENDROOT
BRANCH   8  22
ATOM     22  N   LIG    1       25.957 -27.924  12.670  0.00  0.00    -0.298 NA
ATOM     23  C   LIG    1       26.642 -27.581  11.420  0.00  0.00    +0.105 C 
ATOM     24  C   LIG    1       26.847 -27.643  13.807  0.00  0.00    +0.105 C 
ENDBRANCH   8  22
BRANCH  10  25
ATOM     25  C   LIG    1       26.222 -32.256  10.286  0.00  0.00    +0.219 C 
ATOM     26  N   LIG    1       26.026 -33.527  10.228  0.00  0.00    -0.267 NA
ATOM     27  H   LIG    1       26.691 -33.972   9.591  0.00  0.00    +0.190 HD
BRANCH  25  28
ATOM     28  O   LIG    1       27.142 -31.676   9.513  0.00  0.00    -0.492 OA
ATOM     29  H   LIG    1       28.022 -31.669   9.911  0.00  0.00    +0.294 HD
ENDBRANCH  25  28
ENDBRANCH  10  25
BRANCH   5  30
ATOM     30  O   LIG    1       21.481 -32.283  12.654  0.00  0.00    -0.507 OA
ATOM     31  H   LIG    1       21.562 -32.649  11.739  0.00  0.00    +0.292 HD
ENDBRANCH   5  30
BRANCH   6  32
ATOM     32  O   LIG    1       23.907 -31.450  13.643  0.00  0.00    -0.373 OA
ATOM     33  H   LIG    1       24.875 -31.292  13.605  0.00  0.00    +0.211 HD
ENDBRANCH   6  32
BRANCH   9  34
ATOM     34  O   LIG    1       27.506 -30.288  11.828  0.00  0.00    -0.509 OA
ATOM     35  H   LIG    1       27.861 -31.068  12.313  0.00  0.00    +0.292 HD
ENDBRANCH   9  34
BRANCH  16  36
ATOM     36  O   LIG    1       17.059 -30.991  14.098  0.00  0.00    -0.506 OA
ATOM     37  H   LIG    1       16.121 -30.946  13.858  0.00  0.00    +0.292 HD
ENDBRANCH  16  36
BRANCH  20  38
ATOM     38  O   LIG    1       23.401 -27.051  13.244  0.00  0.00    -0.391 OA
ATOM     39  H   LIG    1       23.936 -26.866  14.048  0.00  0.00    +0.210 HD
ENDBRANCH  20  38
TORSDOF 8
ENDMDL
MODEL 7
REMARK VINA RESULT:      -4.7      5.237      7.444
REMARK  Name = *****
REMARK                            x       y       z     vdW  Elec       q    Type
REMARK                         _______ _______ _______ _____ _____    ______ ____
ROOT
ATOM      1  C   LIG    1       25.779 -27.008  12.422  0.00  0.00    +0.013 C 
ATOM      2  C   LIG    1       26.770 -28.091  11.944  0.00  0.00    +0.027 C 
ATOM      3  C   LIG    1       26.045 -29.040  10.949  0.00  0.00    +0.062 C 
ATOM      4  C   LIG    1       26.156 -30.509  11.228  0.00  0.00    +0.046 C 
ATOM      5  C   LIG    1       26.018 -31.438  10.260  0.00  0.00    +0.141 C 
ATOM      6  C   LIG    1       25.804 -31.091   8.807  0.00  0.00    +0.192 C 
ATOM      7  C   LIG    1       25.589 -29.590   8.515  0.00  0.00    +0.090 C 
ATOM      8  C   LIG    1       25.776 -29.365   6.978  0.00  0.00    +0.132 C 
ATOM      9  C   LIG    1       24.953 -30.406   6.176  0.00  0.00    +0.127 C 
ATOM     10  C   LIG    1       24.364 -31.492   6.731  0.00  0.00    +0.120 C 
ATOM     11  C   LIG    1       24.541 -31.733   8.195  0.00  0.00    +0.211 C 
ATOM     12  O   LIG    1       23.666 -32.298   8.845  0.00  0.00    -0.288 OA
ATOM     13  C   LIG    1       26.433 -30.981  12.612  0.00  0.00    +0.197 C 
ATOM     14  O   LIG    1       26.032 -32.085  12.952  0.00  0.00    -0.287 OA
ATOM     15  C   LIG    1       27.242 -30.096  13.487  0.00  0.00    +0.067 A 
ATOM     16  C   LIG    1       27.868 -30.610  14.640  0.00  0.00    +0.128 A 
ATOM     17  C   LIG    1       28.649 -29.796  15.461  0.00  0.00    +0.046 A 
ATOM     18  C   LIG    1       28.832 -28.460  15.131  0.00  0.00    +0.004 A 
ATOM     19  C   LIG    1       28.231 -27.943  13.984  0.00  0.00    +0.005 A 
ATOM     20  C   LIG    1       26.438 -28.725   9.465  0.00  0.00    +0.131 C 
ATOM     21  C   LIG    1       27.419 -28.744  13.153  0.00  0.00    -0.030 A 
ENDROOT
BRANCH   8  22
ATOM     22  N   LIG    1       25.577 -27.934   6.611  0.00  0.00    -0.298 NA
ATOM     23  C   LIG    1       24.193 -27.576   6.285  0.00  0.00    +0.105 C 
ATOM     24  C   LIG    1       26.462 -27.510   5.515  0.00  0.00    +0.105 C 
ENDBRANCH   8  22
BRANCH  10  25
ATOM     25  C   LIG    1       23.590 -32.411   5.887  0.00  0.00    +0.219 C 
ATOM     26  N   LIG    1       23.906 -32.779   4.695  0.00  0.00    -0.267 NA
ATOM     27  H   LIG    1       23.204 -33.416   4.310  0.00  0.00    +0.190 HD
BRANCH  25  28
ATOM     28  O   LIG    1       22.512 -32.917   6.489  0.00  0.00    -0.492 OA
ATOM     29  H   LIG    1       22.416 -32.623   7.404  0.00  0.00    +0.294 HD
ENDBRANCH  25  28
ENDBRANCH  10  25
BRANCH   5  30
ATOM     30  O   LIG    1       26.202 -32.798  10.482  0.00  0.00    -0.507 OA
ATOM     31  H   LIG    1       25.851 -33.281   9.695  0.00  0.00    +0.292 HD
ENDBRANCH   5  30
BRANCH   6  32
ATOM     32  O   LIG    1       26.979 -31.576   8.145  0.00  0.00    -0.373 OA
ATOM     33  H   LIG    1       27.731 -31.207   8.658  0.00  0.00    +0.211 HD
ENDBRANCH   6  32
BRANCH   9  34
ATOM     34  O   LIG    1       24.874 -30.157   4.806  0.00  0.00    -0.509 OA
ATOM     35  H   LIG    1       24.244 -30.800   4.406  0.00  0.00    +0.292 HD
ENDBRANCH   9  34
BRANCH  16  36
ATOM     36  O   LIG    1       27.758 -31.934  14.970  0.00  0.00    -0.506 OA
ATOM     37  H   LIG    1       27.182 -32.041  15.742  0.00  0.00    +0.292 HD
ENDBRANCH  16  36
BRANCH  20  38
ATOM     38  O   LIG    1       26.206 -27.335   9.232  0.00  0.00    -0.391 OA
ATOM     39  H   LIG    1       26.423 -26.866  10.070  0.00  0.00    +0.210 HD
ENDBRANCH  20  38
TORSDOF 8
ENDMDL
MODEL 8
REMARK VINA RESULT:      -4.6      4.334      7.563
REMARK  Name = *****
REMARK                            x       y       z     vdW  Elec       q    Type
REMARK                         _______ _______ _______ _____ _____    ______ ____
ROOT
ATOM      1  C   LIG    1       27.699 -33.412   8.055  0.00  0.00    +0.013 C 
ATOM      2  C   LIG    1       26.634 -32.325   7.792  0.00  0.00    +0.027 C 
ATOM      3  C   LIG    1       25.681 -32.240   9.017  0.00  0.00    +0.062 C 
ATOM      4  C   LIG    1       24.212 -32.308   8.725  0.00  0.00    +0.046 C 
ATOM      5  C   LIG    1       23.288 -31.786   9.557  0.00  0.00    +0.141 C 
ATOM      6  C   LIG    1       23.641 -31.036  10.817  0.00  0.00    +0.192 C 
ATOM      7  C   LIG    1       25.140 -31.041  11.186  0.00  0.00    +0.090 C 
ATOM      8  C   LIG    1       25.378 -29.925  12.257  0.00  0.00    +0.132 C 
ATOM      9  C   LIG    1       24.331 -30.036  13.394  0.00  0.00    +0.127 C 
ATOM     10  C   LIG    1       23.232 -30.827  13.334  0.00  0.00    +0.120 C 
ATOM     11  C   LIG    1       22.984 -31.613  12.089  0.00  0.00    +0.211 C 
ATOM     12  O   LIG    1       22.401 -32.694  12.138  0.00  0.00    -0.288 OA
ATOM     13  C   LIG    1       23.735 -32.963   7.477  0.00  0.00    +0.197 C 
ATOM     14  O   LIG    1       22.623 -33.472   7.463  0.00  0.00    -0.287 OA
ATOM     15  C   LIG    1       24.627 -32.907   6.291  0.00  0.00    +0.067 A 
ATOM     16  C   LIG    1       24.114 -33.146   5.000  0.00  0.00    +0.128 A 
ATOM     17  C   LIG    1       24.935 -33.075   3.873  0.00  0.00    +0.046 A 
ATOM     18  C   LIG    1       26.275 -32.746   4.019  0.00  0.00    +0.004 A 
ATOM     19  C   LIG    1       26.790 -32.491   5.289  0.00  0.00    +0.005 A 
ATOM     20  C   LIG    1       26.012 -31.000   9.917  0.00  0.00    +0.131 C 
ATOM     21  C   LIG    1       25.983 -32.580   6.443  0.00  0.00    -0.030 A 
ENDROOT
BRANCH   8  22
ATOM     22  N   LIG    1       26.809 -29.869  12.673  0.00  0.00    -0.298 NA
ATOM     23  C   LIG    1       27.103 -30.555  13.935  0.00  0.00    +0.105 C 
ATOM     24  C   LIG    1       27.318 -28.490  12.738  0.00  0.00    +0.105 C 
ENDBRANCH   8  22
BRANCH  10  25
ATOM     25  C   LIG    1       22.307 -30.875  14.473  0.00  0.00    +0.219 C 
ATOM     26  N   LIG    1       21.608 -29.888  14.913  0.00  0.00    -0.267 NA
ATOM     27  H   LIG    1       21.048 -30.167  15.722  0.00  0.00    +0.190 HD
BRANCH  25  28
ATOM     28  O   LIG    1       22.183 -32.088  15.015  0.00  0.00    -0.492 OA
ATOM     29  H   LIG    1       22.779 -32.741  14.625  0.00  0.00    +0.294 HD
ENDBRANCH  25  28
ENDBRANCH  10  25
BRANCH   5  30
ATOM     30  O   LIG    1       21.929 -31.763   9.262  0.00  0.00    -0.507 OA
ATOM     31  H   LIG    1       21.772 -32.399   8.521  0.00  0.00    +0.292 HD
ENDBRANCH   5  30
BRANCH   6  32
ATOM     32  O   LIG    1       23.178 -29.700  10.582  0.00  0.00    -0.373 OA
ATOM     33  H   LIG    1       23.982 -29.138  10.639  0.00  0.00    +0.211 HD
ENDBRANCH   6  32
BRANCH   9  34
ATOM     34  O   LIG    1       24.588 -29.233  14.505  0.00  0.00    -0.509 OA
ATOM     35  H   LIG    1       23.794 -29.242  15.089  0.00  0.00    +0.292 HD
ENDBRANCH   9  34
BRANCH  16  36
ATOM     36  O   LIG    1       22.787 -33.419   4.809  0.00  0.00    -0.506 OA
ATOM     37  H   LIG    1       22.455 -33.988   5.520  0.00  0.00    +0.292 HD
ENDBRANCH  16  36
BRANCH  20  38
ATOM     38  O   LIG    1       27.400 -31.054  10.250  0.00  0.00    -0.391 OA
ATOM     39  H   LIG    1       27.810 -31.717   9.651  0.00  0.00    +0.210 HD
ENDBRANCH  20  38
TORSDOF 8
ENDMDL
MODEL 9
REMARK VINA RESULT:      -4.6      3.704      7.565
REMARK  Name = *****
REMARK                            x       y       z     vdW  Elec       q    Type
REMARK                         _______ _______ _______ _____ _____    ______ ____
ROOT
ATOM      1  C   LIG    1       24.972 -30.100  10.967  0.00  0.00    +0.013 C 
ATOM      2  C   LIG    1       23.664 -30.075  10.146  0.00  0.00    +0.027 C 
ATOM      3  C   LIG    1       22.534 -30.756  10.968  0.00  0.00    +0.062 C 
ATOM      4  C   LIG    1       21.755 -31.829  10.268  0.00  0.00    +0.046 C 
ATOM      5  C   LIG    1       20.499 -32.161  10.634  0.00  0.00    +0.141 C 
ATOM      6  C   LIG    1       19.743 -31.450  11.729  0.00  0.00    +0.192 C 
ATOM      7  C   LIG    1       20.562 -30.412  12.526  0.00  0.00    +0.090 C 
ATOM      8  C   LIG    1       19.560 -29.516  13.326  0.00  0.00    +0.132 C 
ATOM      9  C   LIG    1       18.534 -30.397  14.084  0.00  0.00    +0.127 C 
ATOM     10  C   LIG    1       18.387 -31.728  13.880  0.00  0.00    +0.120 C 
ATOM     11  C   LIG    1       19.229 -32.391  12.840  0.00  0.00    +0.211 C 
ATOM     12  O   LIG    1       19.563 -33.566  12.962  0.00  0.00    -0.288 OA
ATOM     13  C   LIG    1       22.364 -32.561   9.125  0.00  0.00    +0.197 C 
ATOM     14  O   LIG    1       22.001 -33.705   8.894  0.00  0.00    -0.287 OA
ATOM     15  C   LIG    1       23.345 -31.826   8.287  0.00  0.00    +0.067 A 
ATOM     16  C   LIG    1       23.668 -32.287   6.995  0.00  0.00    +0.128 A 
ATOM     17  C   LIG    1       24.572 -31.595   6.187  0.00  0.00    +0.046 A 
ATOM     18  C   LIG    1       25.150 -30.422   6.651  0.00  0.00    +0.004 A 
ATOM     19  C   LIG    1       24.826 -29.946   7.920  0.00  0.00    +0.005 A 
ATOM     20  C   LIG    1       21.572 -29.697  11.608  0.00  0.00    +0.131 C 
ATOM     21  C   LIG    1       23.932 -30.643   8.762  0.00  0.00    -0.030 A 
ENDROOT
BRANCH   8  22
ATOM     22  N   LIG    1       20.276 -28.485  14.131  0.00  0.00    -0.298 NA
ATOM     23  C   LIG    1       20.650 -28.920  15.480  0.00  0.00    +0.105 C 
ATOM     24  C   LIG    1       19.526 -27.222  14.215  0.00  0.00    +0.105 C 
ENDBRANCH   8  22
BRANCH  10  25
ATOM     25  C   LIG    1       17.397 -32.479  14.663  0.00  0.00    +0.219 C 
ATOM     26  N   LIG    1       16.124 -32.297  14.633  0.00  0.00    -0.267 NA
ATOM     27  H   LIG    1       15.646 -32.935  15.274  0.00  0.00    +0.190 HD
BRANCH  25  28
ATOM     28  O   LIG    1       17.925 -33.457  15.403  0.00  0.00    -0.492 OA
ATOM     29  H   LIG    1       18.195 -34.223  14.881  0.00  0.00    +0.294 HD
ENDBRANCH  25  28
ENDBRANCH  10  25
BRANCH   5  30
ATOM     30  O   LIG    1       19.730 -33.091   9.944  0.00  0.00    -0.507 OA
ATOM     31  H   LIG    1       20.006 -33.991  10.246  0.00  0.00    +0.292 HD
ENDBRANCH   5  30
BRANCH   6  32
ATOM     32  O   LIG    1       18.642 -30.825  11.058  0.00  0.00    -0.373 OA
ATOM     33  H   LIG    1       17.905 -31.470  11.124  0.00  0.00    +0.211 HD
ENDBRANCH   6  32
BRANCH   9  34
ATOM     34  O   LIG    1       17.738 -29.710  15.000  0.00  0.00    -0.509 OA
ATOM     35  H   LIG    1       18.149 -29.785  15.892  0.00  0.00    +0.292 HD
ENDBRANCH   9  34
BRANCH  16  36
ATOM     36  O   LIG    1       23.078 -33.409   6.480  0.00  0.00    -0.506 OA
ATOM     37  H   LIG    1       23.741 -33.970   6.050  0.00  0.00    +0.292 HD
ENDBRANCH  16  36
BRANCH  20  38
ATOM     38  O   LIG    1       22.367 -28.770  12.350  0.00  0.00    -0.391 OA
ATOM     39  H   LIG    1       22.392 -27.937  11.829  0.00  0.00    +0.210 HD
ENDBRANCH  20  38
TORSDOF 8
ENDMDL
