MODEL 1
REMARK VINA RESULT:      -5.0      0.000      0.000
REMARK  Name = *****
REMARK                            x       y       z     vdW  Elec       q    Type
REMARK                         _______ _______ _______ _____ _____    ______ ____
ROOT
ATOM      1  C   LIG    1       23.569 -18.946   3.085  0.00  0.00    +0.048 C 
ATOM      2  C   LIG    1       24.974 -18.896   3.599  0.00  0.00    -0.004 A 
ATOM      3  C   LIG    1       25.528 -19.859   4.456  0.00  0.00    +0.143 A 
ATOM      4  C   LIG    1       26.825 -19.691   5.012  0.00  0.00    +0.028 A 
ATOM      5  C   LIG    1       27.545 -18.492   4.749  0.00  0.00    +0.028 A 
ATOM      6  C   LIG    1       28.770 -18.276   5.413  0.00  0.00    +0.012 A 
ATOM      7  C   LIG    1       29.311 -19.231   6.275  0.00  0.00    +0.001 A 
ATOM      8  C   LIG    1       28.647 -20.431   6.480  0.00  0.00    +0.001 A 
ATOM      9  C   LIG    1       26.979 -17.552   3.863  0.00  0.00    +0.140 A 
ATOM     10  C   LIG    1       27.414 -20.656   5.861  0.00  0.00    +0.012 A 
ATOM     11  C   LIG    1       25.754 -17.796   3.241  0.00  0.00    +0.053 A 
ENDROOT
BRANCH   3  12
ATOM     12  O   LIG    1       24.759 -20.888   4.942  0.00  0.00    -0.403 OA
BRANCH  12  13
ATOM     13  P   LIG    1       23.361 -20.729   5.704  0.00  0.00    +0.528 P 
ATOM     14  O   LIG    1       22.909 -19.328   5.933  0.00  0.00    -0.216 OA
BRANCH  13  15
ATOM     15  O   LIG    1       23.426 -21.567   7.062  0.00  0.00    -0.293 OA
ATOM     16  H   LIG    1       24.352 -21.762   7.290  0.00  0.00    +0.223 HD
ENDBRANCH  13  15
BRANCH  13  17
ATOM     17  O   LIG    1       22.274 -21.532   4.852  0.00  0.00    -0.293 OA
ATOM     18  H   LIG    1       21.838 -22.210   5.401  0.00  0.00    +0.223 HD
ENDBRANCH  13  17
ENDBRANCH  12  13
ENDBRANCH   3  12
BRANCH   9  19
ATOM     19  O   LIG    1       27.617 -16.347   3.687  0.00  0.00    -0.403 OA
BRANCH  19  20
ATOM     20  P   LIG    1       26.811 -14.963   3.596  0.00  0.00    +0.528 P 
ATOM     21  O   LIG    1       25.519 -14.875   4.337  0.00  0.00    -0.216 OA
BRANCH  20  22
ATOM     22  O   LIG    1       26.610 -14.678   2.037  0.00  0.00    -0.293 OA
ATOM     23  H   LIG    1       26.902 -13.776   1.817  0.00  0.00    +0.223 HD
ENDBRANCH  20  22
BRANCH  20  24
ATOM     24  O   LIG    1       27.815 -13.781   3.998  0.00  0.00    -0.293 OA
ATOM     25  H   LIG    1       27.970 -13.177   3.252  0.00  0.00    +0.223 HD
ENDBRANCH  20  24
ENDBRANCH  19  20
ENDBRANCH   9  19
TORSDOF 8
ENDMDL
MODEL 2
REMARK VINA RESULT:      -3.1      2.838      6.431
REMARK  Name = *****
REMARK                            x       y       z     vdW  Elec       q    Type
REMARK                         _______ _______ _______ _____ _____    ______ ____
ROOT
ATOM      1  C   LIG    1       27.566 -14.701   3.575  0.00  0.00    +0.048 C 
ATOM      2  C   LIG    1       26.375 -15.608   3.597  0.00  0.00    -0.004 A 
ATOM      3  C   LIG    1       25.081 -15.190   3.940  0.00  0.00    +0.143 A 
ATOM      4  C   LIG    1       24.015 -16.122   4.067  0.00  0.00    +0.028 A 
ATOM      5  C   LIG    1       24.283 -17.510   3.912  0.00  0.00    +0.028 A 
ATOM      6  C   LIG    1       23.251 -18.435   4.173  0.00  0.00    +0.012 A 
ATOM      7  C   LIG    1       21.968 -18.015   4.527  0.00  0.00    +0.001 A 
ATOM      8  C   LIG    1       21.684 -16.660   4.611  0.00  0.00    +0.001 A 
ATOM      9  C   LIG    1       25.586 -17.903   3.540  0.00  0.00    +0.140 A 
ATOM     10  C   LIG    1       22.697 -15.724   4.391  0.00  0.00    +0.012 A 
ATOM     11  C   LIG    1       26.585 -16.956   3.309  0.00  0.00    +0.053 A 
ENDROOT
BRANCH   3  12
ATOM     12  O   LIG    1       24.849 -13.903   4.359  0.00  0.00    -0.403 OA
BRANCH  12  13
ATOM     13  P   LIG    1       24.426 -12.678   3.420  0.00  0.00    +0.528 P 
ATOM     14  O   LIG    1       23.829 -11.507   4.119  0.00  0.00    -0.216 OA
BRANCH  13  15
ATOM     15  O   LIG    1       23.477 -13.232   2.261  0.00  0.00    -0.293 OA
ATOM     16  H   LIG    1       23.854 -13.018   1.389  0.00  0.00    +0.223 HD
ENDBRANCH  13  15
BRANCH  13  17
ATOM     17  O   LIG    1       25.734 -12.238   2.614  0.00  0.00    -0.293 OA
ATOM     18  H   LIG    1       25.863 -11.273   2.667  0.00  0.00    +0.223 HD
ENDBRANCH  13  17
ENDBRANCH  12  13
ENDBRANCH   3  12
BRANCH   9  19
ATOM     19  O   LIG    1       25.880 -19.246   3.491  0.00  0.00    -0.403 OA
BRANCH  19  20
ATOM     20  P   LIG    1       26.044 -20.129   4.820  0.00  0.00    +0.528 P 
ATOM     21  O   LIG    1       25.545 -19.542   6.097  0.00  0.00    -0.216 OA
BRANCH  20  22
ATOM     22  O   LIG    1       27.598 -20.490   4.913  0.00  0.00    -0.293 OA
ATOM     23  H   LIG    1       27.822 -20.798   5.809  0.00  0.00    +0.223 HD
ENDBRANCH  20  22
BRANCH  20  24
ATOM     24  O   LIG    1       25.409 -21.572   4.534  0.00  0.00    -0.293 OA
ATOM     25  H   LIG    1       25.385 -22.116   5.339  0.00  0.00    +0.223 HD
ENDBRANCH  20  24
ENDBRANCH  19  20
ENDBRANCH   9  19
TORSDOF 8
ENDMDL
MODEL 3
REMARK VINA RESULT:      -2.6      2.340      3.821
REMARK  Name = *****
REMARK                            x       y       z     vdW  Elec       q    Type
REMARK                         _______ _______ _______ _____ _____    ______ ____
ROOT
ATOM      1  C   LIG    1       25.392 -20.005   2.580  0.00  0.00    +0.048 C 
ATOM      2  C   LIG    1       25.022 -18.689   3.192  0.00  0.00    -0.004 A 
ATOM      3  C   LIG    1       23.839 -18.468   3.913  0.00  0.00    +0.143 A 
ATOM      4  C   LIG    1       23.483 -17.167   4.361  0.00  0.00    +0.028 A 
ATOM      5  C   LIG    1       24.306 -16.061   4.011  0.00  0.00    +0.028 A 
ATOM      6  C   LIG    1       23.874 -14.761   4.344  0.00  0.00    +0.012 A 
ATOM      7  C   LIG    1       22.689 -14.543   5.050  0.00  0.00    +0.001 A 
ATOM      8  C   LIG    1       21.919 -15.623   5.453  0.00  0.00    +0.001 A 
ATOM      9  C   LIG    1       25.504 -16.313   3.311  0.00  0.00    +0.140 A 
ATOM     10  C   LIG    1       22.307 -16.920   5.107  0.00  0.00    +0.012 A 
ATOM     11  C   LIG    1       25.886 -17.615   2.984  0.00  0.00    +0.053 A 
ENDROOT
BRANCH   3  12
ATOM     12  O   LIG    1       22.896 -19.459   4.031  0.00  0.00    -0.403 OA
BRANCH  12  13
ATOM     13  P   LIG    1       22.951 -20.681   5.062  0.00  0.00    +0.528 P 
ATOM     14  O   LIG    1       24.182 -21.518   5.002  0.00  0.00    -0.216 OA
BRANCH  13  15
ATOM     15  O   LIG    1       21.625 -21.553   4.886  0.00  0.00    -0.293 OA
ATOM     16  H   LIG    1       21.785 -22.467   5.181  0.00  0.00    +0.223 HD
ENDBRANCH  13  15
BRANCH  13  17
ATOM     17  O   LIG    1       22.768 -20.064   6.524  0.00  0.00    -0.293 OA
ATOM     18  H   LIG    1       21.867 -19.710   6.639  0.00  0.00    +0.223 HD
ENDBRANCH  13  17
ENDBRANCH  12  13
ENDBRANCH   3  12
BRANCH   9  19
ATOM     19  O   LIG    1       26.251 -15.242   2.878  0.00  0.00    -0.403 OA
BRANCH  19  20
ATOM     20  P   LIG    1       27.262 -14.462   3.850  0.00  0.00    +0.528 P 
ATOM     21  O   LIG    1       26.662 -13.640   4.940  0.00  0.00    -0.216 OA
BRANCH  20  22
ATOM     22  O   LIG    1       28.188 -13.578   2.894  0.00  0.00    -0.293 OA
ATOM     23  H   LIG    1       27.752 -12.733   2.686  0.00  0.00    +0.223 HD
ENDBRANCH  20  22
BRANCH  20  24
ATOM     24  O   LIG    1       28.322 -15.524   4.411  0.00  0.00    -0.293 OA
ATOM     25  H   LIG    1       27.879 -16.276   4.841  0.00  0.00    +0.223 HD
ENDBRANCH  20  24
ENDBRANCH  19  20
ENDBRANCH   9  19
TORSDOF 8
ENDMDL
MODEL 4
REMARK VINA RESULT:      -2.4      1.408      5.743
REMARK  Name = *****
REMARK                            x       y       z     vdW  Elec       q    Type
REMARK                         _______ _______ _______ _____ _____    ______ ____
ROOT
ATOM      1  C   LIG    1       25.443 -15.010   2.508  0.00  0.00    +0.048 C 
ATOM      2  C   LIG    1       25.967 -16.178   3.285  0.00  0.00    -0.004 A 
ATOM      3  C   LIG    1       27.214 -16.194   3.927  0.00  0.00    +0.143 A 
ATOM      4  C   LIG    1       27.710 -17.376   4.541  0.00  0.00    +0.028 A 
ATOM      5  C   LIG    1       26.961 -18.581   4.440  0.00  0.00    +0.028 A 
ATOM      6  C   LIG    1       27.524 -19.775   4.933  0.00  0.00    +0.012 A 
ATOM      7  C   LIG    1       28.772 -19.789   5.560  0.00  0.00    +0.001 A 
ATOM      8  C   LIG    1       29.475 -18.605   5.724  0.00  0.00    +0.001 A 
ATOM      9  C   LIG    1       25.698 -18.533   3.813  0.00  0.00    +0.140 A 
ATOM     10  C   LIG    1       28.954 -17.413   5.213  0.00  0.00    +0.012 A 
ATOM     11  C   LIG    1       25.184 -17.332   3.321  0.00  0.00    +0.053 A 
ENDROOT
BRANCH   3  12
ATOM     12  O   LIG    1       28.075 -15.132   3.809  0.00  0.00    -0.403 OA
BRANCH  12  13
ATOM     13  P   LIG    1       27.715 -13.601   4.104  0.00  0.00    +0.528 P 
ATOM     14  O   LIG    1       26.768 -13.368   5.231  0.00  0.00    -0.216 OA
BRANCH  13  15
ATOM     15  O   LIG    1       27.206 -12.930   2.747  0.00  0.00    -0.293 OA
ATOM     16  H   LIG    1       27.512 -13.449   1.982  0.00  0.00    +0.223 HD
ENDBRANCH  13  15
BRANCH  13  17
ATOM     17  O   LIG    1       29.094 -12.842   4.369  0.00  0.00    -0.293 OA
ATOM     18  H   LIG    1       29.634 -12.812   3.558  0.00  0.00    +0.223 HD
ENDBRANCH  13  17
ENDBRANCH  12  13
ENDBRANCH   3  12
BRANCH   9  19
ATOM     19  O   LIG    1       25.015 -19.710   3.617  0.00  0.00    -0.403 OA
BRANCH  19  20
ATOM     20  P   LIG    1       23.751 -20.120   4.517  0.00  0.00    +0.528 P 
ATOM     21  O   LIG    1       22.623 -19.148   4.592  0.00  0.00    -0.216 OA
BRANCH  20  22
ATOM     22  O   LIG    1       24.337 -20.447   5.966  0.00  0.00    -0.293 OA
ATOM     23  H   LIG    1       24.219 -21.391   6.175  0.00  0.00    +0.223 HD
ENDBRANCH  20  22
BRANCH  20  24
ATOM     24  O   LIG    1       23.264 -21.572   4.047  0.00  0.00    -0.293 OA
ATOM     25  H   LIG    1       23.049 -22.138   4.808  0.00  0.00    +0.223 HD
ENDBRANCH  20  24
ENDBRANCH  19  20
ENDBRANCH   9  19
TORSDOF 8
ENDMDL
