MODEL 1
REMARK VINA RESULT:      -4.9      0.000      0.000
REMARK  Name = *****
REMARK                            x       y       z     vdW  Elec       q    Type
REMARK                         _______ _______ _______ _____ _____    ______ ____
ROOT
ATOM      1  C   LIG    1       29.579 -19.649   7.296  0.00  0.00    +0.170 C 
ENDROOT
BRANCH   1   2
ATOM      2  O   LIG    1       30.767 -19.991   6.572  0.00  0.00    -0.386 OA
ATOM      3  H   LIG    1       30.909 -19.321   5.874  0.00  0.00    +0.210 HD
ENDBRANCH   1   2
BRANCH   1   4
ATOM      4  C   LIG    1       28.845 -20.951   7.741  0.00  0.00    +0.164 C 
BRANCH   4   6
ATOM      5  C   LIG    1       27.138 -20.233   6.070  0.00  0.00    +0.192 C 
ATOM      6  N   LIG    1       27.332 -21.009   7.375  0.00  0.00    +0.239 N 
ATOM      7  C   LIG    1       26.882 -22.444   7.151  0.00  0.00    +0.192 C 
ATOM      8  C   LIG    1       26.469 -20.355   8.446  0.00  0.00    +0.192 C 
ENDBRANCH   4   6
ENDBRANCH   1   4
BRANCH   1   9
ATOM      9  C   LIG    1       30.003 -18.771   8.484  0.00  0.00    +0.157 C 
BRANCH   9  10
ATOM     10  C   LIG    1       31.493 -18.751   8.669  0.00  0.00    +0.307 C 
ATOM     11  O   LIG    1       32.112 -19.616   9.279  0.00  0.00    -0.251 OA
BRANCH  10  12
ATOM     12  O   LIG    1       32.099 -17.708   8.088  0.00  0.00    -0.480 OA
ATOM     13  H   LIG    1       33.060 -17.605   8.263  0.00  0.00    +0.295 HD
ENDBRANCH  10  12
ENDBRANCH   9  10
ENDBRANCH   1   9
TORSDOF 6
ENDMDL
MODEL 2
REMARK VINA RESULT:      -4.8      0.117      1.298
REMARK  Name = *****
REMARK                            x       y       z     vdW  Elec       q    Type
REMARK                         _______ _______ _______ _____ _____    ______ ____
ROOT
ATOM      1  C   LIG    1       29.454 -19.606   7.341  0.00  0.00    +0.170 C 
ENDROOT
BRANCH   1   2
ATOM      2  O   LIG    1       30.590 -19.921   6.526  0.00  0.00    -0.386 OA
ATOM      3  H   LIG    1       30.947 -20.785   6.811  0.00  0.00    +0.210 HD
ENDBRANCH   1   2
BRANCH   1   4
ATOM      4  C   LIG    1       28.739 -20.923   7.773  0.00  0.00    +0.164 C 
BRANCH   4   6
ATOM      5  C   LIG    1       26.396 -20.395   8.450  0.00  0.00    +0.192 C 
ATOM      6  N   LIG    1       27.245 -21.028   7.344  0.00  0.00    +0.239 N 
ATOM      7  C   LIG    1       26.995 -20.265   6.052  0.00  0.00    +0.192 C 
ATOM      8  C   LIG    1       26.807 -22.478   7.185  0.00  0.00    +0.192 C 
ENDBRANCH   4   6
ENDBRANCH   1   4
BRANCH   1   9
ATOM      9  C   LIG    1       29.963 -18.787   8.539  0.00  0.00    +0.157 C 
BRANCH   9  10
ATOM     10  C   LIG    1       31.460 -18.821   8.652  0.00  0.00    +0.307 C 
ATOM     11  O   LIG    1       32.075 -19.714   9.226  0.00  0.00    -0.251 OA
BRANCH  10  12
ATOM     12  O   LIG    1       32.074 -17.796   8.050  0.00  0.00    -0.480 OA
ATOM     13  H   LIG    1       32.936 -17.991   7.621  0.00  0.00    +0.295 HD
ENDBRANCH  10  12
ENDBRANCH   9  10
ENDBRANCH   1   9
TORSDOF 6
ENDMDL
MODEL 3
REMARK VINA RESULT:      -4.6      2.862      4.079
REMARK  Name = *****
REMARK                            x       y       z     vdW  Elec       q    Type
REMARK                         _______ _______ _______ _____ _____    ______ ____
ROOT
ATOM      1  C   LIG    1       26.130 -21.170   8.128  0.00  0.00    +0.170 C 
ENDROOT
BRANCH   1   2
ATOM      2  O   LIG    1       25.964 -20.598   9.431  0.00  0.00    -0.386 OA
ATOM      3  H   LIG    1       25.214 -21.042   9.872  0.00  0.00    +0.210 HD
ENDBRANCH   1   2
BRANCH   1   4
ATOM      4  C   LIG    1       24.763 -21.165   7.377  0.00  0.00    +0.164 C 
BRANCH   4   6
ATOM      5  C   LIG    1       25.468 -23.525   6.981  0.00  0.00    +0.192 C 
ATOM      6  N   LIG    1       24.462 -22.454   6.555  0.00  0.00    +0.239 N 
ATOM      7  C   LIG    1       23.061 -22.969   6.848  0.00  0.00    +0.192 C 
ATOM      8  C   LIG    1       24.628 -22.219   5.059  0.00  0.00    +0.192 C 
ENDBRANCH   4   6
ENDBRANCH   1   4
BRANCH   1   9
ATOM      9  C   LIG    1       27.209 -20.351   7.401  0.00  0.00    +0.157 C 
BRANCH   9  10
ATOM     10  C   LIG    1       28.575 -20.955   7.553  0.00  0.00    +0.307 C 
ATOM     11  O   LIG    1       29.005 -21.398   8.613  0.00  0.00    -0.251 OA
BRANCH  10  12
ATOM     12  O   LIG    1       29.283 -20.990   6.418  0.00  0.00    -0.480 OA
ATOM     13  H   LIG    1       29.763 -21.826   6.225  0.00  0.00    +0.295 HD
ENDBRANCH  10  12
ENDBRANCH   9  10
ENDBRANCH   1   9
TORSDOF 6
ENDMDL
MODEL 4
REMARK VINA RESULT:      -4.5      6.173      7.461
REMARK  Name = *****
REMARK                            x       y       z     vdW  Elec       q    Type
REMARK                         _______ _______ _______ _____ _____    ______ ____
ROOT
ATOM      1  C   LIG    1       25.375 -24.640   5.755  0.00  0.00    +0.170 C 
ENDROOT
BRANCH   1   2
ATOM      2  O   LIG    1       24.891 -25.020   4.461  0.00  0.00    -0.386 OA
ATOM      3  H   LIG    1       25.620 -25.449   3.970  0.00  0.00    +0.210 HD
ENDBRANCH   1   2
BRANCH   1   4
ATOM      4  C   LIG    1       24.245 -23.910   6.542  0.00  0.00    +0.164 C 
BRANCH   4   6
ATOM      5  C   LIG    1       25.007 -21.719   5.624  0.00  0.00    +0.192 C 
ATOM      6  N   LIG    1       24.550 -22.425   6.903  0.00  0.00    +0.239 N 
ATOM      7  C   LIG    1       23.303 -21.724   7.418  0.00  0.00    +0.192 C 
ATOM      8  C   LIG    1       25.671 -22.315   7.929  0.00  0.00    +0.192 C 
ENDBRANCH   4   6
ENDBRANCH   1   4
BRANCH   1   9
ATOM      9  C   LIG    1       25.858 -25.918   6.458  0.00  0.00    +0.157 C 
BRANCH   9  10
ATOM     10  C   LIG    1       26.027 -27.062   5.500  0.00  0.00    +0.307 C 
ATOM     11  O   LIG    1       25.131 -27.855   5.228  0.00  0.00    -0.251 OA
BRANCH  10  12
ATOM     12  O   LIG    1       27.242 -27.132   4.944  0.00  0.00    -0.480 OA
ATOM     13  H   LIG    1       27.624 -28.031   4.833  0.00  0.00    +0.295 HD
ENDBRANCH  10  12
ENDBRANCH   9  10
ENDBRANCH   1   9
TORSDOF 6
ENDMDL
MODEL 5
REMARK VINA RESULT:      -4.5      6.176      7.508
REMARK  Name = *****
REMARK                            x       y       z     vdW  Elec       q    Type
REMARK                         _______ _______ _______ _____ _____    ______ ____
ROOT
ATOM      1  C   LIG    1       25.389 -24.639   5.770  0.00  0.00    +0.170 C 
ENDROOT
BRANCH   1   2
ATOM      2  O   LIG    1       24.883 -25.011   4.482  0.00  0.00    -0.386 OA
ATOM      3  H   LIG    1       25.269 -25.873   4.234  0.00  0.00    +0.210 HD
ENDBRANCH   1   2
BRANCH   1   4
ATOM      4  C   LIG    1       24.276 -23.904   6.577  0.00  0.00    +0.164 C 
BRANCH   4   6
ATOM      5  C   LIG    1       23.272 -21.771   7.392  0.00  0.00    +0.192 C 
ATOM      6  N   LIG    1       24.569 -22.406   6.885  0.00  0.00    +0.239 N 
ATOM      7  C   LIG    1       25.626 -22.270   7.970  0.00  0.00    +0.192 C 
ATOM      8  C   LIG    1       25.007 -21.651   5.636  0.00  0.00    +0.192 C 
ENDBRANCH   4   6
ENDBRANCH   1   4
BRANCH   1   9
ATOM      9  C   LIG    1       25.874 -25.923   6.460  0.00  0.00    +0.157 C 
BRANCH   9  10
ATOM     10  C   LIG    1       26.021 -27.064   5.494  0.00  0.00    +0.307 C 
ATOM     11  O   LIG    1       25.113 -27.844   5.225  0.00  0.00    -0.251 OA
BRANCH  10  12
ATOM     12  O   LIG    1       27.231 -27.147   4.930  0.00  0.00    -0.480 OA
ATOM     13  H   LIG    1       27.610 -28.048   4.832  0.00  0.00    +0.295 HD
ENDBRANCH  10  12
ENDBRANCH   9  10
ENDBRANCH   1   9
TORSDOF 6
ENDMDL
MODEL 6
REMARK VINA RESULT:      -4.5      6.607      8.843
REMARK  Name = *****
REMARK                            x       y       z     vdW  Elec       q    Type
REMARK                         _______ _______ _______ _____ _____    ______ ____
ROOT
ATOM      1  C   LIG    1       25.432 -26.417   5.724  0.00  0.00    +0.170 C 
ENDROOT
BRANCH   1   2
ATOM      2  O   LIG    1       26.776 -26.875   5.534  0.00  0.00    -0.386 OA
ATOM      3  H   LIG    1       26.778 -27.852   5.561  0.00  0.00    +0.210 HD
ENDBRANCH   1   2
BRANCH   1   4
ATOM      4  C   LIG    1       25.267 -25.003   5.089  0.00  0.00    +0.164 C 
BRANCH   4   6
ATOM      5  C   LIG    1       24.711 -22.579   5.291  0.00  0.00    +0.192 C 
ATOM      6  N   LIG    1       24.830 -23.884   6.081  0.00  0.00    +0.239 N 
ATOM      7  C   LIG    1       23.474 -24.200   6.693  0.00  0.00    +0.192 C 
ATOM      8  C   LIG    1       25.862 -23.676   7.183  0.00  0.00    +0.192 C 
ENDBRANCH   4   6
ENDBRANCH   1   4
BRANCH   1   9
ATOM      9  C   LIG    1       24.498 -27.462   5.095  0.00  0.00    +0.157 C 
BRANCH   9  10
ATOM     10  C   LIG    1       24.295 -28.651   5.990  0.00  0.00    +0.307 C 
ATOM     11  O   LIG    1       24.929 -28.836   7.025  0.00  0.00    -0.251 OA
BRANCH  10  12
ATOM     12  O   LIG    1       23.341 -29.491   5.572  0.00  0.00    -0.480 OA
ATOM     13  H   LIG    1       23.400 -30.418   5.892  0.00  0.00    +0.295 HD
ENDBRANCH  10  12
ENDBRANCH   9  10
ENDBRANCH   1   9
TORSDOF 6
ENDMDL
MODEL 7
REMARK VINA RESULT:      -4.5      2.474      3.221
REMARK  Name = *****
REMARK                            x       y       z     vdW  Elec       q    Type
REMARK                         _______ _______ _______ _____ _____    ______ ____
ROOT
ATOM      1  C   LIG    1       27.102 -21.421   7.290  0.00  0.00    +0.170 C 
ENDROOT
BRANCH   1   2
ATOM      2  O   LIG    1       27.346 -21.679   8.678  0.00  0.00    -0.386 OA
ATOM      3  H   LIG    1       27.321 -22.645   8.823  0.00  0.00    +0.210 HD
ENDBRANCH   1   2
BRANCH   1   4
ATOM      4  C   LIG    1       25.813 -20.557   7.137  0.00  0.00    +0.164 C 
BRANCH   4   6
ATOM      5  C   LIG    1       25.252 -20.375   4.713  0.00  0.00    +0.192 C 
ATOM      6  N   LIG    1       24.830 -21.036   6.027  0.00  0.00    +0.239 N 
ATOM      7  C   LIG    1       24.904 -22.545   5.850  0.00  0.00    +0.192 C 
ATOM      8  C   LIG    1       23.396 -20.617   6.327  0.00  0.00    +0.192 C 
ENDBRANCH   4   6
ENDBRANCH   1   4
BRANCH   1   9
ATOM      9  C   LIG    1       28.351 -20.726   6.726  0.00  0.00    +0.157 C 
BRANCH   9  10
ATOM     10  C   LIG    1       29.372 -20.447   7.792  0.00  0.00    +0.307 C 
ATOM     11  O   LIG    1       29.366 -19.435   8.486  0.00  0.00    -0.251 OA
BRANCH  10  12
ATOM     12  O   LIG    1       30.287 -21.413   7.936  0.00  0.00    -0.480 OA
ATOM     13  H   LIG    1       31.170 -21.136   8.266  0.00  0.00    +0.295 HD
ENDBRANCH  10  12
ENDBRANCH   9  10
ENDBRANCH   1   9
TORSDOF 6
ENDMDL
MODEL 8
REMARK VINA RESULT:      -4.5      5.736      7.261
REMARK  Name = *****
REMARK                            x       y       z     vdW  Elec       q    Type
REMARK                         _______ _______ _______ _____ _____    ______ ____
ROOT
ATOM      1  C   LIG    1       23.585 -23.768   6.348  0.00  0.00    +0.170 C 
ENDROOT
BRANCH   1   2
ATOM      2  O   LIG    1       22.219 -23.899   6.760  0.00  0.00    -0.386 OA
ATOM      3  H   LIG    1       21.644 -23.672   6.003  0.00  0.00    +0.210 HD
ENDBRANCH   1   2
BRANCH   1   4
ATOM      4  C   LIG    1       24.304 -22.715   7.246  0.00  0.00    +0.164 C 
BRANCH   4   6
ATOM      5  C   LIG    1       25.663 -20.624   7.321  0.00  0.00    +0.192 C 
ATOM      6  N   LIG    1       24.519 -21.323   6.581  0.00  0.00    +0.239 N 
ATOM      7  C   LIG    1       24.915 -21.474   5.120  0.00  0.00    +0.192 C 
ATOM      8  C   LIG    1       23.278 -20.447   6.696  0.00  0.00    +0.192 C 
ENDBRANCH   4   6
ENDBRANCH   1   4
BRANCH   1   9
ATOM      9  C   LIG    1       24.227 -25.161   6.437  0.00  0.00    +0.157 C 
BRANCH   9  10
ATOM     10  C   LIG    1       25.252 -25.382   5.361  0.00  0.00    +0.307 C 
ATOM     11  O   LIG    1       26.311 -25.972   5.546  0.00  0.00    -0.251 OA
BRANCH  10  12
ATOM     12  O   LIG    1       24.899 -24.895   4.166  0.00  0.00    -0.480 OA
ATOM     13  H   LIG    1       24.266 -24.143   4.167  0.00  0.00    +0.295 HD
ENDBRANCH  10  12
ENDBRANCH   9  10
ENDBRANCH   1   9
TORSDOF 6
ENDMDL
MODEL 9
REMARK VINA RESULT:      -4.4      1.502      2.359
REMARK  Name = *****
REMARK                            x       y       z     vdW  Elec       q    Type
REMARK                         _______ _______ _______ _____ _____    ______ ____
ROOT
ATOM      1  C   LIG    1       28.512 -20.933   7.230  0.00  0.00    +0.170 C 
ENDROOT
BRANCH   1   2
ATOM      2  O   LIG    1       29.257 -21.288   8.401  0.00  0.00    -0.386 OA
ATOM      3  H   LIG    1       28.988 -22.185   8.680  0.00  0.00    +0.210 HD
ENDBRANCH   1   2
BRANCH   1   4
ATOM      4  C   LIG    1       27.086 -20.453   7.642  0.00  0.00    +0.164 C 
BRANCH   4   6
ATOM      5  C   LIG    1       24.622 -20.840   7.643  0.00  0.00    +0.192 C 
ATOM      6  N   LIG    1       25.916 -21.153   6.889  0.00  0.00    +0.239 N 
ATOM      7  C   LIG    1       25.786 -20.619   5.470  0.00  0.00    +0.192 C 
ATOM      8  C   LIG    1       26.091 -22.666   6.860  0.00  0.00    +0.192 C 
ENDBRANCH   4   6
ENDBRANCH   1   4
BRANCH   1   9
ATOM      9  C   LIG    1       29.311 -19.849   6.489  0.00  0.00    +0.157 C 
BRANCH   9  10
ATOM     10  C   LIG    1       30.427 -19.296   7.328  0.00  0.00    +0.307 C 
ATOM     11  O   LIG    1       30.276 -18.392   8.144  0.00  0.00    -0.251 OA
BRANCH  10  12
ATOM     12  O   LIG    1       31.608 -19.892   7.125  0.00  0.00    -0.480 OA
ATOM     13  H   LIG    1       32.316 -19.699   7.779  0.00  0.00    +0.295 HD
ENDBRANCH  10  12
ENDBRANCH   9  10
ENDBRANCH   1   9
TORSDOF 6
ENDMDL
