MODEL 1
REMARK VINA RESULT:      -5.4      0.000      0.000
REMARK  Name = *****
REMARK                            x       y       z     vdW  Elec       q    Type
REMARK                         _______ _______ _______ _____ _____    ______ ____
ROOT
ATOM      1  C   LIG    1       27.908 -17.870   4.298  0.00  0.00    +0.117 C 
ENDROOT
BRANCH   1   2
ATOM      2  N   LIG    1       28.034 -18.381   5.673  0.00  0.00    -0.310 NA
ATOM      3  H   LIG    1       28.912 -18.050   6.079  0.00  0.00    +0.122 HD
BRANCH   2   5
ATOM      4  C   LIG    1       29.340 -20.472   6.078  0.00  0.00    +0.024 C 
ATOM      5  C   LIG    1       27.970 -19.859   5.749  0.00  0.00    +0.055 C 
BRANCH   5   6
ATOM      6  C   LIG    1       26.903 -20.264   6.805  0.00  0.00    +0.053 C 
BRANCH   6   7
ATOM      7  C   LIG    1       25.540 -20.589   6.224  0.00  0.00    -0.046 A 
ATOM      8  C   LIG    1       24.450 -20.867   7.061  0.00  0.00    +0.007 A 
ATOM      9  C   LIG    1       23.181 -21.097   6.524  0.00  0.00    +0.045 A 
ATOM     10  C   LIG    1       23.001 -21.081   5.146  0.00  0.00    +0.117 A 
ATOM     11  C   LIG    1       24.074 -20.847   4.294  0.00  0.00    +0.045 A 
ATOM     12  C   LIG    1       25.340 -20.598   4.834  0.00  0.00    +0.007 A 
BRANCH  10  13
ATOM     13  O   LIG    1       21.745 -21.305   4.666  0.00  0.00    -0.507 OA
ATOM     14  H   LIG    1       21.719 -22.188   4.262  0.00  0.00    +0.292 HD
ENDBRANCH  10  13
ENDBRANCH   6   7
ENDBRANCH   5   6
ENDBRANCH   2   5
ENDBRANCH   1   2
BRANCH   1  15
ATOM     15  C   LIG    1       26.497 -17.351   3.917  0.00  0.00    +0.158 C 
BRANCH  15  16
ATOM     16  C   LIG    1       26.447 -15.855   3.671  0.00  0.00    -0.011 A 
ATOM     17  C   LIG    1       27.631 -15.098   3.678  0.00  0.00    +0.051 A 
ATOM     18  C   LIG    1       27.590 -13.730   3.439  0.00  0.00    +0.121 A 
ATOM     19  C   LIG    1       26.386 -13.081   3.187  0.00  0.00    +0.090 A 
ATOM     20  C   LIG    1       25.211 -13.828   3.180  0.00  0.00    +0.121 A 
ATOM     21  C   LIG    1       25.230 -15.198   3.426  0.00  0.00    +0.051 A 
BRANCH  18  22
ATOM     22  O   LIG    1       28.771 -13.047   3.451  0.00  0.00    -0.507 OA
ATOM     23  H   LIG    1       28.992 -12.826   4.370  0.00  0.00    +0.292 HD
ENDBRANCH  18  22
BRANCH  20  24
ATOM     24  O   LIG    1       24.047 -13.169   2.917  0.00  0.00    -0.507 OA
ATOM     25  H   LIG    1       23.659 -12.874   3.758  0.00  0.00    +0.292 HD
ENDBRANCH  20  24
ENDBRANCH  15  16
BRANCH  15  26
ATOM     26  O   LIG    1       26.078 -18.033   2.727  0.00  0.00    -0.386 OA
ATOM     27  H   LIG    1       25.520 -18.782   2.996  0.00  0.00    +0.210 HD
ENDBRANCH  15  26
ENDBRANCH   1  15
TORSDOF 10
ENDMDL
MODEL 2
REMARK VINA RESULT:      -5.2      0.112      2.043
REMARK  Name = *****
REMARK                            x       y       z     vdW  Elec       q    Type
REMARK                         _______ _______ _______ _____ _____    ______ ____
ROOT
ATOM      1  C   LIG    1       27.910 -17.852   4.424  0.00  0.00    +0.117 C 
ENDROOT
BRANCH   1   2
ATOM      2  N   LIG    1       27.980 -18.406   5.788  0.00  0.00    -0.310 NA
ATOM      3  H   LIG    1       28.810 -18.041   6.260  0.00  0.00    +0.122 HD
BRANCH   2   5
ATOM      4  C   LIG    1       29.389 -20.434   6.159  0.00  0.00    +0.024 C 
ATOM      5  C   LIG    1       27.996 -19.886   5.810  0.00  0.00    +0.055 C 
BRANCH   5   6
ATOM      6  C   LIG    1       26.925 -20.388   6.819  0.00  0.00    +0.053 C 
BRANCH   6   7
ATOM      7  C   LIG    1       25.540 -20.564   6.225  0.00  0.00    -0.046 A 
ATOM      8  C   LIG    1       25.355 -20.614   4.835  0.00  0.00    +0.007 A 
ATOM      9  C   LIG    1       24.088 -20.845   4.295  0.00  0.00    +0.045 A 
ATOM     10  C   LIG    1       22.994 -20.996   5.139  0.00  0.00    +0.117 A 
ATOM     11  C   LIG    1       23.146 -20.911   6.518  0.00  0.00    +0.045 A 
ATOM     12  C   LIG    1       24.418 -20.698   7.059  0.00  0.00    +0.007 A 
BRANCH  10  13
ATOM     13  O   LIG    1       21.778 -21.226   4.567  0.00  0.00    -0.507 OA
ATOM     14  H   LIG    1       21.092 -21.135   5.249  0.00  0.00    +0.292 HD
ENDBRANCH  10  13
ENDBRANCH   6   7
ENDBRANCH   5   6
ENDBRANCH   2   5
ENDBRANCH   1   2
BRANCH   1  15
ATOM     15  C   LIG    1       26.513 -17.332   3.997  0.00  0.00    +0.158 C 
BRANCH  15  16
ATOM     16  C   LIG    1       26.490 -15.852   3.670  0.00  0.00    -0.011 A 
ATOM     17  C   LIG    1       25.279 -15.220   3.342  0.00  0.00    +0.051 A 
ATOM     18  C   LIG    1       25.252 -13.861   3.056  0.00  0.00    +0.121 A 
ATOM     19  C   LIG    1       26.414 -13.097   3.087  0.00  0.00    +0.090 A 
ATOM     20  C   LIG    1       27.616 -13.721   3.410  0.00  0.00    +0.121 A 
ATOM     21  C   LIG    1       27.666 -15.082   3.692  0.00  0.00    +0.051 A 
BRANCH  18  22
ATOM     22  O   LIG    1       24.047 -13.299   2.751  0.00  0.00    -0.507 OA
ATOM     23  H   LIG    1       23.754 -13.640   1.890  0.00  0.00    +0.292 HD
ENDBRANCH  18  22
BRANCH  20  24
ATOM     24  O   LIG    1       28.738 -12.946   3.447  0.00  0.00    -0.507 OA
ATOM     25  H   LIG    1       29.441 -13.437   3.903  0.00  0.00    +0.292 HD
ENDBRANCH  20  24
ENDBRANCH  15  16
BRANCH  15  26
ATOM     26  O   LIG    1       26.098 -18.072   2.840  0.00  0.00    -0.386 OA
ATOM     27  H   LIG    1       26.361 -17.564   2.054  0.00  0.00    +0.210 HD
ENDBRANCH  15  26
ENDBRANCH   1  15
TORSDOF 10
ENDMDL
MODEL 3
REMARK VINA RESULT:      -4.9      2.492      4.261
REMARK  Name = *****
REMARK                            x       y       z     vdW  Elec       q    Type
REMARK                         _______ _______ _______ _____ _____    ______ ____
ROOT
ATOM      1  C   LIG    1       22.747 -16.444   4.061  0.00  0.00    +0.117 C 
ENDROOT
BRANCH   1   2
ATOM      2  N   LIG    1       23.064 -17.827   4.455  0.00  0.00    -0.310 NA
ATOM      3  H   LIG    1       23.710 -18.233   3.775  0.00  0.00    +0.122 HD
BRANCH   2   5
ATOM      4  C   LIG    1       20.966 -18.591   3.336  0.00  0.00    +0.024 C 
ATOM      5  C   LIG    1       21.862 -18.682   4.581  0.00  0.00    +0.055 C 
BRANCH   5   6
ATOM      6  C   LIG    1       22.309 -20.147   4.846  0.00  0.00    +0.053 C 
BRANCH   6   7
ATOM      7  C   LIG    1       23.743 -20.287   5.322  0.00  0.00    -0.046 A 
ATOM      8  C   LIG    1       24.028 -20.650   6.647  0.00  0.00    +0.007 A 
ATOM      9  C   LIG    1       25.347 -20.845   7.062  0.00  0.00    +0.045 A 
ATOM     10  C   LIG    1       26.390 -20.646   6.165  0.00  0.00    +0.117 A 
ATOM     11  C   LIG    1       26.135 -20.247   4.858  0.00  0.00    +0.045 A 
ATOM     12  C   LIG    1       24.813 -20.071   4.438  0.00  0.00    +0.007 A 
BRANCH  10  13
ATOM     13  O   LIG    1       27.662 -20.853   6.612  0.00  0.00    -0.507 OA
ATOM     14  H   LIG    1       28.245 -20.977   5.845  0.00  0.00    +0.292 HD
ENDBRANCH  10  13
ENDBRANCH   6   7
ENDBRANCH   5   6
ENDBRANCH   2   5
ENDBRANCH   1   2
BRANCH   1  15
ATOM     15  C   LIG    1       23.559 -15.348   4.800  0.00  0.00    +0.158 C 
BRANCH  15  16
ATOM     16  C   LIG    1       24.343 -14.443   3.870  0.00  0.00    -0.011 A 
ATOM     17  C   LIG    1       23.716 -13.343   3.261  0.00  0.00    +0.051 A 
ATOM     18  C   LIG    1       24.436 -12.504   2.420  0.00  0.00    +0.121 A 
ATOM     19  C   LIG    1       25.784 -12.728   2.163  0.00  0.00    +0.090 A 
ATOM     20  C   LIG    1       26.407 -13.818   2.764  0.00  0.00    +0.121 A 
ATOM     21  C   LIG    1       25.703 -14.676   3.602  0.00  0.00    +0.051 A 
BRANCH  18  22
ATOM     22  O   LIG    1       23.777 -11.447   1.862  0.00  0.00    -0.507 OA
ATOM     23  H   LIG    1       24.080 -10.630   2.292  0.00  0.00    +0.292 HD
ENDBRANCH  18  22
BRANCH  20  24
ATOM     24  O   LIG    1       27.733 -14.007   2.505  0.00  0.00    -0.507 OA
ATOM     25  H   LIG    1       27.908 -13.764   1.580  0.00  0.00    +0.292 HD
ENDBRANCH  20  24
ENDBRANCH  15  16
BRANCH  15  26
ATOM     26  O   LIG    1       22.641 -14.551   5.561  0.00  0.00    -0.386 OA
ATOM     27  H   LIG    1       22.246 -15.123   6.242  0.00  0.00    +0.210 HD
ENDBRANCH  15  26
ENDBRANCH   1  15
TORSDOF 10
ENDMDL
MODEL 4
REMARK VINA RESULT:      -4.9      2.401      6.843
REMARK  Name = *****
REMARK                            x       y       z     vdW  Elec       q    Type
REMARK                         _______ _______ _______ _____ _____    ______ ____
ROOT
ATOM      1  C   LIG    1       23.937 -17.947   3.990  0.00  0.00    +0.117 C 
ENDROOT
BRANCH   1   2
ATOM      2  N   LIG    1       24.349 -16.535   4.052  0.00  0.00    -0.310 NA
ATOM      3  H   LIG    1       24.970 -16.397   4.852  0.00  0.00    +0.122 HD
BRANCH   2   5
ATOM      4  C   LIG    1       22.150 -16.084   5.146  0.00  0.00    +0.024 C 
ATOM      5  C   LIG    1       23.203 -15.601   4.137  0.00  0.00    +0.055 C 
BRANCH   5   6
ATOM      6  C   LIG    1       23.731 -14.186   4.507  0.00  0.00    +0.053 C 
BRANCH   6   7
ATOM      7  C   LIG    1       25.192 -13.955   4.170  0.00  0.00    -0.046 A 
ATOM      8  C   LIG    1       26.122 -13.649   5.174  0.00  0.00    +0.007 A 
ATOM      9  C   LIG    1       27.477 -13.505   4.868  0.00  0.00    +0.045 A 
ATOM     10  C   LIG    1       27.906 -13.636   3.552  0.00  0.00    +0.117 A 
ATOM     11  C   LIG    1       26.997 -13.900   2.534  0.00  0.00    +0.045 A 
ATOM     12  C   LIG    1       25.643 -14.062   2.844  0.00  0.00    +0.007 A 
BRANCH  10  13
ATOM     13  O   LIG    1       29.238 -13.493   3.300  0.00  0.00    -0.507 OA
ATOM     14  H   LIG    1       29.725 -14.157   3.816  0.00  0.00    +0.292 HD
ENDBRANCH  10  13
ENDBRANCH   6   7
ENDBRANCH   5   6
ENDBRANCH   2   5
ENDBRANCH   1   2
BRANCH   1  15
ATOM     15  C   LIG    1       24.993 -18.915   3.397  0.00  0.00    +0.158 C 
BRANCH  15  16
ATOM     16  C   LIG    1       26.128 -19.234   4.350  0.00  0.00    -0.011 A 
ATOM     17  C   LIG    1       27.301 -18.461   4.336  0.00  0.00    +0.051 A 
ATOM     18  C   LIG    1       28.336 -18.743   5.219  0.00  0.00    +0.121 A 
ATOM     19  C   LIG    1       28.238 -19.787   6.131  0.00  0.00    +0.090 A 
ATOM     20  C   LIG    1       27.078 -20.556   6.147  0.00  0.00    +0.121 A 
ATOM     21  C   LIG    1       26.033 -20.296   5.266  0.00  0.00    +0.051 A 
BRANCH  18  22
ATOM     22  O   LIG    1       29.449 -17.955   5.165  0.00  0.00    -0.507 OA
ATOM     23  H   LIG    1       29.444 -17.468   4.325  0.00  0.00    +0.292 HD
ENDBRANCH  18  22
BRANCH  20  24
ATOM     24  O   LIG    1       27.003 -21.565   7.061  0.00  0.00    -0.507 OA
ATOM     25  H   LIG    1       26.067 -21.776   7.216  0.00  0.00    +0.292 HD
ENDBRANCH  20  24
ENDBRANCH  15  16
BRANCH  15  26
ATOM     26  O   LIG    1       24.328 -20.134   3.039  0.00  0.00    -0.386 OA
ATOM     27  H   LIG    1       24.233 -20.147   2.071  0.00  0.00    +0.210 HD
ENDBRANCH  15  26
ENDBRANCH   1  15
TORSDOF 10
ENDMDL
MODEL 5
REMARK VINA RESULT:      -4.8      2.436      4.306
REMARK  Name = *****
REMARK                            x       y       z     vdW  Elec       q    Type
REMARK                         _______ _______ _______ _____ _____    ______ ____
ROOT
ATOM      1  C   LIG    1       22.852 -16.042   3.691  0.00  0.00    +0.117 C 
ENDROOT
BRANCH   1   2
ATOM      2  N   LIG    1       22.383 -16.848   4.831  0.00  0.00    -0.310 NA
ATOM      3  H   LIG    1       23.121 -16.899   5.536  0.00  0.00    +0.122 HD
BRANCH   2   5
ATOM      4  C   LIG    1       20.674 -18.194   3.605  0.00  0.00    +0.024 C 
ATOM      5  C   LIG    1       21.963 -18.213   4.440  0.00  0.00    +0.055 C 
BRANCH   5   6
ATOM      6  C   LIG    1       23.125 -18.897   3.666  0.00  0.00    +0.053 C 
BRANCH   6   7
ATOM      7  C   LIG    1       24.126 -19.617   4.550  0.00  0.00    -0.046 A 
ATOM      8  C   LIG    1       25.503 -19.527   4.298  0.00  0.00    +0.007 A 
ATOM      9  C   LIG    1       26.424 -20.135   5.154  0.00  0.00    +0.045 A 
ATOM     10  C   LIG    1       25.973 -20.863   6.249  0.00  0.00    +0.117 A 
ATOM     11  C   LIG    1       24.612 -21.000   6.497  0.00  0.00    +0.045 A 
ATOM     12  C   LIG    1       23.691 -20.375   5.650  0.00  0.00    +0.007 A 
BRANCH  10  13
ATOM     13  O   LIG    1       26.907 -21.434   7.061  0.00  0.00    -0.507 OA
ATOM     14  H   LIG    1       27.041 -20.860   7.833  0.00  0.00    +0.292 HD
ENDBRANCH  10  13
ENDBRANCH   6   7
ENDBRANCH   5   6
ENDBRANCH   2   5
ENDBRANCH   1   2
BRANCH   1  15
ATOM     15  C   LIG    1       23.480 -14.676   4.067  0.00  0.00    +0.158 C 
BRANCH  15  16
ATOM     16  C   LIG    1       24.993 -14.711   4.171  0.00  0.00    -0.011 A 
ATOM     17  C   LIG    1       25.705 -15.834   3.720  0.00  0.00    +0.051 A 
ATOM     18  C   LIG    1       27.092 -15.863   3.801  0.00  0.00    +0.121 A 
ATOM     19  C   LIG    1       27.804 -14.790   4.325  0.00  0.00    +0.090 A 
ATOM     20  C   LIG    1       27.100 -13.676   4.775  0.00  0.00    +0.121 A 
ATOM     21  C   LIG    1       25.711 -13.630   4.711  0.00  0.00    +0.051 A 
BRANCH  18  22
ATOM     22  O   LIG    1       27.732 -16.977   3.340  0.00  0.00    -0.507 OA
ATOM     23  H   LIG    1       28.515 -17.135   3.892  0.00  0.00    +0.292 HD
ENDBRANCH  18  22
BRANCH  20  24
ATOM     24  O   LIG    1       27.824 -12.633   5.272  0.00  0.00    -0.507 OA
ATOM     25  H   LIG    1       27.445 -11.803   4.936  0.00  0.00    +0.292 HD
ENDBRANCH  20  24
ENDBRANCH  15  16
BRANCH  15  26
ATOM     26  O   LIG    1       23.105 -13.722   3.063  0.00  0.00    -0.386 OA
ATOM     27  H   LIG    1       22.731 -14.214   2.312  0.00  0.00    +0.210 HD
ENDBRANCH  15  26
ENDBRANCH   1  15
TORSDOF 10
ENDMDL
MODEL 6
REMARK VINA RESULT:      -4.6      2.528      6.613
REMARK  Name = *****
REMARK                            x       y       z     vdW  Elec       q    Type
REMARK                         _______ _______ _______ _____ _____    ______ ____
ROOT
ATOM      1  C   LIG    1       24.123 -19.797   4.225  0.00  0.00    +0.117 C 
ENDROOT
BRANCH   1   2
ATOM      2  N   LIG    1       23.260 -18.829   4.923  0.00  0.00    -0.310 NA
ATOM      3  H   LIG    1       22.544 -19.332   5.452  0.00  0.00    +0.122 HD
BRANCH   2   5
ATOM      4  C   LIG    1       21.166 -18.245   3.694  0.00  0.00    +0.024 C 
ATOM      5  C   LIG    1       22.620 -17.859   4.005  0.00  0.00    +0.055 C 
BRANCH   5   6
ATOM      6  C   LIG    1       22.703 -16.439   4.633  0.00  0.00    +0.053 C 
BRANCH   6   7
ATOM      7  C   LIG    1       23.830 -15.580   4.089  0.00  0.00    -0.046 A 
ATOM      8  C   LIG    1       23.681 -14.190   3.970  0.00  0.00    +0.007 A 
ATOM      9  C   LIG    1       24.743 -13.396   3.534  0.00  0.00    +0.045 A 
ATOM     10  C   LIG    1       25.951 -13.989   3.185  0.00  0.00    +0.117 A 
ATOM     11  C   LIG    1       26.111 -15.368   3.257  0.00  0.00    +0.045 A 
ATOM     12  C   LIG    1       25.051 -16.161   3.711  0.00  0.00    +0.007 A 
BRANCH  10  13
ATOM     13  O   LIG    1       26.963 -13.175   2.770  0.00  0.00    -0.507 OA
ATOM     14  H   LIG    1       27.241 -13.452   1.882  0.00  0.00    +0.292 HD
ENDBRANCH  10  13
ENDBRANCH   6   7
ENDBRANCH   5   6
ENDBRANCH   2   5
ENDBRANCH   1   2
BRANCH   1  15
ATOM     15  C   LIG    1       24.943 -20.732   5.151  0.00  0.00    +0.158 C 
BRANCH  15  16
ATOM     16  C   LIG    1       26.371 -20.270   5.370  0.00  0.00    -0.011 A 
ATOM     17  C   LIG    1       27.257 -21.051   6.131  0.00  0.00    +0.051 A 
ATOM     18  C   LIG    1       28.570 -20.637   6.321  0.00  0.00    +0.121 A 
ATOM     19  C   LIG    1       29.036 -19.450   5.766  0.00  0.00    +0.090 A 
ATOM     20  C   LIG    1       28.160 -18.674   5.013  0.00  0.00    +0.121 A 
ATOM     21  C   LIG    1       26.839 -19.065   4.818  0.00  0.00    +0.051 A 
BRANCH  18  22
ATOM     22  O   LIG    1       29.388 -21.439   7.062  0.00  0.00    -0.507 OA
ATOM     23  H   LIG    1       28.928 -21.675   7.884  0.00  0.00    +0.292 HD
ENDBRANCH  18  22
BRANCH  20  24
ATOM     24  O   LIG    1       28.647 -17.521   4.471  0.00  0.00    -0.507 OA
ATOM     25  H   LIG    1       28.576 -17.578   3.503  0.00  0.00    +0.292 HD
ENDBRANCH  20  24
ENDBRANCH  15  16
BRANCH  15  26
ATOM     26  O   LIG    1       24.276 -20.799   6.419  0.00  0.00    -0.386 OA
ATOM     27  H   LIG    1       23.606 -20.094   6.440  0.00  0.00    +0.210 HD
ENDBRANCH  15  26
ENDBRANCH   1  15
TORSDOF 10
ENDMDL
MODEL 7
REMARK VINA RESULT:      -4.6      2.451      3.831
REMARK  Name = *****
REMARK                            x       y       z     vdW  Elec       q    Type
REMARK                         _______ _______ _______ _____ _____    ______ ____
ROOT
ATOM      1  C   LIG    1       22.827 -16.964   4.059  0.00  0.00    +0.117 C 
ENDROOT
BRANCH   1   2
ATOM      2  N   LIG    1       22.346 -18.089   4.880  0.00  0.00    -0.310 NA
ATOM      3  H   LIG    1       22.822 -18.076   5.785  0.00  0.00    +0.122 HD
BRANCH   2   5
ATOM      4  C   LIG    1       23.509 -19.314   3.041  0.00  0.00    +0.024 C 
ATOM      5  C   LIG    1       22.537 -19.404   4.228  0.00  0.00    +0.055 C 
BRANCH   5   6
ATOM      6  C   LIG    1       23.036 -20.426   5.288  0.00  0.00    +0.053 C 
BRANCH   6   7
ATOM      7  C   LIG    1       24.524 -20.356   5.573  0.00  0.00    -0.046 A 
ATOM      8  C   LIG    1       25.035 -20.726   6.825  0.00  0.00    +0.007 A 
ATOM      9  C   LIG    1       26.412 -20.725   7.060  0.00  0.00    +0.045 A 
ATOM     10  C   LIG    1       27.284 -20.325   6.055  0.00  0.00    +0.117 A 
ATOM     11  C   LIG    1       26.800 -19.916   4.818  0.00  0.00    +0.045 A 
ATOM     12  C   LIG    1       25.422 -19.934   4.578  0.00  0.00    +0.007 A 
BRANCH  10  13
ATOM     13  O   LIG    1       28.620 -20.346   6.327  0.00  0.00    -0.507 OA
ATOM     14  H   LIG    1       28.768 -19.928   7.191  0.00  0.00    +0.292 HD
ENDBRANCH  10  13
ENDBRANCH   6   7
ENDBRANCH   5   6
ENDBRANCH   2   5
ENDBRANCH   1   2
BRANCH   1  15
ATOM     15  C   LIG    1       23.417 -15.773   4.858  0.00  0.00    +0.158 C 
BRANCH  15  16
ATOM     16  C   LIG    1       24.119 -14.748   3.988  0.00  0.00    -0.011 A 
ATOM     17  C   LIG    1       25.418 -14.994   3.515  0.00  0.00    +0.051 A 
ATOM     18  C   LIG    1       26.057 -14.062   2.706  0.00  0.00    +0.121 A 
ATOM     19  C   LIG    1       25.432 -12.873   2.347  0.00  0.00    +0.090 A 
ATOM     20  C   LIG    1       24.145 -12.626   2.816  0.00  0.00    +0.121 A 
ATOM     21  C   LIG    1       23.490 -13.542   3.634  0.00  0.00    +0.051 A 
BRANCH  18  22
ATOM     22  O   LIG    1       27.316 -14.357   2.269  0.00  0.00    -0.507 OA
ATOM     23  H   LIG    1       27.957 -14.011   2.912  0.00  0.00    +0.292 HD
ENDBRANCH  18  22
BRANCH  20  24
ATOM     24  O   LIG    1       23.550 -11.459   2.438  0.00  0.00    -0.507 OA
ATOM     25  H   LIG    1       24.201 -10.740   2.506  0.00  0.00    +0.292 HD
ENDBRANCH  20  24
ENDBRANCH  15  16
BRANCH  15  26
ATOM     26  O   LIG    1       22.343 -15.133   5.560  0.00  0.00    -0.386 OA
ATOM     27  H   LIG    1       22.674 -14.877   6.438  0.00  0.00    +0.210 HD
ENDBRANCH  15  26
ENDBRANCH   1  15
TORSDOF 10
ENDMDL
MODEL 8
REMARK VINA RESULT:      -4.6      2.488      4.415
REMARK  Name = *****
REMARK                            x       y       z     vdW  Elec       q    Type
REMARK                         _______ _______ _______ _____ _____    ______ ____
ROOT
ATOM      1  C   LIG    1       23.339 -13.529   4.155  0.00  0.00    +0.117 C 
ENDROOT
BRANCH   1   2
ATOM      2  N   LIG    1       22.730 -14.811   3.761  0.00  0.00    -0.310 NA
ATOM      3  H   LIG    1       21.777 -14.646   3.433  0.00  0.00    +0.122 HD
BRANCH   2   5
ATOM      4  C   LIG    1       21.974 -15.289   6.092  0.00  0.00    +0.024 C 
ATOM      5  C   LIG    1       22.723 -15.808   4.855  0.00  0.00    +0.055 C 
BRANCH   5   6
ATOM      6  C   LIG    1       22.096 -17.130   4.330  0.00  0.00    +0.053 C 
BRANCH   6   7
ATOM      7  C   LIG    1       22.998 -18.343   4.456  0.00  0.00    -0.046 A 
ATOM      8  C   LIG    1       24.131 -18.485   3.642  0.00  0.00    +0.007 A 
ATOM      9  C   LIG    1       24.996 -19.569   3.808  0.00  0.00    +0.045 A 
ATOM     10  C   LIG    1       24.716 -20.534   4.768  0.00  0.00    +0.117 A 
ATOM     11  C   LIG    1       23.578 -20.437   5.560  0.00  0.00    +0.045 A 
ATOM     12  C   LIG    1       22.723 -19.341   5.406  0.00  0.00    +0.007 A 
BRANCH  10  13
ATOM     13  O   LIG    1       25.591 -21.572   4.900  0.00  0.00    -0.507 OA
ATOM     14  H   LIG    1       25.203 -22.231   5.499  0.00  0.00    +0.292 HD
ENDBRANCH  10  13
ENDBRANCH   6   7
ENDBRANCH   5   6
ENDBRANCH   2   5
ENDBRANCH   1   2
BRANCH   1  15
ATOM     15  C   LIG    1       24.451 -13.010   3.207  0.00  0.00    +0.158 C 
BRANCH  15  16
ATOM     16  C   LIG    1       25.809 -13.632   3.466  0.00  0.00    -0.011 A 
ATOM     17  C   LIG    1       26.911 -12.818   3.777  0.00  0.00    +0.051 A 
ATOM     18  C   LIG    1       28.153 -13.387   4.029  0.00  0.00    +0.121 A 
ATOM     19  C   LIG    1       28.336 -14.764   3.981  0.00  0.00    +0.090 A 
ATOM     20  C   LIG    1       27.247 -15.573   3.670  0.00  0.00    +0.121 A 
ATOM     21  C   LIG    1       25.996 -15.024   3.407  0.00  0.00    +0.051 A 
BRANCH  18  22
ATOM     22  O   LIG    1       29.186 -12.548   4.334  0.00  0.00    -0.507 OA
ATOM     23  H   LIG    1       29.850 -13.045   4.838  0.00  0.00    +0.292 HD
ENDBRANCH  18  22
BRANCH  20  24
ATOM     24  O   LIG    1       27.451 -16.921   3.642  0.00  0.00    -0.507 OA
ATOM     25  H   LIG    1       28.249 -17.127   4.157  0.00  0.00    +0.292 HD
ENDBRANCH  20  24
ENDBRANCH  15  16
BRANCH  15  26
ATOM     26  O   LIG    1       24.055 -13.298   1.858  0.00  0.00    -0.386 OA
ATOM     27  H   LIG    1       24.860 -13.490   1.348  0.00  0.00    +0.210 HD
ENDBRANCH  15  26
ENDBRANCH   1  15
TORSDOF 10
ENDMDL
MODEL 9
REMARK VINA RESULT:      -4.5      2.513      4.551
REMARK  Name = *****
REMARK                            x       y       z     vdW  Elec       q    Type
REMARK                         _______ _______ _______ _____ _____    ______ ____
ROOT
ATOM      1  C   LIG    1       23.371 -13.740   4.541  0.00  0.00    +0.117 C 
ENDROOT
BRANCH   1   2
ATOM      2  N   LIG    1       22.766 -14.987   4.041  0.00  0.00    -0.310 NA
ATOM      3  H   LIG    1       21.894 -14.769   3.555  0.00  0.00    +0.122 HD
BRANCH   2   5
ATOM      4  C   LIG    1       21.525 -15.441   6.160  0.00  0.00    +0.024 C 
ATOM      5  C   LIG    1       22.513 -15.977   5.113  0.00  0.00    +0.055 C 
BRANCH   5   6
ATOM      6  C   LIG    1       21.995 -17.294   4.471  0.00  0.00    +0.053 C 
BRANCH   6   7
ATOM      7  C   LIG    1       22.953 -18.465   4.585  0.00  0.00    -0.046 A 
ATOM      8  C   LIG    1       24.098 -18.537   3.778  0.00  0.00    +0.007 A 
ATOM      9  C   LIG    1       25.013 -19.581   3.934  0.00  0.00    +0.045 A 
ATOM     10  C   LIG    1       24.773 -20.575   4.875  0.00  0.00    +0.117 A 
ATOM     11  C   LIG    1       23.626 -20.546   5.659  0.00  0.00    +0.045 A 
ATOM     12  C   LIG    1       22.720 -19.491   5.515  0.00  0.00    +0.007 A 
BRANCH  10  13
ATOM     13  O   LIG    1       25.697 -21.571   4.997  0.00  0.00    -0.507 OA
ATOM     14  H   LIG    1       26.255 -21.576   4.202  0.00  0.00    +0.292 HD
ENDBRANCH  10  13
ENDBRANCH   6   7
ENDBRANCH   5   6
ENDBRANCH   2   5
ENDBRANCH   1   2
BRANCH   1  15
ATOM     15  C   LIG    1       24.359 -13.052   3.564  0.00  0.00    +0.158 C 
BRANCH  15  16
ATOM     16  C   LIG    1       25.761 -13.628   3.611  0.00  0.00    -0.011 A 
ATOM     17  C   LIG    1       25.952 -15.020   3.594  0.00  0.00    +0.051 A 
ATOM     18  C   LIG    1       27.236 -15.551   3.622  0.00  0.00    +0.121 A 
ATOM     19  C   LIG    1       28.354 -14.725   3.667  0.00  0.00    +0.090 A 
ATOM     20  C   LIG    1       28.167 -13.346   3.685  0.00  0.00    +0.121 A 
ATOM     21  C   LIG    1       26.890 -12.794   3.666  0.00  0.00    +0.051 A 
BRANCH  18  22
ATOM     22  O   LIG    1       27.363 -16.909   3.596  0.00  0.00    -0.507 OA
ATOM     23  H   LIG    1       26.510 -17.305   3.840  0.00  0.00    +0.292 HD
ENDBRANCH  18  22
BRANCH  20  24
ATOM     24  O   LIG    1       29.280 -12.559   3.716  0.00  0.00    -0.507 OA
ATOM     25  H   LIG    1       29.012 -11.646   3.915  0.00  0.00    +0.292 HD
ENDBRANCH  20  24
ENDBRANCH  15  16
BRANCH  15  26
ATOM     26  O   LIG    1       23.841 -13.194   2.234  0.00  0.00    -0.386 OA
ATOM     27  H   LIG    1       23.790 -12.307   1.839  0.00  0.00    +0.210 HD
ENDBRANCH  15  26
ENDBRANCH   1  15
TORSDOF 10
ENDMDL
