MODEL 1
REMARK VINA RESULT:      -4.2      0.000      0.000
REMARK  Name = *****
REMARK                            x       y       z     vdW  Elec       q    Type
REMARK                         _______ _______ _______ _____ _____    ______ ____
ROOT
ATOM      1  C   LIG    1       24.911 -17.756   3.454  0.00  0.00    +0.234 C 
ATOM      2  N   LIG    1       24.728 -16.526   4.100  0.00  0.00    -0.284 N 
ATOM      3  H   LIG    1       23.783 -16.319   4.380  0.00  0.00    +0.155 HD
ATOM      4  O   LIG    1       25.762 -17.944   2.594  0.00  0.00    -0.274 OA
ENDROOT
BRANCH   2   5
ATOM      5  C   LIG    1       25.505 -15.400   3.718  0.00  0.00    +0.039 A 
ATOM      6  C   LIG    1       24.855 -14.197   3.360  0.00  0.00    -0.029 A 
ATOM      7  C   LIG    1       23.371 -13.993   3.498  0.00  0.00    +0.045 C 
ATOM      8  C   LIG    1       25.625 -13.137   2.846  0.00  0.00    +0.005 A 
ATOM      9  C   LIG    1       27.005 -13.256   2.706  0.00  0.00    +0.001 A 
ATOM     10  C   LIG    1       27.646 -14.408   3.144  0.00  0.00    +0.005 A 
ATOM     11  C   LIG    1       26.913 -15.470   3.692  0.00  0.00    -0.029 A 
ATOM     12  C   LIG    1       27.700 -16.589   4.321  0.00  0.00    +0.045 C 
ENDBRANCH   2   5
BRANCH   1  13
ATOM     13  C   LIG    1       23.923 -18.902   3.860  0.00  0.00    +0.143 C 
BRANCH  13  14
ATOM     14  C   LIG    1       22.642 -18.305   4.505  0.00  0.00    +0.025 C 
ATOM     15  C   LIG    1       21.332 -18.596   3.793  0.00  0.00    +0.006 C 
ENDBRANCH  13  14
BRANCH  13  16
ATOM     16  N   LIG    1       24.575 -20.040   4.578  0.00  0.00    -0.292 NA
BRANCH  16  17
ATOM     17  C   LIG    1       23.947 -20.397   5.863  0.00  0.00    +0.082 C 
ATOM     18  C   LIG    1       22.928 -21.535   5.749  0.00  0.00    +0.020 C 
ENDBRANCH  16  17
BRANCH  16  19
ATOM     19  C   LIG    1       26.048 -19.939   4.723  0.00  0.00    +0.085 C 
BRANCH  19  21
ATOM     20  C   LIG    1       28.185 -19.986   6.049  0.00  0.00    +0.005 C 
ATOM     21  C   LIG    1       26.703 -20.368   6.046  0.00  0.00    +0.012 C 
ENDBRANCH  19  21
ENDBRANCH  16  19
ENDBRANCH  13  16
ENDBRANCH   1  13
TORSDOF 7
ENDMDL
MODEL 2
REMARK VINA RESULT:      -3.6      0.311      1.967
REMARK  Name = *****
REMARK                            x       y       z     vdW  Elec       q    Type
REMARK                         _______ _______ _______ _____ _____    ______ ____
ROOT
ATOM      1  C   LIG    1       24.921 -17.676   3.441  0.00  0.00    +0.234 C 
ATOM      2  N   LIG    1       24.801 -16.452   4.113  0.00  0.00    -0.284 N 
ATOM      3  H   LIG    1       23.866 -16.198   4.388  0.00  0.00    +0.155 HD
ATOM      4  O   LIG    1       25.769 -17.893   2.585  0.00  0.00    -0.274 OA
ENDROOT
BRANCH   2   5
ATOM      5  C   LIG    1       25.645 -15.364   3.763  0.00  0.00    +0.039 A 
ATOM      6  C   LIG    1       27.047 -15.519   3.844  0.00  0.00    -0.029 A 
ATOM      7  C   LIG    1       27.713 -16.834   4.146  0.00  0.00    +0.045 C 
ATOM      8  C   LIG    1       27.866 -14.394   3.636  0.00  0.00    +0.005 A 
ATOM      9  C   LIG    1       27.315 -13.151   3.339  0.00  0.00    +0.001 A 
ATOM     10  C   LIG    1       25.941 -13.027   3.173  0.00  0.00    +0.005 A 
ATOM     11  C   LIG    1       25.098 -14.135   3.340  0.00  0.00    -0.029 A 
ATOM     12  C   LIG    1       23.655 -13.960   2.949  0.00  0.00    +0.045 C 
ENDBRANCH   2   5
BRANCH   1  13
ATOM     13  C   LIG    1       23.866 -18.773   3.811  0.00  0.00    +0.143 C 
BRANCH  13  14
ATOM     14  C   LIG    1       22.607 -18.117   4.443  0.00  0.00    +0.025 C 
ATOM     15  C   LIG    1       21.277 -18.438   3.781  0.00  0.00    +0.006 C 
ENDBRANCH  13  14
BRANCH  13  16
ATOM     16  N   LIG    1       24.442 -19.955   4.523  0.00  0.00    -0.292 NA
BRANCH  16  17
ATOM     17  C   LIG    1       23.771 -20.298   5.790  0.00  0.00    +0.082 C 
ATOM     18  C   LIG    1       22.766 -21.447   5.657  0.00  0.00    +0.020 C 
ENDBRANCH  16  17
BRANCH  16  19
ATOM     19  C   LIG    1       25.915 -19.935   4.698  0.00  0.00    +0.085 C 
BRANCH  19  21
ATOM     20  C   LIG    1       28.013 -20.071   6.078  0.00  0.00    +0.005 C 
ATOM     21  C   LIG    1       26.519 -20.398   6.033  0.00  0.00    +0.012 C 
ENDBRANCH  19  21
ENDBRANCH  16  19
ENDBRANCH  13  16
ENDBRANCH   1  13
TORSDOF 7
ENDMDL
MODEL 3
REMARK VINA RESULT:      -3.5      0.910      2.079
REMARK  Name = *****
REMARK                            x       y       z     vdW  Elec       q    Type
REMARK                         _______ _______ _______ _____ _____    ______ ____
ROOT
ATOM      1  C   LIG    1       25.408 -18.097   3.429  0.00  0.00    +0.234 C 
ATOM      2  N   LIG    1       25.102 -17.005   4.252  0.00  0.00    -0.284 N 
ATOM      3  H   LIG    1       24.228 -17.070   4.750  0.00  0.00    +0.155 HD
ATOM      4  O   LIG    1       26.051 -17.997   2.392  0.00  0.00    -0.274 OA
ENDROOT
BRANCH   2   5
ATOM      5  C   LIG    1       25.480 -15.692   3.862  0.00  0.00    +0.039 A 
ATOM      6  C   LIG    1       24.484 -14.702   3.703  0.00  0.00    -0.029 A 
ATOM      7  C   LIG    1       23.040 -14.922   4.064  0.00  0.00    +0.045 C 
ATOM      8  C   LIG    1       24.852 -13.449   3.179  0.00  0.00    +0.005 A 
ATOM      9  C   LIG    1       26.174 -13.176   2.837  0.00  0.00    +0.001 A 
ATOM     10  C   LIG    1       27.160 -14.124   3.081  0.00  0.00    +0.005 A 
ATOM     11  C   LIG    1       26.833 -15.370   3.634  0.00  0.00    -0.029 A 
ATOM     12  C   LIG    1       27.978 -16.254   4.048  0.00  0.00    +0.045 C 
ENDBRANCH   2   5
BRANCH   1  13
ATOM     13  C   LIG    1       24.842 -19.484   3.883  0.00  0.00    +0.143 C 
BRANCH  13  14
ATOM     14  C   LIG    1       23.292 -19.493   3.778  0.00  0.00    +0.025 C 
ATOM     15  C   LIG    1       22.533 -18.950   4.977  0.00  0.00    +0.006 C 
ENDBRANCH  13  14
BRANCH  13  16
ATOM     16  N   LIG    1       25.436 -19.997   5.157  0.00  0.00    -0.292 NA
BRANCH  16  17
ATOM     17  C   LIG    1       26.903 -19.886   5.240  0.00  0.00    +0.082 C 
ATOM     18  C   LIG    1       27.461 -20.199   6.633  0.00  0.00    +0.020 C 
ENDBRANCH  16  17
BRANCH  16  19
ATOM     19  C   LIG    1       24.987 -21.350   5.567  0.00  0.00    +0.085 C 
BRANCH  19  21
ATOM     20  C   LIG    1       22.966 -21.424   7.062  0.00  0.00    +0.005 C 
ATOM     21  C   LIG    1       24.488 -21.571   7.004  0.00  0.00    +0.012 C 
ENDBRANCH  19  21
ENDBRANCH  16  19
ENDBRANCH  13  16
ENDBRANCH   1  13
TORSDOF 7
ENDMDL
MODEL 4
REMARK VINA RESULT:      -3.5      1.189      6.500
REMARK  Name = *****
REMARK                            x       y       z     vdW  Elec       q    Type
REMARK                         _______ _______ _______ _____ _____    ______ ____
ROOT
ATOM      1  C   LIG    1       25.774 -17.869   3.325  0.00  0.00    +0.234 C 
ATOM      2  N   LIG    1       25.020 -17.998   4.499  0.00  0.00    -0.284 N 
ATOM      3  H   LIG    1       25.446 -17.620   5.331  0.00  0.00    +0.155 HD
ATOM      4  O   LIG    1       25.737 -18.681   2.410  0.00  0.00    -0.274 OA
ENDROOT
BRANCH   2   5
ATOM      5  C   LIG    1       24.212 -19.148   4.703  0.00  0.00    +0.039 A 
ATOM      6  C   LIG    1       24.814 -20.353   5.130  0.00  0.00    -0.029 A 
ATOM      7  C   LIG    1       26.263 -20.453   5.525  0.00  0.00    +0.045 C 
ATOM      8  C   LIG    1       24.030 -21.519   5.189  0.00  0.00    +0.005 A 
ATOM      9  C   LIG    1       22.680 -21.493   4.851  0.00  0.00    +0.001 A 
ATOM     10  C   LIG    1       22.075 -20.287   4.518  0.00  0.00    +0.005 A 
ATOM     11  C   LIG    1       22.820 -19.099   4.482  0.00  0.00    -0.029 A 
ATOM     12  C   LIG    1       22.052 -17.817   4.310  0.00  0.00    +0.045 C 
ENDBRANCH   2   5
BRANCH   1  13
ATOM     13  C   LIG    1       26.727 -16.628   3.249  0.00  0.00    +0.143 C 
BRANCH  13  14
ATOM     14  C   LIG    1       27.724 -16.641   4.441  0.00  0.00    +0.025 C 
ATOM     15  C   LIG    1       28.477 -17.941   4.673  0.00  0.00    +0.006 C 
ENDBRANCH  13  14
BRANCH  13  16
ATOM     16  N   LIG    1       26.024 -15.338   2.970  0.00  0.00    -0.292 NA
BRANCH  16  17
ATOM     17  C   LIG    1       26.865 -14.301   2.346  0.00  0.00    +0.082 C 
ATOM     18  C   LIG    1       27.586 -13.407   3.362  0.00  0.00    +0.020 C 
ENDBRANCH  16  17
BRANCH  16  19
ATOM     19  C   LIG    1       25.253 -14.776   4.106  0.00  0.00    +0.085 C 
BRANCH  19  21
ATOM     20  C   LIG    1       24.046 -12.570   4.089  0.00  0.00    +0.005 C 
ATOM     21  C   LIG    1       23.915 -14.072   3.830  0.00  0.00    +0.012 C 
ENDBRANCH  19  21
ENDBRANCH  16  19
ENDBRANCH  13  16
ENDBRANCH   1  13
TORSDOF 7
ENDMDL
MODEL 5
REMARK VINA RESULT:      -3.4      0.820      2.631
REMARK  Name = *****
REMARK                            x       y       z     vdW  Elec       q    Type
REMARK                         _______ _______ _______ _____ _____    ______ ____
ROOT
ATOM      1  C   LIG    1       25.327 -17.578   3.653  0.00  0.00    +0.234 C 
ATOM      2  N   LIG    1       25.113 -16.383   4.353  0.00  0.00    -0.284 N 
ATOM      3  H   LIG    1       24.315 -16.379   4.969  0.00  0.00    +0.155 HD
ATOM      4  O   LIG    1       25.822 -17.622   2.534  0.00  0.00    -0.274 OA
ENDROOT
BRANCH   2   5
ATOM      5  C   LIG    1       25.411 -15.137   3.741  0.00  0.00    +0.039 A 
ATOM      6  C   LIG    1       24.354 -14.269   3.384  0.00  0.00    -0.029 A 
ATOM      7  C   LIG    1       22.918 -14.529   3.749  0.00  0.00    +0.045 C 
ATOM      8  C   LIG    1       24.651 -13.106   2.650  0.00  0.00    +0.005 A 
ATOM      9  C   LIG    1       25.961 -12.799   2.292  0.00  0.00    +0.001 A 
ATOM     10  C   LIG    1       27.002 -13.611   2.724  0.00  0.00    +0.005 A 
ATOM     11  C   LIG    1       26.745 -14.759   3.486  0.00  0.00    -0.029 A 
ATOM     12  C   LIG    1       27.935 -15.466   4.077  0.00  0.00    +0.045 C 
ENDBRANCH   2   5
BRANCH   1  13
ATOM     13  C   LIG    1       24.853 -18.890   4.365  0.00  0.00    +0.143 C 
BRANCH  13  14
ATOM     14  C   LIG    1       25.970 -19.969   4.302  0.00  0.00    +0.025 C 
ATOM     15  C   LIG    1       26.887 -20.058   5.511  0.00  0.00    +0.006 C 
ENDBRANCH  13  14
BRANCH  13  16
ATOM     16  N   LIG    1       23.472 -19.323   3.986  0.00  0.00    -0.292 NA
BRANCH  16  17
ATOM     17  C   LIG    1       22.394 -18.456   4.494  0.00  0.00    +0.082 C 
ATOM     18  C   LIG    1       21.130 -18.482   3.628  0.00  0.00    +0.020 C 
ENDBRANCH  16  17
BRANCH  16  19
ATOM     19  C   LIG    1       23.162 -20.751   4.243  0.00  0.00    +0.085 C 
BRANCH  19  21
ATOM     20  C   LIG    1       23.418 -21.295   6.685  0.00  0.00    +0.005 C 
ATOM     21  C   LIG    1       22.423 -21.139   5.533  0.00  0.00    +0.012 C 
ENDBRANCH  19  21
ENDBRANCH  16  19
ENDBRANCH  13  16
ENDBRANCH   1  13
TORSDOF 7
ENDMDL
MODEL 6
REMARK VINA RESULT:      -3.3      1.170      6.215
REMARK  Name = *****
REMARK                            x       y       z     vdW  Elec       q    Type
REMARK                         _______ _______ _______ _____ _____    ______ ____
ROOT
ATOM      1  C   LIG    1       25.732 -17.897   3.318  0.00  0.00    +0.234 C 
ATOM      2  N   LIG    1       24.977 -18.034   4.490  0.00  0.00    -0.284 N 
ATOM      3  H   LIG    1       25.394 -17.648   5.322  0.00  0.00    +0.155 HD
ATOM      4  O   LIG    1       25.709 -18.712   2.404  0.00  0.00    -0.274 OA
ENDROOT
BRANCH   2   5
ATOM      5  C   LIG    1       24.185 -19.196   4.694  0.00  0.00    +0.039 A 
ATOM      6  C   LIG    1       22.797 -19.145   4.429  0.00  0.00    -0.029 A 
ATOM      7  C   LIG    1       22.123 -17.956   3.799  0.00  0.00    +0.045 C 
ATOM      8  C   LIG    1       22.001 -20.253   4.771  0.00  0.00    +0.005 A 
ATOM      9  C   LIG    1       22.563 -21.390   5.345  0.00  0.00    +0.001 A 
ATOM     10  C   LIG    1       23.940 -21.466   5.519  0.00  0.00    +0.005 A 
ATOM     11  C   LIG    1       24.767 -20.393   5.157  0.00  0.00    -0.029 A 
ATOM     12  C   LIG    1       26.252 -20.634   5.192  0.00  0.00    +0.045 C 
ENDBRANCH   2   5
BRANCH   1  13
ATOM     13  C   LIG    1       26.666 -16.643   3.240  0.00  0.00    +0.143 C 
BRANCH  13  14
ATOM     14  C   LIG    1       27.667 -16.645   4.430  0.00  0.00    +0.025 C 
ATOM     15  C   LIG    1       28.414 -17.945   4.679  0.00  0.00    +0.006 C 
ENDBRANCH  13  14
BRANCH  13  16
ATOM     16  N   LIG    1       25.945 -15.362   2.965  0.00  0.00    -0.292 NA
BRANCH  16  17
ATOM     17  C   LIG    1       26.765 -14.319   2.324  0.00  0.00    +0.082 C 
ATOM     18  C   LIG    1       27.516 -13.433   3.324  0.00  0.00    +0.020 C 
ENDBRANCH  16  17
BRANCH  16  19
ATOM     19  C   LIG    1       25.185 -14.804   4.111  0.00  0.00    +0.085 C 
BRANCH  19  21
ATOM     20  C   LIG    1       24.048 -12.563   4.234  0.00  0.00    +0.005 C 
ATOM     21  C   LIG    1       23.882 -14.033   3.842  0.00  0.00    +0.012 C 
ENDBRANCH  19  21
ENDBRANCH  16  19
ENDBRANCH  13  16
ENDBRANCH   1  13
TORSDOF 7
ENDMDL
MODEL 7
REMARK VINA RESULT:      -3.2      1.630      3.061
REMARK  Name = *****
REMARK                            x       y       z     vdW  Elec       q    Type
REMARK                         _______ _______ _______ _____ _____    ______ ____
ROOT
ATOM      1  C   LIG    1       26.490 -16.912   3.766  0.00  0.00    +0.234 C 
ATOM      2  N   LIG    1       26.440 -15.668   4.409  0.00  0.00    -0.284 N 
ATOM      3  H   LIG    1       26.291 -15.701   5.405  0.00  0.00    +0.155 HD
ATOM      4  O   LIG    1       26.111 -17.090   2.615  0.00  0.00    -0.274 OA
ENDROOT
BRANCH   2   5
ATOM      5  C   LIG    1       25.865 -14.549   3.748  0.00  0.00    +0.039 A 
ATOM      6  C   LIG    1       24.462 -14.382   3.759  0.00  0.00    -0.029 A 
ATOM      7  C   LIG    1       23.536 -15.257   4.560  0.00  0.00    +0.045 C 
ATOM      8  C   LIG    1       23.896 -13.355   2.983  0.00  0.00    +0.005 A 
ATOM      9  C   LIG    1       24.697 -12.502   2.229  0.00  0.00    +0.001 A 
ATOM     10  C   LIG    1       26.080 -12.616   2.295  0.00  0.00    +0.005 A 
ATOM     11  C   LIG    1       26.679 -13.608   3.085  0.00  0.00    -0.029 A 
ATOM     12  C   LIG    1       28.172 -13.535   3.256  0.00  0.00    +0.045 C 
ENDBRANCH   2   5
BRANCH   1  13
ATOM     13  C   LIG    1       27.028 -18.110   4.620  0.00  0.00    +0.143 C 
BRANCH  13  14
ATOM     14  C   LIG    1       28.581 -18.140   4.586  0.00  0.00    +0.025 C 
ATOM     15  C   LIG    1       29.275 -18.515   5.885  0.00  0.00    +0.006 C 
ENDBRANCH  13  14
BRANCH  13  16
ATOM     16  N   LIG    1       26.320 -19.403   4.368  0.00  0.00    -0.292 NA
BRANCH  16  17
ATOM     17  C   LIG    1       24.871 -19.277   4.132  0.00  0.00    +0.082 C 
ATOM     18  C   LIG    1       24.257 -20.497   3.438  0.00  0.00    +0.020 C 
ENDBRANCH  16  17
BRANCH  16  19
ATOM     19  C   LIG    1       26.602 -20.482   5.347  0.00  0.00    +0.085 C 
BRANCH  19  21
ATOM     20  C   LIG    1       25.032 -21.442   7.062  0.00  0.00    +0.005 C 
ATOM     21  C   LIG    1       26.067 -20.350   6.782  0.00  0.00    +0.012 C 
ENDBRANCH  19  21
ENDBRANCH  16  19
ENDBRANCH  13  16
ENDBRANCH   1  13
TORSDOF 7
ENDMDL
MODEL 8
REMARK VINA RESULT:      -2.8      1.454      3.308
REMARK  Name = *****
REMARK                            x       y       z     vdW  Elec       q    Type
REMARK                         _______ _______ _______ _____ _____    ______ ____
ROOT
ATOM      1  C   LIG    1       26.445 -16.978   3.870  0.00  0.00    +0.234 C 
ATOM      2  N   LIG    1       26.383 -15.719   4.480  0.00  0.00    -0.284 N 
ATOM      3  H   LIG    1       26.195 -15.726   5.470  0.00  0.00    +0.155 HD
ATOM      4  O   LIG    1       26.109 -17.181   2.710  0.00  0.00    -0.274 OA
ENDROOT
BRANCH   2   5
ATOM      5  C   LIG    1       25.846 -14.611   3.772  0.00  0.00    +0.039 A 
ATOM      6  C   LIG    1       24.446 -14.419   3.740  0.00  0.00    -0.029 A 
ATOM      7  C   LIG    1       23.484 -15.252   4.543  0.00  0.00    +0.045 C 
ATOM      8  C   LIG    1       23.919 -13.406   2.919  0.00  0.00    +0.005 A 
ATOM      9  C   LIG    1       24.755 -12.591   2.160  0.00  0.00    +0.001 A 
ATOM     10  C   LIG    1       26.134 -12.728   2.266  0.00  0.00    +0.005 A 
ATOM     11  C   LIG    1       26.693 -13.705   3.101  0.00  0.00    -0.029 A 
ATOM     12  C   LIG    1       28.183 -13.653   3.309  0.00  0.00    +0.045 C 
ENDBRANCH   2   5
BRANCH   1  13
ATOM     13  C   LIG    1       26.936 -18.160   4.773  0.00  0.00    +0.143 C 
BRANCH  13  14
ATOM     14  C   LIG    1       28.435 -18.463   4.493  0.00  0.00    +0.025 C 
ATOM     15  C   LIG    1       29.372 -18.383   5.686  0.00  0.00    +0.006 C 
ENDBRANCH  13  14
BRANCH  13  16
ATOM     16  N   LIG    1       26.004 -19.329   4.806  0.00  0.00    -0.292 NA
BRANCH  16  17
ATOM     17  C   LIG    1       26.500 -20.490   5.567  0.00  0.00    +0.082 C 
ATOM     18  C   LIG    1       25.937 -20.572   6.990  0.00  0.00    +0.020 C 
ENDBRANCH  16  17
BRANCH  16  19
ATOM     19  C   LIG    1       25.471 -19.753   3.488  0.00  0.00    +0.085 C 
BRANCH  19  21
ATOM     20  C   LIG    1       23.162 -19.011   4.153  0.00  0.00    +0.005 C 
ATOM     21  C   LIG    1       23.966 -20.029   3.341  0.00  0.00    +0.012 C 
ENDBRANCH  19  21
ENDBRANCH  16  19
ENDBRANCH  13  16
ENDBRANCH   1  13
TORSDOF 7
ENDMDL
MODEL 9
REMARK VINA RESULT:      -2.7      1.603      3.383
REMARK  Name = *****
REMARK                            x       y       z     vdW  Elec       q    Type
REMARK                         _______ _______ _______ _____ _____    ______ ____
ROOT
ATOM      1  C   LIG    1       26.348 -17.032   3.767  0.00  0.00    +0.234 C 
ATOM      2  N   LIG    1       26.303 -15.770   4.373  0.00  0.00    -0.284 N 
ATOM      3  H   LIG    1       26.221 -15.774   5.378  0.00  0.00    +0.155 HD
ATOM      4  O   LIG    1       25.899 -17.258   2.650  0.00  0.00    -0.274 OA
ENDROOT
BRANCH   2   5
ATOM      5  C   LIG    1       25.652 -14.689   3.719  0.00  0.00    +0.039 A 
ATOM      6  C   LIG    1       26.413 -13.793   2.935  0.00  0.00    -0.029 A 
ATOM      7  C   LIG    1       27.873 -14.001   2.633  0.00  0.00    +0.045 C 
ATOM      8  C   LIG    1       25.785 -12.648   2.412  0.00  0.00    +0.005 A 
ATOM      9  C   LIG    1       24.434 -12.403   2.644  0.00  0.00    +0.001 A 
ATOM     10  C   LIG    1       23.673 -13.335   3.339  0.00  0.00    +0.005 A 
ATOM     11  C   LIG    1       24.261 -14.503   3.845  0.00  0.00    -0.029 A 
ATOM     12  C   LIG    1       23.331 -15.545   4.408  0.00  0.00    +0.045 C 
ENDBRANCH   2   5
BRANCH   1  13
ATOM     13  C   LIG    1       26.977 -18.185   4.619  0.00  0.00    +0.143 C 
BRANCH  13  14
ATOM     14  C   LIG    1       28.527 -18.140   4.525  0.00  0.00    +0.025 C 
ATOM     15  C   LIG    1       29.288 -18.450   5.803  0.00  0.00    +0.006 C 
ENDBRANCH  13  14
BRANCH  13  16
ATOM     16  N   LIG    1       26.326 -19.517   4.416  0.00  0.00    -0.292 NA
BRANCH  16  17
ATOM     17  C   LIG    1       24.874 -19.461   4.171  0.00  0.00    +0.082 C 
ATOM     18  C   LIG    1       24.363 -20.590   3.269  0.00  0.00    +0.020 C 
ENDBRANCH  16  17
BRANCH  16  19
ATOM     19  C   LIG    1       26.647 -20.543   5.438  0.00  0.00    +0.085 C 
BRANCH  19  21
ATOM     20  C   LIG    1       24.786 -21.022   7.061  0.00  0.00    +0.005 C 
ATOM     21  C   LIG    1       26.148 -20.348   6.879  0.00  0.00    +0.012 C 
ENDBRANCH  19  21
ENDBRANCH  16  19
ENDBRANCH  13  16
ENDBRANCH   1  13
TORSDOF 7
ENDMDL
