MODEL 1
REMARK VINA RESULT:      -6.6      0.000      0.000
REMARK  Name = *****
REMARK                            x       y       z     vdW  Elec       q    Type
REMARK                         _______ _______ _______ _____ _____    ______ ____
ROOT
ATOM      1  C   LIG    1       26.545 -20.490   8.328  0.00  0.00    +0.307 C 
ATOM      2  O   LIG    1       26.062 -20.470   9.443  0.00  0.00    -0.251 OA
ENDROOT
BRANCH   1   3
ATOM      3  C   LIG    1       25.816 -20.855   7.040  0.00  0.00    +0.120 C 
BRANCH   3   4
ATOM      4  C   LIG    1       24.627 -21.796   7.262  0.00  0.00    +0.011 C 
BRANCH   4   5
ATOM      5  C   LIG    1       23.266 -21.092   7.062  0.00  0.00    +0.000 C 
BRANCH   5   6
ATOM      6  C   LIG    1       22.920 -20.887   5.577  0.00  0.00    -0.000 C 
BRANCH   6   7
ATOM      7  C   LIG    1       22.562 -19.429   5.234  0.00  0.00    -0.000 C 
BRANCH   7   9
ATOM      8  C   LIG    1       24.644 -19.415   3.738  0.00  0.00    +0.004 C 
ATOM      9  C   LIG    1       23.218 -18.923   3.939  0.00  0.00    -0.003 C 
ENDBRANCH   7   9
ENDBRANCH   6   7
ENDBRANCH   5   6
ENDBRANCH   4   5
ENDBRANCH   3   4
ENDBRANCH   1   3
BRANCH   1  10
ATOM     10  O   LIG    1       27.836 -20.127   8.029  0.00  0.00    -0.462 OA
BRANCH  10  11
ATOM     11  C   LIG    1       28.764 -21.215   7.895  0.00  0.00    +0.265 C 
BRANCH  11  12
ATOM     12  C   LIG    1       30.194 -20.786   8.250  0.00  0.00    +0.177 C 
BRANCH  12  13
ATOM     13  O   LIG    1       30.178 -19.586   9.037  0.00  0.00    -0.386 OA
ATOM     14  H   LIG    1       30.719 -18.926   8.566  0.00  0.00    +0.210 HD
ENDBRANCH  12  13
BRANCH  12  15
ATOM     15  C   LIG    1       30.923 -21.874   9.051  0.00  0.00    +0.190 C 
BRANCH  15  16
ATOM     16  O   LIG    1       32.222 -21.418   9.430  0.00  0.00    -0.392 OA
ATOM     17  H   LIG    1       32.833 -21.828   8.788  0.00  0.00    +0.209 HD
ENDBRANCH  15  16
ENDBRANCH  12  15
ENDBRANCH  11  12
ENDBRANCH  10  11
ENDBRANCH   1  10
TORSDOF 12
ENDMDL
MODEL 2
REMARK VINA RESULT:      -6.6      2.320      4.229
REMARK  Name = *****
REMARK                            x       y       z     vdW  Elec       q    Type
REMARK                         _______ _______ _______ _____ _____    ______ ____
ROOT
ATOM      1  C   LIG    1       30.828 -20.621   8.687  0.00  0.00    +0.307 C 
ATOM      2  O   LIG    1       30.550 -21.631   9.302  0.00  0.00    -0.251 OA
ENDROOT
BRANCH   1   3
ATOM      3  C   LIG    1       30.030 -20.024   7.534  0.00  0.00    +0.120 C 
BRANCH   3   4
ATOM      4  C   LIG    1       28.955 -20.970   6.986  0.00  0.00    +0.011 C 
BRANCH   4   5
ATOM      5  C   LIG    1       27.556 -20.318   6.939  0.00  0.00    +0.000 C 
BRANCH   5   6
ATOM      6  C   LIG    1       26.789 -20.471   8.265  0.00  0.00    -0.000 C 
BRANCH   6   7
ATOM      7  C   LIG    1       25.308 -20.843   8.069  0.00  0.00    -0.000 C 
BRANCH   7   9
ATOM      8  C   LIG    1       23.328 -20.630   6.454  0.00  0.00    +0.004 C 
ATOM      9  C   LIG    1       24.838 -20.752   6.608  0.00  0.00    -0.003 C 
ENDBRANCH   7   9
ENDBRANCH   6   7
ENDBRANCH   5   6
ENDBRANCH   4   5
ENDBRANCH   3   4
ENDBRANCH   1   3
BRANCH   1  10
ATOM     10  O   LIG    1       31.897 -19.804   8.967  0.00  0.00    -0.462 OA
BRANCH  10  11
ATOM     11  C   LIG    1       31.826 -18.485   8.402  0.00  0.00    +0.265 C 
BRANCH  11  12
ATOM     12  C   LIG    1       32.102 -17.403   9.454  0.00  0.00    +0.177 C 
BRANCH  12  13
ATOM     13  O   LIG    1       32.454 -16.164   8.820  0.00  0.00    -0.386 OA
ATOM     14  H   LIG    1       32.749 -16.377   7.916  0.00  0.00    +0.210 HD
ENDBRANCH  12  13
BRANCH  12  15
ATOM     15  C   LIG    1       30.873 -17.156  10.339  0.00  0.00    +0.190 C 
BRANCH  15  16
ATOM     16  O   LIG    1       30.665 -18.265  11.213  0.00  0.00    -0.392 OA
ATOM     17  H   LIG    1       30.927 -19.051  10.695  0.00  0.00    +0.209 HD
ENDBRANCH  15  16
ENDBRANCH  12  15
ENDBRANCH  11  12
ENDBRANCH  10  11
ENDBRANCH   1  10
TORSDOF 12
ENDMDL
MODEL 3
REMARK VINA RESULT:      -6.5      1.174      1.279
REMARK  Name = *****
REMARK                            x       y       z     vdW  Elec       q    Type
REMARK                         _______ _______ _______ _____ _____    ______ ____
ROOT
ATOM      1  C   LIG    1       26.539 -20.457   8.370  0.00  0.00    +0.307 C 
ATOM      2  O   LIG    1       25.987 -20.457   9.452  0.00  0.00    -0.251 OA
ENDROOT
BRANCH   1   3
ATOM      3  C   LIG    1       25.867 -20.672   7.019  0.00  0.00    +0.120 C 
BRANCH   3   4
ATOM      4  C   LIG    1       24.633 -21.579   7.094  0.00  0.00    +0.011 C 
BRANCH   4   5
ATOM      5  C   LIG    1       23.309 -20.793   6.970  0.00  0.00    +0.000 C 
BRANCH   5   6
ATOM      6  C   LIG    1       22.800 -20.718   5.520  0.00  0.00    -0.000 C 
BRANCH   6   7
ATOM      7  C   LIG    1       22.490 -19.283   5.059  0.00  0.00    -0.000 C 
BRANCH   7   9
ATOM      8  C   LIG    1       24.643 -19.545   3.692  0.00  0.00    +0.004 C 
ATOM      9  C   LIG    1       23.299 -18.844   3.828  0.00  0.00    -0.003 C 
ENDBRANCH   7   9
ENDBRANCH   6   7
ENDBRANCH   5   6
ENDBRANCH   4   5
ENDBRANCH   3   4
ENDBRANCH   1   3
BRANCH   1  10
ATOM     10  O   LIG    1       27.875 -20.204   8.174  0.00  0.00    -0.462 OA
BRANCH  10  11
ATOM     11  C   LIG    1       28.270 -20.012   6.806  0.00  0.00    +0.265 C 
BRANCH  11  12
ATOM     12  C   LIG    1       29.777 -19.749   6.683  0.00  0.00    +0.177 C 
BRANCH  12  13
ATOM     13  O   LIG    1       30.022 -18.372   6.358  0.00  0.00    -0.386 OA
ATOM     14  H   LIG    1       30.442 -18.355   5.479  0.00  0.00    +0.210 HD
ENDBRANCH  12  13
BRANCH  12  15
ATOM     15  C   LIG    1       30.510 -20.070   7.993  0.00  0.00    +0.190 C 
BRANCH  15  16
ATOM     16  O   LIG    1       30.530 -21.480   8.213  0.00  0.00    -0.392 OA
ATOM     17  H   LIG    1       30.343 -21.592   9.165  0.00  0.00    +0.209 HD
ENDBRANCH  15  16
ENDBRANCH  12  15
ENDBRANCH  11  12
ENDBRANCH  10  11
ENDBRANCH   1  10
TORSDOF 12
ENDMDL
MODEL 4
REMARK VINA RESULT:      -6.3      1.274      1.928
REMARK  Name = *****
REMARK                            x       y       z     vdW  Elec       q    Type
REMARK                         _______ _______ _______ _____ _____    ______ ____
ROOT
ATOM      1  C   LIG    1       28.222 -20.127   6.926  0.00  0.00    +0.307 C 
ATOM      2  O   LIG    1       28.505 -19.463   5.948  0.00  0.00    -0.251 OA
ENDROOT
BRANCH   1   3
ATOM      3  C   LIG    1       27.298 -21.338   6.953  0.00  0.00    +0.120 C 
BRANCH   3   4
ATOM      4  C   LIG    1       25.873 -21.024   6.483  0.00  0.00    +0.011 C 
BRANCH   4   5
ATOM      5  C   LIG    1       24.907 -20.746   7.656  0.00  0.00    +0.000 C 
BRANCH   5   6
ATOM      6  C   LIG    1       23.429 -20.812   7.232  0.00  0.00    -0.000 C 
BRANCH   6   7
ATOM      7  C   LIG    1       23.235 -20.821   5.705  0.00  0.00    -0.000 C 
BRANCH   7   9
ATOM      8  C   LIG    1       23.258 -18.924   3.981  0.00  0.00    +0.004 C 
ATOM      9  C   LIG    1       22.543 -19.559   5.165  0.00  0.00    -0.003 C 
ENDBRANCH   7   9
ENDBRANCH   6   7
ENDBRANCH   5   6
ENDBRANCH   4   5
ENDBRANCH   3   4
ENDBRANCH   1   3
BRANCH   1  10
ATOM     10  O   LIG    1       28.740 -19.926   8.183  0.00  0.00    -0.462 OA
BRANCH  10  11
ATOM     11  C   LIG    1       29.895 -19.074   8.243  0.00  0.00    +0.265 C 
BRANCH  11  12
ATOM     12  C   LIG    1       31.192 -19.886   8.358  0.00  0.00    +0.177 C 
BRANCH  12  13
ATOM     13  O   LIG    1       32.090 -19.268   9.292  0.00  0.00    -0.386 OA
ATOM     14  H   LIG    1       31.702 -19.378  10.179  0.00  0.00    +0.210 HD
ENDBRANCH  12  13
BRANCH  12  15
ATOM     15  C   LIG    1       30.917 -21.318   8.834  0.00  0.00    +0.190 C 
BRANCH  15  16
ATOM     16  O   LIG    1       32.070 -21.850   9.487  0.00  0.00    -0.392 OA
ATOM     17  H   LIG    1       32.310 -21.185  10.161  0.00  0.00    +0.209 HD
ENDBRANCH  15  16
ENDBRANCH  12  15
ENDBRANCH  11  12
ENDBRANCH  10  11
ENDBRANCH   1  10
TORSDOF 12
ENDMDL
MODEL 5
REMARK VINA RESULT:      -6.3      2.572      4.414
REMARK  Name = *****
REMARK                            x       y       z     vdW  Elec       q    Type
REMARK                         _______ _______ _______ _____ _____    ______ ____
ROOT
ATOM      1  C   LIG    1       30.773 -19.242   7.249  0.00  0.00    +0.307 C 
ATOM      2  O   LIG    1       31.892 -19.597   6.937  0.00  0.00    -0.251 OA
ENDROOT
BRANCH   1   3
ATOM      3  C   LIG    1       29.522 -20.114   7.251  0.00  0.00    +0.120 C 
BRANCH   3   4
ATOM      4  C   LIG    1       28.553 -19.786   6.109  0.00  0.00    +0.011 C 
BRANCH   4   5
ATOM      5  C   LIG    1       27.165 -20.435   6.302  0.00  0.00    +0.000 C 
BRANCH   5   6
ATOM      6  C   LIG    1       26.959 -20.975   7.728  0.00  0.00    -0.000 C 
BRANCH   6   7
ATOM      7  C   LIG    1       25.546 -20.709   8.279  0.00  0.00    -0.000 C 
BRANCH   7   9
ATOM      8  C   LIG    1       23.394 -20.686   6.887  0.00  0.00    +0.004 C 
ATOM      9  C   LIG    1       24.449 -21.532   7.585  0.00  0.00    -0.003 C 
ENDBRANCH   7   9
ENDBRANCH   6   7
ENDBRANCH   5   6
ENDBRANCH   4   5
ENDBRANCH   3   4
ENDBRANCH   1   3
BRANCH   1  10
ATOM     10  O   LIG    1       30.451 -17.990   7.713  0.00  0.00    -0.462 OA
BRANCH  10  11
ATOM     11  C   LIG    1       30.016 -17.934   9.081  0.00  0.00    +0.265 C 
BRANCH  11  12
ATOM     12  C   LIG    1       31.184 -17.657  10.036  0.00  0.00    +0.177 C 
BRANCH  12  13
ATOM     13  O   LIG    1       32.199 -18.663   9.895  0.00  0.00    -0.386 OA
ATOM     14  H   LIG    1       33.027 -18.205   9.664  0.00  0.00    +0.210 HD
ENDBRANCH  12  13
BRANCH  12  15
ATOM     15  C   LIG    1       31.823 -16.290   9.758  0.00  0.00    +0.190 C 
BRANCH  15  16
ATOM     16  O   LIG    1       32.658 -16.363   8.603  0.00  0.00    -0.392 OA
ATOM     17  H   LIG    1       33.571 -16.287   8.943  0.00  0.00    +0.209 HD
ENDBRANCH  15  16
ENDBRANCH  12  15
ENDBRANCH  11  12
ENDBRANCH  10  11
ENDBRANCH   1  10
TORSDOF 12
ENDMDL
MODEL 6
REMARK VINA RESULT:      -6.3      4.733      6.068
REMARK  Name = *****
REMARK                            x       y       z     vdW  Elec       q    Type
REMARK                         _______ _______ _______ _____ _____    ______ ____
ROOT
ATOM      1  C   LIG    1       23.940 -24.454   6.446  0.00  0.00    +0.307 C 
ATOM      2  O   LIG    1       22.814 -24.163   6.798  0.00  0.00    -0.251 OA
ENDROOT
BRANCH   1   3
ATOM      3  C   LIG    1       25.126 -23.502   6.352  0.00  0.00    +0.120 C 
BRANCH   3   4
ATOM      4  C   LIG    1       25.576 -22.958   7.714  0.00  0.00    +0.011 C 
BRANCH   4   5
ATOM      5  C   LIG    1       25.342 -21.438   7.854  0.00  0.00    +0.000 C 
BRANCH   5   6
ATOM      6  C   LIG    1       24.761 -20.809   6.575  0.00  0.00    -0.000 C 
BRANCH   6   7
ATOM      7  C   LIG    1       23.239 -20.592   6.643  0.00  0.00    -0.000 C 
BRANCH   7   9
ATOM      8  C   LIG    1       22.389 -19.111   4.731  0.00  0.00    +0.004 C 
ATOM      9  C   LIG    1       22.564 -20.526   5.263  0.00  0.00    -0.003 C 
ENDBRANCH   7   9
ENDBRANCH   6   7
ENDBRANCH   5   6
ENDBRANCH   4   5
ENDBRANCH   3   4
ENDBRANCH   1   3
BRANCH   1  10
ATOM     10  O   LIG    1       24.353 -25.723   6.119  0.00  0.00    -0.462 OA
BRANCH  10  11
ATOM     11  C   LIG    1       25.108 -25.829   4.902  0.00  0.00    +0.265 C 
BRANCH  11  12
ATOM     12  C   LIG    1       25.913 -27.134   4.847  0.00  0.00    +0.177 C 
BRANCH  12  13
ATOM     13  O   LIG    1       27.214 -26.946   5.423  0.00  0.00    -0.386 OA
ATOM     14  H   LIG    1       27.629 -27.826   5.490  0.00  0.00    +0.210 HD
ENDBRANCH  12  13
BRANCH  12  15
ATOM     15  C   LIG    1       25.208 -28.260   5.614  0.00  0.00    +0.190 C 
BRANCH  15  16
ATOM     16  O   LIG    1       23.921 -28.510   5.049  0.00  0.00    -0.392 OA
ATOM     17  H   LIG    1       23.284 -28.137   5.689  0.00  0.00    +0.209 HD
ENDBRANCH  15  16
ENDBRANCH  12  15
ENDBRANCH  11  12
ENDBRANCH  10  11
ENDBRANCH   1  10
TORSDOF 12
ENDMDL
MODEL 7
REMARK VINA RESULT:      -6.2      1.668      2.614
REMARK  Name = *****
REMARK                            x       y       z     vdW  Elec       q    Type
REMARK                         _______ _______ _______ _____ _____    ______ ____
ROOT
ATOM      1  C   LIG    1       26.535 -21.448   8.406  0.00  0.00    +0.307 C 
ATOM      2  O   LIG    1       25.742 -21.475   9.326  0.00  0.00    -0.251 OA
ENDROOT
BRANCH   1   3
ATOM      3  C   LIG    1       26.625 -22.457   7.268  0.00  0.00    +0.120 C 
BRANCH   3   4
ATOM      4  C   LIG    1       25.482 -23.479   7.271  0.00  0.00    +0.011 C 
BRANCH   4   5
ATOM      5  C   LIG    1       24.326 -23.081   6.328  0.00  0.00    +0.000 C 
BRANCH   5   6
ATOM      6  C   LIG    1       23.200 -22.329   7.058  0.00  0.00    -0.000 C 
BRANCH   6   7
ATOM      7  C   LIG    1       23.205 -20.814   6.785  0.00  0.00    -0.000 C 
BRANCH   7   9
ATOM      8  C   LIG    1       22.417 -19.304   4.869  0.00  0.00    +0.004 C 
ATOM      9  C   LIG    1       23.314 -20.458   5.293  0.00  0.00    -0.003 C 
ENDBRANCH   7   9
ENDBRANCH   6   7
ENDBRANCH   5   6
ENDBRANCH   4   5
ENDBRANCH   3   4
ENDBRANCH   1   3
BRANCH   1  10
ATOM     10  O   LIG    1       27.465 -20.456   8.206  0.00  0.00    -0.462 OA
BRANCH  10  11
ATOM     11  C   LIG    1       28.689 -20.879   7.584  0.00  0.00    +0.265 C 
BRANCH  11  12
ATOM     12  C   LIG    1       29.509 -19.684   7.079  0.00  0.00    +0.177 C 
BRANCH  12  13
ATOM     13  O   LIG    1       30.878 -20.066   6.872  0.00  0.00    -0.386 OA
ATOM     14  H   LIG    1       31.407 -19.248   6.864  0.00  0.00    +0.210 HD
ENDBRANCH  12  13
BRANCH  12  15
ATOM     15  C   LIG    1       28.957 -19.145   5.753  0.00  0.00    +0.190 C 
BRANCH  15  16
ATOM     16  O   LIG    1       28.036 -20.078   5.188  0.00  0.00    -0.392 OA
ATOM     17  H   LIG    1       28.586 -20.822   4.877  0.00  0.00    +0.209 HD
ENDBRANCH  15  16
ENDBRANCH  12  15
ENDBRANCH  11  12
ENDBRANCH  10  11
ENDBRANCH   1  10
TORSDOF 12
ENDMDL
MODEL 8
REMARK VINA RESULT:      -6.2      1.975      2.858
REMARK  Name = *****
REMARK                            x       y       z     vdW  Elec       q    Type
REMARK                         _______ _______ _______ _____ _____    ______ ____
ROOT
ATOM      1  C   LIG    1       28.674 -20.250   7.426  0.00  0.00    +0.307 C 
ATOM      2  O   LIG    1       29.228 -20.148   6.349  0.00  0.00    -0.251 OA
ENDROOT
BRANCH   1   3
ATOM      3  C   LIG    1       27.502 -21.167   7.751  0.00  0.00    +0.120 C 
BRANCH   3   4
ATOM      4  C   LIG    1       26.292 -20.424   8.330  0.00  0.00    +0.011 C 
BRANCH   4   5
ATOM      5  C   LIG    1       24.960 -20.858   7.680  0.00  0.00    +0.000 C 
BRANCH   5   6
ATOM      6  C   LIG    1       25.141 -21.350   6.233  0.00  0.00    -0.000 C 
BRANCH   6   7
ATOM      7  C   LIG    1       24.422 -20.466   5.198  0.00  0.00    -0.000 C 
BRANCH   7   9
ATOM      8  C   LIG    1       22.391 -18.948   4.823  0.00  0.00    +0.004 C 
ATOM      9  C   LIG    1       22.965 -20.144   5.569  0.00  0.00    -0.003 C 
ENDBRANCH   7   9
ENDBRANCH   6   7
ENDBRANCH   5   6
ENDBRANCH   4   5
ENDBRANCH   3   4
ENDBRANCH   1   3
BRANCH   1  10
ATOM     10  O   LIG    1       29.054 -19.582   8.565  0.00  0.00    -0.462 OA
BRANCH  10  11
ATOM     11  C   LIG    1       30.093 -18.606   8.388  0.00  0.00    +0.265 C 
BRANCH  11  12
ATOM     12  C   LIG    1       31.130 -18.672   9.518  0.00  0.00    +0.177 C 
BRANCH  12  13
ATOM     13  O   LIG    1       32.051 -19.749   9.291  0.00  0.00    -0.386 OA
ATOM     14  H   LIG    1       32.791 -19.390   8.769  0.00  0.00    +0.210 HD
ENDBRANCH  12  13
BRANCH  12  15
ATOM     15  C   LIG    1       31.932 -17.368   9.618  0.00  0.00    +0.190 C 
BRANCH  15  16
ATOM     16  O   LIG    1       32.397 -16.976   8.327  0.00  0.00    -0.392 OA
ATOM     17  H   LIG    1       33.170 -16.404   8.497  0.00  0.00    +0.209 HD
ENDBRANCH  15  16
ENDBRANCH  12  15
ENDBRANCH  11  12
ENDBRANCH  10  11
ENDBRANCH   1  10
TORSDOF 12
ENDMDL
MODEL 9
REMARK VINA RESULT:      -6.1      3.368      5.494
REMARK  Name = *****
REMARK                            x       y       z     vdW  Elec       q    Type
REMARK                         _______ _______ _______ _____ _____    ______ ____
ROOT
ATOM      1  C   LIG    1       31.499 -18.544   8.581  0.00  0.00    +0.307 C 
ATOM      2  O   LIG    1       32.095 -19.536   8.950  0.00  0.00    -0.251 OA
ENDROOT
BRANCH   1   3
ATOM      3  C   LIG    1       30.172 -18.521   7.832  0.00  0.00    +0.120 C 
BRANCH   3   4
ATOM      4  C   LIG    1       29.763 -19.892   7.280  0.00  0.00    +0.011 C 
BRANCH   4   5
ATOM      5  C   LIG    1       28.718 -19.790   6.148  0.00  0.00    +0.000 C 
BRANCH   5   6
ATOM      6  C   LIG    1       27.389 -20.479   6.506  0.00  0.00    -0.000 C 
BRANCH   6   7
ATOM      7  C   LIG    1       27.035 -20.373   8.000  0.00  0.00    -0.000 C 
BRANCH   7   9
ATOM      8  C   LIG    1       25.904 -22.652   7.687  0.00  0.00    +0.004 C 
ATOM      9  C   LIG    1       25.909 -21.326   8.435  0.00  0.00    -0.003 C 
ENDBRANCH   7   9
ENDBRANCH   6   7
ENDBRANCH   5   6
ENDBRANCH   4   5
ENDBRANCH   3   4
ENDBRANCH   1   3
BRANCH   1  10
ATOM     10  O   LIG    1       31.901 -17.254   8.828  0.00  0.00    -0.462 OA
BRANCH  10  11
ATOM     11  C   LIG    1       32.470 -17.026  10.127  0.00  0.00    +0.265 C 
BRANCH  11  12
ATOM     12  C   LIG    1       31.388 -16.934  11.211  0.00  0.00    +0.177 C 
BRANCH  12  13
ATOM     13  O   LIG    1       30.790 -18.220  11.435  0.00  0.00    -0.386 OA
ATOM     14  H   LIG    1       30.376 -18.494  10.597  0.00  0.00    +0.210 HD
ENDBRANCH  12  13
BRANCH  12  15
ATOM     15  C   LIG    1       31.969 -16.437  12.542  0.00  0.00    +0.190 C 
BRANCH  15  16
ATOM     16  O   LIG    1       31.341 -15.214  12.926  0.00  0.00    -0.392 OA
ATOM     17  H   LIG    1       32.073 -14.577  13.039  0.00  0.00    +0.209 HD
ENDBRANCH  15  16
ENDBRANCH  12  15
ENDBRANCH  11  12
ENDBRANCH  10  11
ENDBRANCH   1  10
TORSDOF 12
ENDMDL
