MODEL 1
REMARK VINA RESULT:      -6.2      0.000      0.000
REMARK  Name = *****
REMARK                            x       y       z     vdW  Elec       q    Type
REMARK                         _______ _______ _______ _____ _____    ______ ____
ROOT
ATOM      1  C   LIG    1       24.870 -27.320  13.545  0.00  0.00    +0.201 C 
ATOM      2  C   LIG    1       23.828 -28.164  13.341  0.00  0.00    +0.169 C 
ATOM      3  C   LIG    1       22.405 -27.627  13.280  0.00  0.00    +0.270 C 
ATOM      4  O   LIG    1       22.131 -26.467  12.994  0.00  0.00    -0.268 OA
ATOM      5  N   LIG    1       21.417 -28.571  13.571  0.00  0.00    -0.272 N 
ATOM      6  C   LIG    1       21.816 -29.902  14.002  0.00  0.00    +0.206 C 
ATOM      7  N   LIG    1       22.860 -30.420  13.077  0.00  0.00    -0.236 NA
ATOM      8  C   LIG    1       20.640 -30.817  14.410  0.00  0.00    +0.203 C 
ATOM      9  O   LIG    1       19.430 -30.527  13.721  0.00  0.00    -0.375 OA
ATOM     10  C   LIG    1       18.980 -29.187  13.913  0.00  0.00    +0.179 C 
ATOM     11  C   LIG    1       20.079 -28.112  13.931  0.00  0.00    +0.138 C 
ATOM     12  N   LIG    1       23.986 -29.562  13.282  0.00  0.00    -0.260 NA
ATOM     13  C   LIG    1       25.154 -30.143  13.724  0.00  0.00    +0.113 C 
ATOM     14  C   LIG    1       26.260 -29.444  13.982  0.00  0.00    +0.074 C 
ATOM     15  C   LIG    1       26.219 -27.983  13.736  0.00  0.00    +0.224 C 
ATOM     16  O   LIG    1       27.282 -27.370  13.724  0.00  0.00    -0.284 OA
ENDROOT
BRANCH   7  17
ATOM     17  C   LIG    1       22.529 -30.509  11.597  0.00  0.00    +0.154 C 
ATOM     18  C   LIG    1       23.757 -30.850  10.690  0.00  0.00    -0.014 C 
ATOM     19  C   LIG    1       24.337 -32.128  10.498  0.00  0.00    +0.006 C 
ATOM     20  C   LIG    1       25.521 -32.223   9.717  0.00  0.00    +0.163 C 
ATOM     21  C   LIG    1       26.091 -31.129   9.087  0.00  0.00    +0.159 C 
ATOM     22  C   LIG    1       25.506 -29.887   9.216  0.00  0.00    +0.041 C 
ATOM     23  F   LIG    1       27.186 -31.280   8.330  0.00  0.00    -0.203 F 
ATOM     24  F   LIG    1       26.104 -33.423   9.551  0.00  0.00    -0.202 F 
ATOM     25  C   LIG    1       23.810 -33.481  10.906  0.00  0.00    +0.112 C 
ATOM     26  S   LIG    1       22.556 -33.655  12.182  0.00  0.00    -0.120 S 
ATOM     27  C   LIG    1       21.207 -32.717  11.502  0.00  0.00    +0.013 C 
ATOM     28  C   LIG    1       19.970 -33.369  11.352  0.00  0.00    +0.015 C 
ATOM     29  C   LIG    1       18.842 -32.686  10.894  0.00  0.00    +0.001 C 
ATOM     30  C   LIG    1       18.948 -31.348  10.541  0.00  0.00    +0.000 C 
ATOM     31  C   LIG    1       20.164 -30.683  10.713  0.00  0.00    +0.007 C 
ATOM     32  C   LIG    1       24.367 -29.749  10.018  0.00  0.00    +0.009 C 
ATOM     33  C   LIG    1       21.298 -31.342  11.247  0.00  0.00    -0.008 C 
ENDBRANCH   7  17
BRANCH   1  34
ATOM     34  O   LIG    1       24.704 -25.947  13.626  0.00  0.00    -0.450 OA
BRANCH  34  35
ATOM     35  C   LIG    1       24.579 -25.353  14.918  0.00  0.00    +0.473 C 
BRANCH  35  36
ATOM     36  O   LIG    1       25.847 -24.862  15.363  0.00  0.00    -0.397 OA
BRANCH  36  37
ATOM     37  C   LIG    1       26.198 -23.692  14.764  0.00  0.00    +0.513 C 
ATOM     38  O   LIG    1       25.459 -22.792  14.463  0.00  0.00    -0.203 OA
BRANCH  37  40
ATOM     39  C   LIG    1       28.276 -24.518  15.500  0.00  0.00    +0.284 C 
ATOM     40  O   LIG    1       27.546 -23.722  14.567  0.00  0.00    -0.437 OA
ENDBRANCH  37  40
ENDBRANCH  36  37
ENDBRANCH  35  36
ENDBRANCH  34  35
ENDBRANCH   1  34
TORSDOF 6
ENDMDL
MODEL 2
REMARK VINA RESULT:      -5.9      4.644      7.911
REMARK  Name = *****
REMARK                            x       y       z     vdW  Elec       q    Type
REMARK                         _______ _______ _______ _____ _____    ______ ____
ROOT
ATOM      1  C   LIG    1       24.177 -31.776   7.919  0.00  0.00    +0.201 C 
ATOM      2  C   LIG    1       24.400 -31.120   9.086  0.00  0.00    +0.169 C 
ATOM      3  C   LIG    1       25.087 -29.762   9.085  0.00  0.00    +0.270 C 
ATOM      4  O   LIG    1       25.100 -29.011   8.115  0.00  0.00    -0.268 OA
ATOM      5  N   LIG    1       25.705 -29.424  10.292  0.00  0.00    -0.272 N 
ATOM      6  C   LIG    1       25.739 -30.404  11.366  0.00  0.00    +0.206 C 
ATOM      7  N   LIG    1       24.377 -30.972  11.551  0.00  0.00    -0.236 NA
ATOM      8  C   LIG    1       26.553 -29.961  12.603  0.00  0.00    +0.203 C 
ATOM      9  O   LIG    1       26.562 -28.553  12.802  0.00  0.00    -0.375 OA
ATOM     10  C   LIG    1       27.096 -27.831  11.693  0.00  0.00    +0.179 C 
ATOM     11  C   LIG    1       26.709 -28.365  10.304  0.00  0.00    +0.138 C 
ATOM     12  N   LIG    1       24.115 -31.691  10.342  0.00  0.00    -0.260 NA
ATOM     13  C   LIG    1       23.878 -33.042  10.446  0.00  0.00    +0.113 C 
ATOM     14  C   LIG    1       23.653 -33.825   9.389  0.00  0.00    +0.074 C 
ATOM     15  C   LIG    1       23.624 -33.180   8.056  0.00  0.00    +0.224 C 
ATOM     16  O   LIG    1       23.176 -33.825   7.113  0.00  0.00    -0.284 OA
ENDROOT
BRANCH   7  17
ATOM     17  C   LIG    1       23.235 -30.016  11.852  0.00  0.00    +0.154 C 
ATOM     18  C   LIG    1       21.820 -30.681  11.803  0.00  0.00    -0.014 C 
ATOM     19  C   LIG    1       21.229 -31.488  12.806  0.00  0.00    +0.006 C 
ATOM     20  C   LIG    1       19.973 -32.094  12.534  0.00  0.00    +0.163 C 
ATOM     21  C   LIG    1       19.277 -31.878  11.356  0.00  0.00    +0.159 C 
ATOM     22  C   LIG    1       19.811 -31.049  10.392  0.00  0.00    +0.041 C 
ATOM     23  F   LIG    1       18.078 -32.444  11.165  0.00  0.00    -0.203 F 
ATOM     24  F   LIG    1       19.413 -32.891  13.462  0.00  0.00    -0.202 F 
ATOM     25  C   LIG    1       21.681 -31.719  14.227  0.00  0.00    +0.112 C 
ATOM     26  S   LIG    1       23.372 -31.387  14.740  0.00  0.00    -0.120 S 
ATOM     27  C   LIG    1       23.530 -29.652  14.384  0.00  0.00    +0.013 C 
ATOM     28  C   LIG    1       23.914 -28.802  15.438  0.00  0.00    +0.015 C 
ATOM     29  C   LIG    1       24.132 -27.440  15.226  0.00  0.00    +0.001 C 
ATOM     30  C   LIG    1       23.926 -26.901  13.964  0.00  0.00    +0.000 C 
ATOM     31  C   LIG    1       23.573 -27.740  12.905  0.00  0.00    +0.007 C 
ATOM     32  C   LIG    1       21.069 -30.474  10.607  0.00  0.00    +0.009 C 
ATOM     33  C   LIG    1       23.421 -29.135  13.085  0.00  0.00    -0.008 C 
ENDBRANCH   7  17
BRANCH   1  34
ATOM     34  O   LIG    1       24.482 -31.218   6.688  0.00  0.00    -0.450 OA
BRANCH  34  35
ATOM     35  C   LIG    1       25.688 -31.621   6.040  0.00  0.00    +0.473 C 
BRANCH  35  36
ATOM     36  O   LIG    1       25.523 -31.590   4.620  0.00  0.00    -0.397 OA
BRANCH  36  37
ATOM     37  C   LIG    1       25.406 -32.831   4.075  0.00  0.00    +0.513 C 
ATOM     38  O   LIG    1       24.395 -33.475   3.973  0.00  0.00    -0.203 OA
BRANCH  37  40
ATOM     39  C   LIG    1       26.926 -32.979   2.284  0.00  0.00    +0.284 C 
ATOM     40  O   LIG    1       26.646 -33.215   3.664  0.00  0.00    -0.437 OA
ENDBRANCH  37  40
ENDBRANCH  36  37
ENDBRANCH  35  36
ENDBRANCH  34  35
ENDBRANCH   1  34
TORSDOF 6
ENDMDL
MODEL 3
REMARK VINA RESULT:      -5.5      4.463      7.401
REMARK  Name = *****
REMARK                            x       y       z     vdW  Elec       q    Type
REMARK                         _______ _______ _______ _____ _____    ______ ____
ROOT
ATOM      1  C   LIG    1       20.194 -32.786  13.169  0.00  0.00    +0.201 C 
ATOM      2  C   LIG    1       21.220 -32.466  12.341  0.00  0.00    +0.169 C 
ATOM      3  C   LIG    1       21.181 -32.874  10.875  0.00  0.00    +0.270 C 
ATOM      4  O   LIG    1       20.143 -33.109  10.266  0.00  0.00    -0.268 OA
ATOM      5  N   LIG    1       22.434 -32.954  10.262  0.00  0.00    -0.272 N 
ATOM      6  C   LIG    1       23.629 -32.763  11.069  0.00  0.00    +0.206 C 
ATOM      7  N   LIG    1       23.466 -31.538  11.898  0.00  0.00    -0.236 NA
ATOM      8  C   LIG    1       24.953 -32.995  10.308  0.00  0.00    +0.203 C 
ATOM      9  O   LIG    1       24.869 -32.700   8.919  0.00  0.00    -0.375 OA
ATOM     10  C   LIG    1       23.877 -33.469   8.240  0.00  0.00    +0.179 C 
ATOM     11  C   LIG    1       22.568 -33.698   9.014  0.00  0.00    +0.138 C 
ATOM     12  N   LIG    1       22.401 -31.849  12.801  0.00  0.00    -0.260 NA
ATOM     13  C   LIG    1       22.681 -31.816  14.148  0.00  0.00    +0.113 C 
ATOM     14  C   LIG    1       21.780 -32.117  15.085  0.00  0.00    +0.074 C 
ATOM     15  C   LIG    1       20.412 -32.461  14.632  0.00  0.00    +0.224 C 
ATOM     16  O   LIG    1       19.518 -32.493  15.472  0.00  0.00    -0.284 OA
ENDROOT
BRANCH   7  17
ATOM     17  C   LIG    1       23.188 -30.224  11.189  0.00  0.00    +0.154 C 
ATOM     18  C   LIG    1       22.667 -29.090  12.134  0.00  0.00    -0.014 C 
ATOM     19  C   LIG    1       23.444 -28.297  13.012  0.00  0.00    +0.006 C 
ATOM     20  C   LIG    1       22.774 -27.386  13.873  0.00  0.00    +0.163 C 
ATOM     21  C   LIG    1       21.402 -27.200  13.843  0.00  0.00    +0.159 C 
ATOM     22  C   LIG    1       20.636 -27.923  12.954  0.00  0.00    +0.041 C 
ATOM     23  F   LIG    1       20.824 -26.301  14.651  0.00  0.00    -0.203 F 
ATOM     24  F   LIG    1       23.494 -26.648  14.737  0.00  0.00    -0.202 F 
ATOM     25  C   LIG    1       24.945 -28.168  13.098  0.00  0.00    +0.112 C 
ATOM     26  S   LIG    1       26.036 -29.419  12.407  0.00  0.00    -0.120 S 
ATOM     27  C   LIG    1       25.577 -29.399  10.689  0.00  0.00    +0.013 C 
ATOM     28  C   LIG    1       26.593 -29.169   9.745  0.00  0.00    +0.015 C 
ATOM     29  C   LIG    1       26.331 -29.210   8.374  0.00  0.00    +0.001 C 
ATOM     30  C   LIG    1       25.037 -29.441   7.931  0.00  0.00    +0.000 C 
ATOM     31  C   LIG    1       24.025 -29.700   8.859  0.00  0.00    +0.007 C 
ATOM     32  C   LIG    1       21.258 -28.864  12.125  0.00  0.00    +0.009 C 
ATOM     33  C   LIG    1       24.289 -29.737  10.249  0.00  0.00    -0.008 C 
ENDBRANCH   7  17
BRANCH   1  34
ATOM     34  O   LIG    1       19.047 -33.415  12.714  0.00  0.00    -0.450 OA
BRANCH  34  35
ATOM     35  C   LIG    1       17.832 -32.667  12.674  0.00  0.00    +0.473 C 
BRANCH  35  36
ATOM     36  O   LIG    1       18.114 -31.272  12.534  0.00  0.00    -0.397 OA
BRANCH  36  37
ATOM     37  C   LIG    1       17.179 -30.483  13.130  0.00  0.00    +0.513 C 
ATOM     38  O   LIG    1       16.003 -30.451  12.877  0.00  0.00    -0.203 OA
BRANCH  37  40
ATOM     39  C   LIG    1       17.193 -28.485  14.375  0.00  0.00    +0.284 C 
ATOM     40  O   LIG    1       17.817 -29.732  14.071  0.00  0.00    -0.437 OA
ENDBRANCH  37  40
ENDBRANCH  36  37
ENDBRANCH  35  36
ENDBRANCH  34  35
ENDBRANCH   1  34
TORSDOF 6
ENDMDL
MODEL 4
REMARK VINA RESULT:      -5.2      2.088      2.652
REMARK  Name = *****
REMARK                            x       y       z     vdW  Elec       q    Type
REMARK                         _______ _______ _______ _____ _____    ______ ____
ROOT
ATOM      1  C   LIG    1       26.319 -28.839  12.222  0.00  0.00    +0.201 C 
ATOM      2  C   LIG    1       25.186 -29.572  12.090  0.00  0.00    +0.169 C 
ATOM      3  C   LIG    1       23.961 -29.254  12.937  0.00  0.00    +0.270 C 
ATOM      4  O   LIG    1       23.752 -28.154  13.436  0.00  0.00    -0.268 OA
ATOM      5  N   LIG    1       23.073 -30.321  13.097  0.00  0.00    -0.272 N 
ATOM      6  C   LIG    1       23.434 -31.625  12.563  0.00  0.00    +0.206 C 
ATOM      7  N   LIG    1       23.900 -31.465  11.160  0.00  0.00    -0.236 NA
ATOM      8  C   LIG    1       22.433 -32.751  12.908  0.00  0.00    +0.203 C 
ATOM      9  O   LIG    1       21.096 -32.291  13.068  0.00  0.00    -0.375 OA
ATOM     10  C   LIG    1       20.958 -31.307  14.091  0.00  0.00    +0.179 C 
ATOM     11  C   LIG    1       22.095 -30.275  14.179  0.00  0.00    +0.138 C 
ATOM     12  N   LIG    1       25.111 -30.710  11.263  0.00  0.00    -0.260 NA
ATOM     13  C   LIG    1       26.265 -31.293  10.788  0.00  0.00    +0.113 C 
ATOM     14  C   LIG    1       27.459 -30.703  10.858  0.00  0.00    +0.074 C 
ATOM     15  C   LIG    1       27.516 -29.342  11.440  0.00  0.00    +0.224 C 
ATOM     16  O   LIG    1       28.544 -28.691  11.285  0.00  0.00    -0.284 OA
ENDROOT
BRANCH   7  17
ATOM     17  C   LIG    1       22.959 -30.815  10.160  0.00  0.00    +0.154 C 
ATOM     18  C   LIG    1       23.589 -30.597   8.744  0.00  0.00    -0.014 C 
ATOM     19  C   LIG    1       23.765 -31.576   7.737  0.00  0.00    +0.006 C 
ATOM     20  C   LIG    1       24.457 -31.210   6.551  0.00  0.00    +0.163 C 
ATOM     21  C   LIG    1       24.909 -29.921   6.316  0.00  0.00    +0.159 C 
ATOM     22  C   LIG    1       24.694 -28.941   7.261  0.00  0.00    +0.041 C 
ATOM     23  F   LIG    1       25.523 -29.619   5.164  0.00  0.00    -0.203 F 
ATOM     24  F   LIG    1       24.663 -32.135   5.597  0.00  0.00    -0.202 F 
ATOM     25  C   LIG    1       23.205 -32.975   7.664  0.00  0.00    +0.112 C 
ATOM     26  S   LIG    1       22.608 -33.825   9.131  0.00  0.00    -0.120 S 
ATOM     27  C   LIG    1       21.314 -32.739   9.684  0.00  0.00    +0.013 C 
ATOM     28  C   LIG    1       20.028 -33.286   9.848  0.00  0.00    +0.015 C 
ATOM     29  C   LIG    1       18.974 -32.520  10.348  0.00  0.00    +0.001 C 
ATOM     30  C   LIG    1       19.182 -31.182  10.651  0.00  0.00    +0.000 C 
ATOM     31  C   LIG    1       20.461 -30.636  10.520  0.00  0.00    +0.007 C 
ATOM     32  C   LIG    1       24.059 -29.279   8.462  0.00  0.00    +0.009 C 
ATOM     33  C   LIG    1       21.558 -31.418  10.086  0.00  0.00    -0.008 C 
ENDBRANCH   7  17
BRANCH   1  34
ATOM     34  O   LIG    1       26.393 -27.736  13.057  0.00  0.00    -0.450 OA
BRANCH  34  35
ATOM     35  C   LIG    1       26.680 -26.464  12.477  0.00  0.00    +0.473 C 
BRANCH  35  36
ATOM     36  O   LIG    1       26.231 -25.414  13.338  0.00  0.00    -0.397 OA
BRANCH  36  37
ATOM     37  C   LIG    1       27.209 -24.958  14.167  0.00  0.00    +0.513 C 
ATOM     38  O   LIG    1       28.173 -25.572  14.543  0.00  0.00    -0.203 OA
BRANCH  37  40
ATOM     39  C   LIG    1       25.586 -23.480  15.017  0.00  0.00    +0.284 C 
ATOM     40  O   LIG    1       26.901 -23.672  14.495  0.00  0.00    -0.437 OA
ENDBRANCH  37  40
ENDBRANCH  36  37
ENDBRANCH  35  36
ENDBRANCH  34  35
ENDBRANCH   1  34
TORSDOF 6
ENDMDL
MODEL 5
REMARK VINA RESULT:      -5.1      3.820      6.571
REMARK  Name = *****
REMARK                            x       y       z     vdW  Elec       q    Type
REMARK                         _______ _______ _______ _____ _____    ______ ____
ROOT
ATOM      1  C   LIG    1       25.783 -31.691  10.351  0.00  0.00    +0.201 C 
ATOM      2  C   LIG    1       24.539 -31.477  10.848  0.00  0.00    +0.169 C 
ATOM      3  C   LIG    1       23.597 -32.647  11.096  0.00  0.00    +0.270 C 
ATOM      4  O   LIG    1       23.982 -33.797  11.277  0.00  0.00    -0.268 OA
ATOM      5  N   LIG    1       22.242 -32.308  11.113  0.00  0.00    -0.272 N 
ATOM      6  C   LIG    1       21.852 -30.944  10.790  0.00  0.00    +0.206 C 
ATOM      7  N   LIG    1       22.696 -29.998  11.568  0.00  0.00    -0.236 NA
ATOM      8  C   LIG    1       20.324 -30.720  10.722  0.00  0.00    +0.203 C 
ATOM      9  O   LIG    1       19.586 -31.585  11.577  0.00  0.00    -0.375 OA
ATOM     10  C   LIG    1       19.800 -32.968  11.300  0.00  0.00    +0.179 C 
ATOM     11  C   LIG    1       21.244 -33.359  10.946  0.00  0.00    +0.138 C 
ATOM     12  N   LIG    1       24.018 -30.184  11.054  0.00  0.00    -0.260 NA
ATOM     13  C   LIG    1       24.637 -29.093  10.486  0.00  0.00    +0.113 C 
ATOM     14  C   LIG    1       25.855 -29.149   9.945  0.00  0.00    +0.074 C 
ATOM     15  C   LIG    1       26.571 -30.445  10.005  0.00  0.00    +0.224 C 
ATOM     16  O   LIG    1       27.770 -30.453   9.746  0.00  0.00    -0.284 OA
ENDROOT
BRANCH   7  17
ATOM     17  C   LIG    1       22.699 -30.117  13.082  0.00  0.00    +0.154 C 
ATOM     18  C   LIG    1       23.837 -29.303  13.782  0.00  0.00    -0.014 C 
ATOM     19  C   LIG    1       23.852 -27.909  14.027  0.00  0.00    +0.006 C 
ATOM     20  C   LIG    1       25.026 -27.331  14.581  0.00  0.00    +0.163 C 
ATOM     21  C   LIG    1       26.129 -28.085  14.946  0.00  0.00    +0.159 C 
ATOM     22  C   LIG    1       26.110 -29.451  14.769  0.00  0.00    +0.041 C 
ATOM     23  F   LIG    1       27.198 -27.495  15.500  0.00  0.00    -0.203 F 
ATOM     24  F   LIG    1       25.070 -26.003  14.789  0.00  0.00    -0.202 F 
ATOM     25  C   LIG    1       22.727 -26.911  13.903  0.00  0.00    +0.112 C 
ATOM     26  S   LIG    1       21.266 -27.261  12.916  0.00  0.00    -0.120 S 
ATOM     27  C   LIG    1       20.628 -28.720  13.707  0.00  0.00    +0.013 C 
ATOM     28  C   LIG    1       19.299 -28.684  14.168  0.00  0.00    +0.015 C 
ATOM     29  C   LIG    1       18.698 -29.809  14.734  0.00  0.00    +0.001 C 
ATOM     30  C   LIG    1       19.435 -30.975  14.886  0.00  0.00    +0.000 C 
ATOM     31  C   LIG    1       20.745 -31.032  14.405  0.00  0.00    +0.007 C 
ATOM     32  C   LIG    1       24.988 -30.047  14.180  0.00  0.00    +0.009 C 
ATOM     33  C   LIG    1       21.345 -29.923  13.761  0.00  0.00    -0.008 C 
ENDBRANCH   7  17
BRANCH   1  34
ATOM     34  O   LIG    1       26.279 -32.965  10.127  0.00  0.00    -0.450 OA
BRANCH  34  35
ATOM     35  C   LIG    1       26.625 -33.334   8.793  0.00  0.00    +0.473 C 
BRANCH  35  36
ATOM     36  O   LIG    1       25.639 -32.856   7.874  0.00  0.00    -0.397 OA
BRANCH  36  37
ATOM     37  C   LIG    1       26.184 -32.248   6.786  0.00  0.00    +0.513 C 
ATOM     38  O   LIG    1       27.070 -32.677   6.095  0.00  0.00    -0.203 OA
BRANCH  37  40
ATOM     39  C   LIG    1       24.194 -31.027   7.087  0.00  0.00    +0.284 C 
ATOM     40  O   LIG    1       25.542 -31.059   6.617  0.00  0.00    -0.437 OA
ENDBRANCH  37  40
ENDBRANCH  36  37
ENDBRANCH  35  36
ENDBRANCH  34  35
ENDBRANCH   1  34
TORSDOF 6
ENDMDL
MODEL 6
REMARK VINA RESULT:      -4.8      3.914      6.315
REMARK  Name = *****
REMARK                            x       y       z     vdW  Elec       q    Type
REMARK                         _______ _______ _______ _____ _____    ______ ____
ROOT
ATOM      1  C   LIG    1       25.375 -31.636   9.589  0.00  0.00    +0.201 C 
ATOM      2  C   LIG    1       24.161 -31.588  10.193  0.00  0.00    +0.169 C 
ATOM      3  C   LIG    1       23.139 -32.691   9.955  0.00  0.00    +0.270 C 
ATOM      4  O   LIG    1       23.440 -33.825   9.597  0.00  0.00    -0.268 OA
ATOM      5  N   LIG    1       21.814 -32.314  10.187  0.00  0.00    -0.272 N 
ATOM      6  C   LIG    1       21.521 -30.927  10.510  0.00  0.00    +0.206 C 
ATOM      7  N   LIG    1       22.450 -30.469  11.578  0.00  0.00    -0.236 NA
ATOM      8  C   LIG    1       20.014 -30.606  10.625  0.00  0.00    +0.203 C 
ATOM      9  O   LIG    1       19.230 -31.713  11.055  0.00  0.00    -0.375 OA
ATOM     10  C   LIG    1       19.334 -32.845  10.193  0.00  0.00    +0.179 C 
ATOM     11  C   LIG    1       20.737 -33.126   9.630  0.00  0.00    +0.138 C 
ATOM     12  N   LIG    1       23.744 -30.488  10.968  0.00  0.00    -0.260 NA
ATOM     13  C   LIG    1       24.431 -29.297  10.900  0.00  0.00    +0.113 C 
ATOM     14  C   LIG    1       25.630 -29.182  10.327  0.00  0.00    +0.074 C 
ATOM     15  C   LIG    1       26.248 -30.413   9.781  0.00  0.00    +0.224 C 
ATOM     16  O   LIG    1       27.437 -30.377   9.482  0.00  0.00    -0.284 OA
ENDROOT
BRANCH   7  17
ATOM     17  C   LIG    1       22.475 -31.239  12.887  0.00  0.00    +0.154 C 
ATOM     18  C   LIG    1       23.876 -31.266  13.583  0.00  0.00    -0.014 C 
ATOM     19  C   LIG    1       24.464 -30.224  14.341  0.00  0.00    +0.006 C 
ATOM     20  C   LIG    1       25.796 -30.395  14.806  0.00  0.00    +0.163 C 
ATOM     21  C   LIG    1       26.516 -31.560  14.601  0.00  0.00    +0.159 C 
ATOM     22  C   LIG    1       25.938 -32.606  13.915  0.00  0.00    +0.041 C 
ATOM     23  F   LIG    1       27.757 -31.684  15.094  0.00  0.00    -0.203 F 
ATOM     24  F   LIG    1       26.382 -29.403  15.500  0.00  0.00    -0.202 F 
ATOM     25  C   LIG    1       23.833 -28.957  14.863  0.00  0.00    +0.112 C 
ATOM     26  S   LIG    1       22.311 -28.307  14.160  0.00  0.00    -0.120 S 
ATOM     27  C   LIG    1       21.176 -29.647  14.440  0.00  0.00    +0.013 C 
ATOM     28  C   LIG    1       19.998 -29.364  15.155  0.00  0.00    +0.015 C 
ATOM     29  C   LIG    1       19.021 -30.341  15.355  0.00  0.00    +0.001 C 
ATOM     30  C   LIG    1       19.229 -31.627  14.877  0.00  0.00    +0.000 C 
ATOM     31  C   LIG    1       20.381 -31.911  14.141  0.00  0.00    +0.007 C 
ATOM     32  C   LIG    1       24.645 -32.454  13.400  0.00  0.00    +0.009 C 
ATOM     33  C   LIG    1       21.347 -30.913  13.864  0.00  0.00    -0.008 C 
ENDBRANCH   7  17
BRANCH   1  34
ATOM     34  O   LIG    1       25.769 -32.710   8.808  0.00  0.00    -0.450 OA
BRANCH  34  35
ATOM     35  C   LIG    1       25.599 -32.620   7.393  0.00  0.00    +0.473 C 
BRANCH  35  36
ATOM     36  O   LIG    1       25.304 -31.273   7.015  0.00  0.00    -0.397 OA
BRANCH  36  37
ATOM     37  C   LIG    1       24.029 -31.119   6.566  0.00  0.00    +0.513 C 
ATOM     38  O   LIG    1       23.333 -31.972   6.082  0.00  0.00    -0.203 OA
BRANCH  37  40
ATOM     39  C   LIG    1       24.718 -28.868   6.528  0.00  0.00    +0.284 C 
ATOM     40  O   LIG    1       23.679 -29.818   6.766  0.00  0.00    -0.437 OA
ENDBRANCH  37  40
ENDBRANCH  36  37
ENDBRANCH  35  36
ENDBRANCH  34  35
ENDBRANCH   1  34
TORSDOF 6
ENDMDL
MODEL 7
REMARK VINA RESULT:      -3.5      4.775      8.043
REMARK  Name = *****
REMARK                            x       y       z     vdW  Elec       q    Type
REMARK                         _______ _______ _______ _____ _____    ______ ____
ROOT
ATOM      1  C   LIG    1       20.695 -33.355  12.059  0.00  0.00    +0.201 C 
ATOM      2  C   LIG    1       21.953 -33.011  11.686  0.00  0.00    +0.169 C 
ATOM      3  C   LIG    1       22.345 -33.007  10.215  0.00  0.00    +0.270 C 
ATOM      4  O   LIG    1       21.537 -32.891   9.300  0.00  0.00    -0.268 OA
ATOM      5  N   LIG    1       23.716 -33.138   9.981  0.00  0.00    -0.272 N 
ATOM      6  C   LIG    1       24.606 -33.374  11.107  0.00  0.00    +0.206 C 
ATOM      7  N   LIG    1       24.293 -32.400  12.187  0.00  0.00    -0.236 NA
ATOM      8  C   LIG    1       26.079 -33.623  10.712  0.00  0.00    +0.203 C 
ATOM      9  O   LIG    1       26.463 -32.965   9.511  0.00  0.00    -0.375 OA
ATOM     10  C   LIG    1       25.676 -33.345   8.383  0.00  0.00    +0.179 C 
ATOM     11  C   LIG    1       24.175 -33.540   8.655  0.00  0.00    +0.138 C 
ATOM     12  N   LIG    1       22.975 -32.748  12.620  0.00  0.00    -0.260 NA
ATOM     13  C   LIG    1       22.816 -33.119  13.937  0.00  0.00    +0.113 C 
ATOM     14  C   LIG    1       21.644 -33.495  14.449  0.00  0.00    +0.074 C 
ATOM     15  C   LIG    1       20.465 -33.467  13.552  0.00  0.00    +0.224 C 
ATOM     16  O   LIG    1       19.352 -33.564  14.060  0.00  0.00    -0.284 OA
ENDROOT
BRANCH   7  17
ATOM     17  C   LIG    1       24.365 -30.919  11.861  0.00  0.00    +0.154 C 
ATOM     18  C   LIG    1       23.194 -30.076  12.468  0.00  0.00    -0.014 C 
ATOM     19  C   LIG    1       23.075 -29.637  13.809  0.00  0.00    +0.006 C 
ATOM     20  C   LIG    1       21.881 -28.971  14.199  0.00  0.00    +0.163 C 
ATOM     21  C   LIG    1       20.861 -28.681  13.307  0.00  0.00    +0.159 C 
ATOM     22  C   LIG    1       20.987 -29.050  11.985  0.00  0.00    +0.041 C 
ATOM     23  F   LIG    1       19.772 -28.018  13.719  0.00  0.00    -0.203 F 
ATOM     24  F   LIG    1       21.736 -28.577  15.476  0.00  0.00    -0.202 F 
ATOM     25  C   LIG    1       24.107 -29.654  14.909  0.00  0.00    +0.112 C 
ATOM     26  S   LIG    1       25.548 -30.726  14.829  0.00  0.00    -0.120 S 
ATOM     27  C   LIG    1       26.338 -30.168  13.337  0.00  0.00    +0.013 C 
ATOM     28  C   LIG    1       27.678 -29.748  13.427  0.00  0.00    +0.015 C 
ATOM     29  C   LIG    1       28.394 -29.364  12.291  0.00  0.00    +0.001 C 
ATOM     30  C   LIG    1       27.764 -29.356  11.055  0.00  0.00    +0.000 C 
ATOM     31  C   LIG    1       26.444 -29.799  10.950  0.00  0.00    +0.007 C 
ATOM     32  C   LIG    1       22.128 -29.751  11.577  0.00  0.00    +0.009 C 
ATOM     33  C   LIG    1       25.727 -30.262  12.079  0.00  0.00    -0.008 C 
ENDBRANCH   7  17
BRANCH   1  34
ATOM     34  O   LIG    1       19.701 -33.635  11.135  0.00  0.00    -0.450 OA
BRANCH  34  35
ATOM     35  C   LIG    1       18.366 -33.815  11.607  0.00  0.00    +0.473 C 
BRANCH  35  36
ATOM     36  O   LIG    1       17.541 -32.725  11.187  0.00  0.00    -0.397 OA
BRANCH  36  37
ATOM     37  C   LIG    1       16.630 -32.361  12.129  0.00  0.00    +0.513 C 
ATOM     38  O   LIG    1       15.927 -33.099  12.768  0.00  0.00    -0.203 OA
BRANCH  37  40
ATOM     39  C   LIG    1       17.443 -30.483  13.293  0.00  0.00    +0.284 C 
ATOM     40  O   LIG    1       16.657 -31.002  12.221  0.00  0.00    -0.437 OA
ENDBRANCH  37  40
ENDBRANCH  36  37
ENDBRANCH  35  36
ENDBRANCH  34  35
ENDBRANCH   1  34
TORSDOF 6
ENDMDL
MODEL 8
REMARK VINA RESULT:      -3.4      4.595      7.232
REMARK  Name = *****
REMARK                            x       y       z     vdW  Elec       q    Type
REMARK                         _______ _______ _______ _____ _____    ______ ____
ROOT
ATOM      1  C   LIG    1       24.491 -31.353   7.215  0.00  0.00    +0.201 C 
ATOM      2  C   LIG    1       23.780 -31.415   8.369  0.00  0.00    +0.169 C 
ATOM      3  C   LIG    1       23.069 -32.701   8.766  0.00  0.00    +0.270 C 
ATOM      4  O   LIG    1       23.400 -33.809   8.360  0.00  0.00    -0.268 OA
ATOM      5  N   LIG    1       22.001 -32.524   9.649  0.00  0.00    -0.272 N 
ATOM      6  C   LIG    1       21.600 -31.173  10.010  0.00  0.00    +0.206 C 
ATOM      7  N   LIG    1       22.807 -30.393  10.395  0.00  0.00    -0.236 NA
ATOM      8  C   LIG    1       20.334 -31.101  10.894  0.00  0.00    +0.203 C 
ATOM      9  O   LIG    1       20.161 -32.240  11.729  0.00  0.00    -0.375 OA
ATOM     10  C   LIG    1       20.072 -33.463  11.002  0.00  0.00    +0.179 C 
ATOM     11  C   LIG    1       21.014 -33.588   9.793  0.00  0.00    +0.138 C 
ATOM     12  N   LIG    1       23.573 -30.290   9.191  0.00  0.00    -0.260 NA
ATOM     13  C   LIG    1       23.831 -29.027   8.709  0.00  0.00    +0.113 C 
ATOM     14  C   LIG    1       24.506 -28.804   7.581  0.00  0.00    +0.074 C 
ATOM     15  C   LIG    1       25.027 -29.983   6.851  0.00  0.00    +0.224 C 
ATOM     16  O   LIG    1       25.853 -29.794   5.964  0.00  0.00    -0.284 OA
ENDROOT
BRANCH   7  17
ATOM     17  C   LIG    1       23.672 -30.920  11.526  0.00  0.00    +0.154 C 
ATOM     18  C   LIG    1       25.128 -30.347  11.533  0.00  0.00    -0.014 C 
ATOM     19  C   LIG    1       25.533 -29.073  11.999  0.00  0.00    +0.006 C 
ATOM     20  C   LIG    1       26.890 -28.688  11.824  0.00  0.00    +0.163 C 
ATOM     21  C   LIG    1       27.841 -29.531  11.274  0.00  0.00    +0.159 C 
ATOM     22  C   LIG    1       27.476 -30.797  10.868  0.00  0.00    +0.041 C 
ATOM     23  F   LIG    1       29.116 -29.133  11.166  0.00  0.00    -0.203 F 
ATOM     24  F   LIG    1       27.285 -27.468  12.231  0.00  0.00    -0.202 F 
ATOM     25  C   LIG    1       24.749 -28.061  12.798  0.00  0.00    +0.112 C 
ATOM     26  S   LIG    1       22.953 -28.104  12.864  0.00  0.00    -0.120 S 
ATOM     27  C   LIG    1       22.649 -29.712  13.558  0.00  0.00    +0.013 C 
ATOM     28  C   LIG    1       21.873 -29.781  14.729  0.00  0.00    +0.015 C 
ATOM     29  C   LIG    1       21.527 -31.009  15.297  0.00  0.00    +0.001 C 
ATOM     30  C   LIG    1       21.988 -32.184  14.722  0.00  0.00    +0.000 C 
ATOM     31  C   LIG    1       22.735 -32.129  13.543  0.00  0.00    +0.007 C 
ATOM     32  C   LIG    1       26.138 -31.191  10.981  0.00  0.00    +0.009 C 
ATOM     33  C   LIG    1       23.031 -30.897  12.912  0.00  0.00    -0.008 C 
ENDBRANCH   7  17
BRANCH   1  34
ATOM     34  O   LIG    1       24.670 -32.457   6.398  0.00  0.00    -0.450 OA
BRANCH  34  35
ATOM     35  C   LIG    1       24.984 -32.241   5.022  0.00  0.00    +0.473 C 
BRANCH  35  36
ATOM     36  O   LIG    1       25.582 -33.412   4.460  0.00  0.00    -0.397 OA
BRANCH  36  37
ATOM     37  C   LIG    1       26.941 -33.359   4.455  0.00  0.00    +0.513 C 
ATOM     38  O   LIG    1       27.667 -33.671   3.547  0.00  0.00    -0.203 OA
BRANCH  37  40
ATOM     39  C   LIG    1       28.474 -33.540   6.234  0.00  0.00    +0.284 C 
ATOM     40  O   LIG    1       27.336 -32.887   5.670  0.00  0.00    -0.437 OA
ENDBRANCH  37  40
ENDBRANCH  36  37
ENDBRANCH  35  36
ENDBRANCH  34  35
ENDBRANCH   1  34
TORSDOF 6
ENDMDL
