MODEL 1
REMARK VINA RESULT:      -6.5      0.000      0.000
REMARK  Name = *****
REMARK                            x       y       z     vdW  Elec       q    Type
REMARK                         _______ _______ _______ _____ _____    ______ ____
ROOT
ATOM      1  C   LIG    1       25.131 -21.715   6.453  0.00  0.00    +0.176 C 
ATOM      2  C   LIG    1       26.137 -20.929   7.402  0.00  0.00    +0.018 C 
ATOM      3  C   LIG    1       25.392 -19.953   8.361  0.00  0.00    +0.016 C 
ATOM      4  C   LIG    1       26.968 -20.046   6.402  0.00  0.00    +0.003 C 
ATOM      5  C   LIG    1       28.348 -20.604   5.966  0.00  0.00    -0.003 C 
ATOM      6  C   LIG    1       29.184 -21.222   7.108  0.00  0.00    +0.002 C 
ATOM      7  C   LIG    1       28.343 -22.311   7.767  0.00  0.00    +0.005 C 
ATOM      8  C   LIG    1       29.965 -20.225   8.053  0.00  0.00    -0.007 C 
ATOM      9  C   LIG    1       30.947 -21.066   8.920  0.00  0.00    +0.016 C 
ATOM     10  C   LIG    1       30.698 -19.191   7.185  0.00  0.00    -0.060 C 
ATOM     11  C   LIG    1       31.661 -18.427   7.741  0.00  0.00    +0.046 C 
ATOM     12  C   LIG    1       31.015 -17.572   8.806  0.00  0.00    +0.156 C 
ATOM     13  O   LIG    1       31.457 -16.447   9.023  0.00  0.00    -0.293 OA
ATOM     14  C   LIG    1       29.937 -18.208   9.684  0.00  0.00    +0.080 C 
ATOM     15  C   LIG    1       29.876 -18.555   6.078  0.00  0.00    +0.032 C 
ATOM     16  C   LIG    1       29.130 -19.345   9.018  0.00  0.00    +0.019 C 
ATOM     17  C   LIG    1       29.200 -19.587   5.186  0.00  0.00    +0.008 C 
ATOM     18  C   LIG    1       26.040 -19.823   5.186  0.00  0.00    +0.009 C 
ATOM     19  C   LIG    1       27.009 -21.840   8.302  0.00  0.00    +0.011 C 
ATOM     20  C   LIG    1       24.752 -20.588   5.456  0.00  0.00    +0.057 C 
ENDROOT
BRANCH   1  21
ATOM     21  C   LIG    1       23.831 -22.223   7.166  0.00  0.00    +0.174 C 
ATOM     22  O   LIG    1       23.820 -22.516   8.367  0.00  0.00    -0.293 OA
ATOM     23  C   LIG    1       22.544 -22.362   6.392  0.00  0.00    +0.090 C 
ENDBRANCH   1  21
BRANCH   1  24
ATOM     24  O   LIG    1       25.909 -22.726   5.757  0.00  0.00    -0.450 OA
BRANCH  24  25
ATOM     25  C   LIG    1       25.416 -23.982   5.610  0.00  0.00    +0.308 C 
ATOM     26  O   LIG    1       24.773 -24.378   4.661  0.00  0.00    -0.251 OA
BRANCH  25  27
ATOM     27  C   LIG    1       25.876 -24.874   6.752  0.00  0.00    +0.120 C 
BRANCH  27  28
ATOM     28  C   LIG    1       26.287 -26.241   6.205  0.00  0.00    +0.011 C 
BRANCH  28  29
ATOM     29  C   LIG    1       25.484 -27.397   6.809  0.00  0.00    +0.000 C 
BRANCH  29  31
ATOM     30  C   LIG    1       24.118 -29.349   5.937  0.00  0.00    +0.004 C 
ATOM     31  C   LIG    1       24.372 -27.851   5.855  0.00  0.00    -0.003 C 
ENDBRANCH  29  31
ENDBRANCH  28  29
ENDBRANCH  27  28
ENDBRANCH  25  27
ENDBRANCH  24  25
ENDBRANCH   1  24
TORSDOF 7
ENDMDL
MODEL 2
REMARK VINA RESULT:      -6.4      6.564     11.310
REMARK  Name = *****
REMARK                            x       y       z     vdW  Elec       q    Type
REMARK                         _______ _______ _______ _____ _____    ______ ____
ROOT
ATOM      1  C   LIG    1       25.647 -32.001   7.181  0.00  0.00    +0.176 C 
ATOM      2  C   LIG    1       25.739 -32.126   8.764  0.00  0.00    +0.018 C 
ATOM      3  C   LIG    1       26.025 -33.588   9.218  0.00  0.00    +0.016 C 
ATOM      4  C   LIG    1       24.285 -31.772   9.242  0.00  0.00    +0.003 C 
ATOM      5  C   LIG    1       24.044 -30.312   9.710  0.00  0.00    -0.003 C 
ATOM      6  C   LIG    1       25.162 -29.727  10.600  0.00  0.00    +0.002 C 
ATOM      7  C   LIG    1       26.477 -29.841   9.834  0.00  0.00    +0.005 C 
ATOM      8  C   LIG    1       25.162 -30.140  12.124  0.00  0.00    -0.007 C 
ATOM      9  C   LIG    1       26.176 -29.218  12.865  0.00  0.00    +0.016 C 
ATOM     10  C   LIG    1       23.737 -29.994  12.677  0.00  0.00    -0.060 C 
ATOM     11  C   LIG    1       23.543 -30.001  14.012  0.00  0.00    +0.046 C 
ATOM     12  C   LIG    1       23.968 -31.354  14.534  0.00  0.00    +0.156 C 
ATOM     13  O   LIG    1       23.383 -31.836  15.500  0.00  0.00    -0.293 OA
ATOM     14  C   LIG    1       25.221 -31.994  13.937  0.00  0.00    +0.080 C 
ATOM     15  C   LIG    1       22.632 -30.593  11.824  0.00  0.00    +0.032 C 
ATOM     16  C   LIG    1       25.526 -31.605  12.474  0.00  0.00    +0.019 C 
ATOM     17  C   LIG    1       22.677 -30.103  10.384  0.00  0.00    +0.008 C 
ATOM     18  C   LIG    1       23.363 -32.144   8.058  0.00  0.00    +0.009 C 
ATOM     19  C   LIG    1       26.840 -31.247   9.410  0.00  0.00    +0.011 C 
ATOM     20  C   LIG    1       24.256 -32.642   6.932  0.00  0.00    +0.057 C 
ENDROOT
BRANCH   1  21
ATOM     21  C   LIG    1       26.733 -32.822   6.402  0.00  0.00    +0.174 C 
ATOM     22  O   LIG    1       27.939 -32.690   6.636  0.00  0.00    -0.293 OA
ATOM     23  C   LIG    1       26.321 -33.810   5.340  0.00  0.00    +0.090 C 
ENDBRANCH   1  21
BRANCH   1  24
ATOM     24  O   LIG    1       25.581 -30.584   6.871  0.00  0.00    -0.450 OA
BRANCH  24  25
ATOM     25  C   LIG    1       25.201 -30.174   5.634  0.00  0.00    +0.308 C 
ATOM     26  O   LIG    1       25.523 -30.700   4.589  0.00  0.00    -0.251 OA
BRANCH  25  27
ATOM     27  C   LIG    1       24.212 -29.024   5.731  0.00  0.00    +0.120 C 
BRANCH  27  28
ATOM     28  C   LIG    1       24.731 -27.980   6.720  0.00  0.00    +0.011 C 
BRANCH  28  29
ATOM     29  C   LIG    1       25.737 -27.008   6.096  0.00  0.00    +0.000 C 
BRANCH  29  31
ATOM     30  C   LIG    1       23.998 -25.166   6.227  0.00  0.00    +0.004 C 
ATOM     31  C   LIG    1       25.438 -25.563   6.515  0.00  0.00    -0.003 C 
ENDBRANCH  29  31
ENDBRANCH  28  29
ENDBRANCH  27  28
ENDBRANCH  25  27
ENDBRANCH  24  25
ENDBRANCH   1  24
TORSDOF 7
ENDMDL
MODEL 3
REMARK VINA RESULT:      -6.1      6.496     12.432
REMARK  Name = *****
REMARK                            x       y       z     vdW  Elec       q    Type
REMARK                         _______ _______ _______ _____ _____    ______ ____
ROOT
ATOM      1  C   LIG    1       24.859 -31.130   9.035  0.00  0.00    +0.176 C 
ATOM      2  C   LIG    1       24.340 -31.457  10.502  0.00  0.00    +0.018 C 
ATOM      3  C   LIG    1       25.059 -32.697  11.113  0.00  0.00    +0.016 C 
ATOM      4  C   LIG    1       22.838 -31.862  10.276  0.00  0.00    +0.003 C 
ATOM      5  C   LIG    1       21.778 -30.755  10.514  0.00  0.00    -0.003 C 
ATOM      6  C   LIG    1       22.017 -29.891  11.771  0.00  0.00    +0.002 C 
ATOM      7  C   LIG    1       23.415 -29.289  11.667  0.00  0.00    +0.005 C 
ATOM      8  C   LIG    1       21.584 -30.504  13.161  0.00  0.00    -0.007 C 
ATOM      9  C   LIG    1       21.645 -29.365  14.221  0.00  0.00    +0.016 C 
ATOM     10  C   LIG    1       20.172 -31.093  13.025  0.00  0.00    -0.060 C 
ATOM     11  C   LIG    1       19.476 -31.401  14.138  0.00  0.00    +0.046 C 
ATOM     12  C   LIG    1       20.225 -32.495  14.864  0.00  0.00    +0.156 C 
ATOM     13  O   LIG    1       19.594 -33.335  15.499  0.00  0.00    -0.293 OA
ATOM     14  C   LIG    1       21.750 -32.412  14.911  0.00  0.00    +0.080 C 
ATOM     15  C   LIG    1       19.934 -31.968  11.807  0.00  0.00    +0.032 C 
ATOM     16  C   LIG    1       22.409 -31.696  13.711  0.00  0.00    +0.019 C 
ATOM     17  C   LIG    1       20.332 -31.281  10.508  0.00  0.00    +0.008 C 
ATOM     18  C   LIG    1       22.775 -32.403   8.829  0.00  0.00    +0.009 C 
ATOM     19  C   LIG    1       24.528 -30.302  11.519  0.00  0.00    +0.011 C 
ATOM     20  C   LIG    1       24.169 -32.266   8.236  0.00  0.00    +0.057 C 
ENDROOT
BRANCH   1  21
ATOM     21  C   LIG    1       26.412 -31.250   8.855  0.00  0.00    +0.174 C 
ATOM     22  O   LIG    1       27.196 -30.512   9.463  0.00  0.00    -0.293 OA
ATOM     23  C   LIG    1       26.991 -32.289   7.928  0.00  0.00    +0.090 C 
ENDBRANCH   1  21
BRANCH   1  24
ATOM     24  O   LIG    1       24.273 -29.856   8.654  0.00  0.00    -0.450 OA
BRANCH  24  25
ATOM     25  C   LIG    1       24.403 -29.401   7.381  0.00  0.00    +0.308 C 
ATOM     26  O   LIG    1       23.695 -29.712   6.447  0.00  0.00    -0.251 OA
BRANCH  25  27
ATOM     27  C   LIG    1       25.496 -28.347   7.299  0.00  0.00    +0.120 C 
BRANCH  27  28
ATOM     28  C   LIG    1       24.964 -27.107   6.581  0.00  0.00    +0.011 C 
BRANCH  28  29
ATOM     29  C   LIG    1       25.973 -25.955   6.542  0.00  0.00    +0.000 C 
BRANCH  29  31
ATOM     30  C   LIG    1       23.744 -24.747   6.450  0.00  0.00    +0.004 C 
ATOM     31  C   LIG    1       25.258 -24.599   6.505  0.00  0.00    -0.003 C 
ENDBRANCH  29  31
ENDBRANCH  28  29
ENDBRANCH  27  28
ENDBRANCH  25  27
ENDBRANCH  24  25
ENDBRANCH   1  24
TORSDOF 7
ENDMDL
MODEL 4
REMARK VINA RESULT:      -5.9      8.806     10.959
REMARK  Name = *****
REMARK                            x       y       z     vdW  Elec       q    Type
REMARK                         _______ _______ _______ _____ _____    ______ ____
ROOT
ATOM      1  C   LIG    1       24.152 -30.750   9.757  0.00  0.00    +0.176 C 
ATOM      2  C   LIG    1       25.588 -30.423  10.357  0.00  0.00    +0.018 C 
ATOM      3  C   LIG    1       26.733 -31.026   9.490  0.00  0.00    +0.016 C 
ATOM      4  C   LIG    1       25.595 -31.193  11.727  0.00  0.00    +0.003 C 
ATOM      5  C   LIG    1       25.252 -30.362  12.992  0.00  0.00    -0.003 C 
ATOM      6  C   LIG    1       25.913 -28.968  13.047  0.00  0.00    +0.002 C 
ATOM      7  C   LIG    1       25.521 -28.214  11.780  0.00  0.00    +0.005 C 
ATOM      8  C   LIG    1       27.424 -28.903  13.502  0.00  0.00    -0.007 C 
ATOM      9  C   LIG    1       27.777 -27.408  13.761  0.00  0.00    +0.016 C 
ATOM     10  C   LIG    1       27.600 -29.766  14.760  0.00  0.00    -0.060 C 
ATOM     11  C   LIG    1       28.720 -29.632  15.500  0.00  0.00    +0.046 C 
ATOM     12  C   LIG    1       29.893 -30.048  14.642  0.00  0.00    +0.156 C 
ATOM     13  O   LIG    1       30.863 -30.585  15.170  0.00  0.00    -0.293 OA
ATOM     14  C   LIG    1       29.890 -29.634  13.171  0.00  0.00    +0.080 C 
ATOM     15  C   LIG    1       26.979 -31.151  14.705  0.00  0.00    +0.032 C 
ATOM     16  C   LIG    1       28.493 -29.471  12.534  0.00  0.00    +0.019 C 
ATOM     17  C   LIG    1       25.510 -31.116  14.308  0.00  0.00    +0.008 C 
ATOM     18  C   LIG    1       24.609 -32.369  11.540  0.00  0.00    +0.009 C 
ATOM     19  C   LIG    1       25.895 -28.910  10.490  0.00  0.00    +0.011 C 
ATOM     20  C   LIG    1       24.025 -32.248  10.140  0.00  0.00    +0.057 C 
ENDROOT
BRANCH   1  21
ATOM     21  C   LIG    1       24.054 -30.613   8.198  0.00  0.00    +0.174 C 
ATOM     22  O   LIG    1       23.677 -31.549   7.485  0.00  0.00    -0.293 OA
ATOM     23  C   LIG    1       24.419 -29.313   7.526  0.00  0.00    +0.090 C 
ENDBRANCH   1  21
BRANCH   1  24
ATOM     24  O   LIG    1       23.188 -29.979  10.524  0.00  0.00    -0.450 OA
BRANCH  24  25
ATOM     25  C   LIG    1       21.935 -30.461  10.723  0.00  0.00    +0.308 C 
ATOM     26  O   LIG    1       21.246 -30.998   9.881  0.00  0.00    -0.251 OA
BRANCH  25  27
ATOM     27  C   LIG    1       21.543 -30.343  12.187  0.00  0.00    +0.120 C 
BRANCH  27  28
ATOM     28  C   LIG    1       21.255 -28.881  12.528  0.00  0.00    +0.011 C 
BRANCH  28  29
ATOM     29  C   LIG    1       22.263 -28.285  13.516  0.00  0.00    +0.000 C 
BRANCH  29  31
ATOM     30  C   LIG    1       23.323 -26.123  14.315  0.00  0.00    +0.004 C 
ATOM     31  C   LIG    1       22.504 -26.798  13.224  0.00  0.00    -0.003 C 
ENDBRANCH  29  31
ENDBRANCH  28  29
ENDBRANCH  27  28
ENDBRANCH  25  27
ENDBRANCH  24  25
ENDBRANCH   1  24
TORSDOF 7
ENDMDL
MODEL 5
REMARK VINA RESULT:      -5.8      8.271     11.678
REMARK  Name = *****
REMARK                            x       y       z     vdW  Elec       q    Type
REMARK                         _______ _______ _______ _____ _____    ______ ____
ROOT
ATOM      1  C   LIG    1       26.092 -29.209  11.616  0.00  0.00    +0.176 C 
ATOM      2  C   LIG    1       26.076 -30.438  10.606  0.00  0.00    +0.018 C 
ATOM      3  C   LIG    1       27.448 -31.175  10.563  0.00  0.00    +0.016 C 
ATOM      4  C   LIG    1       25.876 -29.756   9.205  0.00  0.00    +0.003 C 
ATOM      5  C   LIG    1       24.427 -29.719   8.652  0.00  0.00    -0.003 C 
ATOM      6  C   LIG    1       23.633 -31.030   8.835  0.00  0.00    +0.002 C 
ATOM      7  C   LIG    1       23.636 -31.376  10.321  0.00  0.00    +0.005 C 
ATOM      8  C   LIG    1       23.919 -32.197   7.810  0.00  0.00    -0.007 C 
ATOM      9  C   LIG    1       22.817 -33.280   8.005  0.00  0.00    +0.016 C 
ATOM     10  C   LIG    1       23.915 -31.618   6.387  0.00  0.00    -0.060 C 
ATOM     11  C   LIG    1       23.840 -32.458   5.334  0.00  0.00    +0.046 C 
ATOM     12  C   LIG    1       25.080 -33.321   5.341  0.00  0.00    +0.156 C 
ATOM     13  O   LIG    1       25.555 -33.699   4.273  0.00  0.00    -0.293 OA
ATOM     14  C   LIG    1       25.598 -33.824   6.688  0.00  0.00    +0.080 C 
ATOM     15  C   LIG    1       24.719 -30.345   6.189  0.00  0.00    +0.032 C 
ATOM     16  C   LIG    1       25.292 -32.911   7.895  0.00  0.00    +0.019 C 
ATOM     17  C   LIG    1       24.344 -29.258   7.186  0.00  0.00    +0.008 C 
ATOM     18  C   LIG    1       26.459 -28.332   9.357  0.00  0.00    +0.009 C 
ATOM     19  C   LIG    1       25.013 -31.518  10.932  0.00  0.00    +0.011 C 
ATOM     20  C   LIG    1       26.925 -28.188  10.799  0.00  0.00    +0.057 C 
ENDROOT
BRANCH   1  21
ATOM     21  C   LIG    1       26.825 -29.495  12.973  0.00  0.00    +0.174 C 
ATOM     22  O   LIG    1       26.451 -30.392  13.738  0.00  0.00    -0.293 OA
ATOM     23  C   LIG    1       28.023 -28.674  13.377  0.00  0.00    +0.090 C 
ENDBRANCH   1  21
BRANCH   1  24
ATOM     24  O   LIG    1       24.724 -28.732  11.723  0.00  0.00    -0.450 OA
BRANCH  24  25
ATOM     25  C   LIG    1       24.331 -28.032  12.818  0.00  0.00    +0.308 C 
ATOM     26  O   LIG    1       24.819 -26.988  13.197  0.00  0.00    -0.251 OA
BRANCH  25  27
ATOM     27  C   LIG    1       23.108 -28.673  13.453  0.00  0.00    +0.120 C 
BRANCH  27  28
ATOM     28  C   LIG    1       21.839 -28.112  12.810  0.00  0.00    +0.011 C 
BRANCH  28  29
ATOM     29  C   LIG    1       21.315 -26.856  13.512  0.00  0.00    +0.000 C 
BRANCH  29  31
ATOM     30  C   LIG    1       18.885 -26.276  13.953  0.00  0.00    +0.004 C 
ATOM     31  C   LIG    1       19.981 -26.403  12.905  0.00  0.00    -0.003 C 
ENDBRANCH  29  31
ENDBRANCH  28  29
ENDBRANCH  27  28
ENDBRANCH  25  27
ENDBRANCH  24  25
ENDBRANCH   1  24
TORSDOF 7
ENDMDL
MODEL 6
REMARK VINA RESULT:      -5.6      8.696     12.938
REMARK  Name = *****
REMARK                            x       y       z     vdW  Elec       q    Type
REMARK                         _______ _______ _______ _____ _____    ______ ____
ROOT
ATOM      1  C   LIG    1       25.780 -31.543   9.899  0.00  0.00    +0.176 C 
ATOM      2  C   LIG    1       24.287 -32.035  10.138  0.00  0.00    +0.018 C 
ATOM      3  C   LIG    1       23.662 -32.651   8.850  0.00  0.00    +0.016 C 
ATOM      4  C   LIG    1       23.508 -30.703  10.434  0.00  0.00    +0.003 C 
ATOM      5  C   LIG    1       23.272 -30.355  11.928  0.00  0.00    -0.003 C 
ATOM      6  C   LIG    1       22.843 -31.548  12.809  0.00  0.00    +0.002 C 
ATOM      7  C   LIG    1       23.900 -32.639  12.667  0.00  0.00    +0.005 C 
ATOM      8  C   LIG    1       21.326 -31.983  12.745  0.00  0.00    -0.007 C 
ATOM      9  C   LIG    1       21.072 -32.986  13.909  0.00  0.00    +0.016 C 
ATOM     10  C   LIG    1       20.446 -30.729  12.860  0.00  0.00    -0.060 C 
ATOM     11  C   LIG    1       19.131 -30.868  13.128  0.00  0.00    +0.046 C 
ATOM     12  C   LIG    1       18.501 -31.616  11.975  0.00  0.00    +0.156 C 
ATOM     13  O   LIG    1       17.341 -31.366  11.660  0.00  0.00    -0.293 OA
ATOM     14  C   LIG    1       19.284 -32.772  11.354  0.00  0.00    +0.080 C 
ATOM     15  C   LIG    1       20.841 -29.560  11.975  0.00  0.00    +0.032 C 
ATOM     16  C   LIG    1       20.821 -32.648  11.440  0.00  0.00    +0.019 C 
ATOM     17  C   LIG    1       22.306 -29.176  12.136  0.00  0.00    +0.008 C 
ATOM     18  C   LIG    1       24.308 -29.593   9.715  0.00  0.00    +0.009 C 
ATOM     19  C   LIG    1       24.137 -33.106  11.248  0.00  0.00    +0.011 C 
ATOM     20  C   LIG    1       25.521 -30.254   9.077  0.00  0.00    +0.057 C 
ENDROOT
BRANCH   1  21
ATOM     21  C   LIG    1       26.656 -32.524   9.045  0.00  0.00    +0.174 C 
ATOM     22  O   LIG    1       27.134 -33.558   9.527  0.00  0.00    -0.293 OA
ATOM     23  C   LIG    1       26.934 -32.227   7.592  0.00  0.00    +0.090 C 
ENDBRANCH   1  21
BRANCH   1  24
ATOM     24  O   LIG    1       26.319 -31.181  11.198  0.00  0.00    -0.450 OA
BRANCH  24  25
ATOM     25  C   LIG    1       27.181 -30.138  11.310  0.00  0.00    +0.308 C 
ATOM     26  O   LIG    1       28.156 -29.953  10.613  0.00  0.00    -0.251 OA
BRANCH  25  27
ATOM     27  C   LIG    1       26.696 -29.154  12.364  0.00  0.00    +0.120 C 
BRANCH  27  28
ATOM     28  C   LIG    1       26.713 -27.736  11.792  0.00  0.00    +0.011 C 
BRANCH  28  29
ATOM     29  C   LIG    1       26.313 -26.670  12.816  0.00  0.00    +0.000 C 
BRANCH  29  31
ATOM     30  C   LIG    1       23.957 -26.157  13.604  0.00  0.00    +0.004 C 
ATOM     31  C   LIG    1       25.120 -27.137  13.658  0.00  0.00    -0.003 C 
ENDBRANCH  29  31
ENDBRANCH  28  29
ENDBRANCH  27  28
ENDBRANCH  25  27
ENDBRANCH  24  25
ENDBRANCH   1  24
TORSDOF 7
ENDMDL
MODEL 7
REMARK VINA RESULT:      -5.3      9.299     12.087
REMARK  Name = *****
REMARK                            x       y       z     vdW  Elec       q    Type
REMARK                         _______ _______ _______ _____ _____    ______ ____
ROOT
ATOM      1  C   LIG    1       21.051 -31.799  11.738  0.00  0.00    +0.176 C 
ATOM      2  C   LIG    1       22.414 -31.094  11.321  0.00  0.00    +0.018 C 
ATOM      3  C   LIG    1       22.845 -31.469   9.871  0.00  0.00    +0.016 C 
ATOM      4  C   LIG    1       23.469 -31.734  12.293  0.00  0.00    +0.003 C 
ATOM      5  C   LIG    1       23.829 -30.917  13.562  0.00  0.00    -0.003 C 
ATOM      6  C   LIG    1       24.028 -29.405  13.320  0.00  0.00    +0.002 C 
ATOM      7  C   LIG    1       22.759 -28.864  12.669  0.00  0.00    +0.005 C 
ATOM      8  C   LIG    1       25.415 -28.947  12.719  0.00  0.00    -0.007 C 
ATOM      9  C   LIG    1       25.494 -27.396  12.839  0.00  0.00    +0.016 C 
ATOM     10  C   LIG    1       26.545 -29.645  13.490  0.00  0.00    -0.060 C 
ATOM     11  C   LIG    1       27.809 -29.193  13.361  0.00  0.00    +0.046 C 
ATOM     12  C   LIG    1       28.222 -29.380  11.920  0.00  0.00    +0.156 C 
ATOM     13  O   LIG    1       29.396 -29.628  11.659  0.00  0.00    -0.293 OA
ATOM     14  C   LIG    1       27.189 -29.090  10.832  0.00  0.00    +0.080 C 
ATOM     15  C   LIG    1       26.373 -31.139  13.707  0.00  0.00    +0.032 C 
ATOM     16  C   LIG    1       25.717 -29.315  11.244  0.00  0.00    +0.019 C 
ATOM     17  C   LIG    1       25.030 -31.486  14.336  0.00  0.00    +0.008 C 
ATOM     18  C   LIG    1       22.896 -33.123  12.661  0.00  0.00    +0.009 C 
ATOM     19  C   LIG    1       22.375 -29.546  11.374  0.00  0.00    +0.011 C 
ATOM     20  C   LIG    1       21.547 -33.251  11.968  0.00  0.00    +0.057 C 
ENDROOT
BRANCH   1  21
ATOM     21  C   LIG    1       19.955 -31.806  10.616  0.00  0.00    +0.174 C 
ATOM     22  O   LIG    1       19.541 -30.760  10.105  0.00  0.00    -0.293 OA
ATOM     23  C   LIG    1       19.378 -33.111  10.126  0.00  0.00    +0.090 C 
ENDBRANCH   1  21
BRANCH   1  24
ATOM     24  O   LIG    1       20.651 -31.224  13.011  0.00  0.00    -0.450 OA
BRANCH  24  25
ATOM     25  C   LIG    1       19.411 -31.469  13.509  0.00  0.00    +0.308 C 
ATOM     26  O   LIG    1       19.029 -32.531  13.954  0.00  0.00    -0.251 OA
BRANCH  25  27
ATOM     27  C   LIG    1       18.587 -30.192  13.542  0.00  0.00    +0.120 C 
BRANCH  27  28
ATOM     28  C   LIG    1       19.424 -29.052  14.121  0.00  0.00    +0.011 C 
BRANCH  28  29
ATOM     29  C   LIG    1       18.579 -27.966  14.792  0.00  0.00    +0.000 C 
BRANCH  29  31
ATOM     30  C   LIG    1       20.038 -26.593  13.237  0.00  0.00    +0.004 C 
ATOM     31  C   LIG    1       18.801 -26.604  14.122  0.00  0.00    -0.003 C 
ENDBRANCH  29  31
ENDBRANCH  28  29
ENDBRANCH  27  28
ENDBRANCH  25  27
ENDBRANCH  24  25
ENDBRANCH   1  24
TORSDOF 7
ENDMDL
MODEL 8
REMARK VINA RESULT:      -4.6      8.807     11.392
REMARK  Name = *****
REMARK                            x       y       z     vdW  Elec       q    Type
REMARK                         _______ _______ _______ _____ _____    ______ ____
ROOT
ATOM      1  C   LIG    1       24.009 -32.358   9.463  0.00  0.00    +0.176 C 
ATOM      2  C   LIG    1       24.691 -31.037  10.030  0.00  0.00    +0.018 C 
ATOM      3  C   LIG    1       25.908 -30.592   9.167  0.00  0.00    +0.016 C 
ATOM      4  C   LIG    1       25.257 -31.489  11.425  0.00  0.00    +0.003 C 
ATOM      5  C   LIG    1       24.384 -31.166  12.666  0.00  0.00    -0.003 C 
ATOM      6  C   LIG    1       23.759 -29.754  12.665  0.00  0.00    +0.002 C 
ATOM      7  C   LIG    1       22.951 -29.600  11.380  0.00  0.00    +0.005 C 
ATOM      8  C   LIG    1       24.690 -28.552  13.095  0.00  0.00    -0.007 C 
ATOM      9  C   LIG    1       23.785 -27.301  13.299  0.00  0.00    +0.016 C 
ATOM     10  C   LIG    1       25.439 -28.940  14.379  0.00  0.00    -0.060 C 
ATOM     11  C   LIG    1       26.058 -27.980  15.097  0.00  0.00    +0.046 C 
ATOM     12  C   LIG    1       27.152 -27.392  14.236  0.00  0.00    +0.156 C 
ATOM     13  O   LIG    1       28.184 -26.990  14.767  0.00  0.00    -0.293 OA
ATOM     14  C   LIG    1       26.859 -27.172  12.752  0.00  0.00    +0.080 C 
ATOM     15  C   LIG    1       26.083 -30.315  14.379  0.00  0.00    +0.032 C 
ATOM     16  C   LIG    1       25.833 -28.145  12.131  0.00  0.00    +0.019 C 
ATOM     17  C   LIG    1       25.103 -31.418  14.002  0.00  0.00    +0.008 C 
ATOM     18  C   LIG    1       25.507 -33.009  11.291  0.00  0.00    +0.009 C 
ATOM     19  C   LIG    1       23.743 -29.813  10.109  0.00  0.00    +0.011 C 
ATOM     20  C   LIG    1       25.055 -33.419   9.897  0.00  0.00    +0.057 C 
ENDROOT
BRANCH   1  21
ATOM     21  C   LIG    1       23.866 -32.393   7.902  0.00  0.00    +0.174 C 
ATOM     22  O   LIG    1       23.279 -31.499   7.283  0.00  0.00    -0.293 OA
ATOM     23  C   LIG    1       24.454 -33.534   7.110  0.00  0.00    +0.090 C 
ENDBRANCH   1  21
BRANCH   1  24
ATOM     24  O   LIG    1       22.784 -32.559  10.218  0.00  0.00    -0.450 OA
BRANCH  24  25
ATOM     25  C   LIG    1       21.640 -32.908   9.576  0.00  0.00    +0.308 C 
ATOM     26  O   LIG    1       21.526 -33.825   8.790  0.00  0.00    -0.251 OA
BRANCH  25  27
ATOM     27  C   LIG    1       20.474 -32.062  10.063  0.00  0.00    +0.120 C 
BRANCH  27  28
ATOM     28  C   LIG    1       20.215 -32.345  11.543  0.00  0.00    +0.011 C 
BRANCH  28  29
ATOM     29  C   LIG    1       19.717 -31.116  12.311  0.00  0.00    +0.000 C 
BRANCH  29  31
ATOM     30  C   LIG    1       21.210 -32.254  14.018  0.00  0.00    +0.004 C 
ATOM     31  C   LIG    1       20.399 -31.011  13.681  0.00  0.00    -0.003 C 
ENDBRANCH  29  31
ENDBRANCH  28  29
ENDBRANCH  27  28
ENDBRANCH  25  27
ENDBRANCH  24  25
ENDBRANCH   1  24
TORSDOF 7
ENDMDL
MODEL 9
REMARK VINA RESULT:      -4.6      8.660     11.695
REMARK  Name = *****
REMARK                            x       y       z     vdW  Elec       q    Type
REMARK                         _______ _______ _______ _____ _____    ______ ____
ROOT
ATOM      1  C   LIG    1       22.953 -32.013  11.497  0.00  0.00    +0.176 C 
ATOM      2  C   LIG    1       23.794 -30.668  11.614  0.00  0.00    +0.018 C 
ATOM      3  C   LIG    1       24.968 -30.623  10.591  0.00  0.00    +0.016 C 
ATOM      4  C   LIG    1       24.435 -30.761  13.045  0.00  0.00    +0.003 C 
ATOM      5  C   LIG    1       23.703 -30.004  14.184  0.00  0.00    -0.003 C 
ATOM      6  C   LIG    1       23.207 -28.592  13.806  0.00  0.00    +0.002 C 
ATOM      7  C   LIG    1       22.309 -28.725  12.579  0.00  0.00    +0.005 C 
ATOM      8  C   LIG    1       24.272 -27.426  13.812  0.00  0.00    -0.007 C 
ATOM      9  C   LIG    1       23.501 -26.079  13.692  0.00  0.00    +0.016 C 
ATOM     10  C   LIG    1       25.091 -27.511  15.109  0.00  0.00    -0.060 C 
ATOM     11  C   LIG    1       25.851 -26.459  15.479  0.00  0.00    +0.046 C 
ATOM     12  C   LIG    1       26.915 -26.264  14.424  0.00  0.00    +0.156 C 
ATOM     13  O   LIG    1       28.020 -25.842  14.756  0.00  0.00    -0.293 OA
ATOM     14  C   LIG    1       26.517 -26.446  12.960  0.00  0.00    +0.080 C 
ATOM     15  C   LIG    1       25.610 -28.890  15.476  0.00  0.00    +0.032 C 
ATOM     16  C   LIG    1       25.361 -27.438  12.709  0.00  0.00    +0.019 C 
ATOM     17  C   LIG    1       24.508 -29.942  15.494  0.00  0.00    +0.008 C 
ATOM     18  C   LIG    1       24.538 -32.274  13.349  0.00  0.00    +0.009 C 
ATOM     19  C   LIG    1       22.968 -29.377  11.384  0.00  0.00    +0.011 C 
ATOM     20  C   LIG    1       23.935 -33.013  12.163  0.00  0.00    +0.057 C 
ENDROOT
BRANCH   1  21
ATOM     21  C   LIG    1       22.675 -32.477  10.025  0.00  0.00    +0.174 C 
ATOM     22  O   LIG    1       22.049 -31.769   9.228  0.00  0.00    -0.293 OA
ATOM     23  C   LIG    1       23.176 -33.814   9.542  0.00  0.00    +0.090 C 
ENDBRANCH   1  21
BRANCH   1  24
ATOM     24  O   LIG    1       21.784 -31.856  12.345  0.00  0.00    -0.450 OA
BRANCH  24  25
ATOM     25  C   LIG    1       20.677 -32.610  12.123  0.00  0.00    +0.308 C 
ATOM     26  O   LIG    1       20.628 -33.821  12.182  0.00  0.00    -0.251 OA
BRANCH  25  27
ATOM     27  C   LIG    1       19.462 -31.724  11.901  0.00  0.00    +0.120 C 
BRANCH  27  28
ATOM     28  C   LIG    1       18.844 -31.348  13.248  0.00  0.00    +0.011 C 
BRANCH  28  29
ATOM     29  C   LIG    1       19.181 -29.919  13.685  0.00  0.00    +0.000 C 
BRANCH  29  31
ATOM     30  C   LIG    1       20.347 -31.266  15.490  0.00  0.00    +0.004 C 
ATOM     31  C   LIG    1       19.799 -29.905  15.089  0.00  0.00    -0.003 C 
ENDBRANCH  29  31
ENDBRANCH  28  29
ENDBRANCH  27  28
ENDBRANCH  25  27
ENDBRANCH  24  25
ENDBRANCH   1  24
TORSDOF 7
ENDMDL
