MODEL 1
REMARK VINA RESULT:      -9.8      0.000      0.000
REMARK  Name = *****
REMARK                            x       y       z     vdW  Elec       q    Type
REMARK                         _______ _______ _______ _____ _____    ______ ____
ROOT
ATOM      1  C   LIG    1       24.797 -26.326   6.026  0.00  0.00    +0.015 A 
ATOM      2  C   LIG    1       23.644 -25.558   6.253  0.00  0.00    +0.043 A 
ATOM      3  C   LIG    1       23.816 -24.199   6.553  0.00  0.00    +0.067 A 
ATOM      4  C   LIG    1       25.064 -23.594   6.658  0.00  0.00    +0.027 A 
ATOM      5  C   LIG    1       24.788 -22.211   6.897  0.00  0.00    +0.093 A 
ATOM      6  N   LIG    1       23.466 -21.989   6.979  0.00  0.00    -0.173 NA
ATOM      7  C   LIG    1       26.212 -24.395   6.499  0.00  0.00    +0.013 A 
ATOM      8  N   LIG    1       22.915 -23.196   6.785  0.00  0.00    -0.276 N 
ATOM      9  H   LIG    1       21.904 -23.264   6.800  0.00  0.00    +0.189 HD
ATOM     10  C   LIG    1       26.065 -25.756   6.184  0.00  0.00    +0.016 A 
ENDROOT
BRANCH   5  11
ATOM     11  C   LIG    1       25.784 -21.183   7.002  0.00  0.00    +0.032 C 
ATOM     12  C   LIG    1       27.107 -21.386   6.874  0.00  0.00    +0.030 C 
BRANCH  12  13
ATOM     13  C   LIG    1       28.124 -20.337   7.001  0.00  0.00    +0.064 A 
ATOM     14  N   LIG    1       28.654 -20.117   8.229  0.00  0.00    -0.256 NA
ATOM     15  C   LIG    1       29.593 -19.149   8.334  0.00  0.00    +0.111 A 
ATOM     16  C   LIG    1       30.034 -18.381   7.270  0.00  0.00    +0.020 A 
ATOM     17  C   LIG    1       29.482 -18.619   6.019  0.00  0.00    +0.004 A 
ATOM     18  C   LIG    1       28.514 -19.610   5.879  0.00  0.00    +0.028 A 
ENDBRANCH  12  13
ENDBRANCH   5  11
BRANCH   1  19
ATOM     19  S   LIG    1       24.614 -28.045   5.543  0.00  0.00    -0.089 S 
BRANCH  19  21
ATOM     20  C   LIG    1       25.056 -30.312   7.215  0.00  0.00    +0.050 A 
ATOM     21  C   LIG    1       25.175 -28.921   7.013  0.00  0.00    +0.025 A 
ATOM     22  C   LIG    1       25.840 -28.160   7.999  0.00  0.00    +0.016 A 
ATOM     23  C   LIG    1       26.295 -28.741   9.186  0.00  0.00    +0.001 A 
ATOM     24  C   LIG    1       26.115 -30.098   9.409  0.00  0.00    +0.001 A 
ATOM     25  C   LIG    1       25.517 -30.878   8.422  0.00  0.00    +0.014 A 
BRANCH  20  29
ATOM     26  C   LIG    1       24.919 -33.043   4.573  0.00  0.00    +0.128 C 
ATOM     27  N   LIG    1       25.394 -32.094   5.545  0.00  0.00    -0.314 N 
ATOM     28  H   LIG    1       26.378 -32.074   5.782  0.00  0.00    +0.149 HD
ATOM     29  C   LIG    1       24.513 -31.306   6.242  0.00  0.00    +0.245 C 
ATOM     30  O   LIG    1       23.295 -31.367   6.056  0.00  0.00    -0.270 OA
ENDBRANCH  20  29
ENDBRANCH  19  21
ENDBRANCH   1  19
TORSDOF 5
ENDMDL
MODEL 2
REMARK VINA RESULT:      -9.0      3.369      9.736
REMARK  Name = *****
REMARK                            x       y       z     vdW  Elec       q    Type
REMARK                         _______ _______ _______ _____ _____    ______ ____
ROOT
ATOM      1  C   LIG    1       24.167 -23.481   6.784  0.00  0.00    +0.015 A 
ATOM      2  C   LIG    1       25.545 -23.725   6.668  0.00  0.00    +0.043 A 
ATOM      3  C   LIG    1       25.948 -25.022   6.319  0.00  0.00    +0.067 A 
ATOM      4  C   LIG    1       25.055 -26.068   6.111  0.00  0.00    +0.027 A 
ATOM      5  C   LIG    1       25.866 -27.175   5.708  0.00  0.00    +0.093 A 
ATOM      6  N   LIG    1       27.168 -26.848   5.712  0.00  0.00    -0.173 NA
ATOM      7  C   LIG    1       23.681 -25.824   6.303  0.00  0.00    +0.013 A 
ATOM      8  N   LIG    1       27.185 -25.562   6.095  0.00  0.00    -0.276 N 
ATOM      9  H   LIG    1       28.083 -25.099   6.164  0.00  0.00    +0.189 HD
ATOM     10  C   LIG    1       23.251 -24.529   6.639  0.00  0.00    +0.016 A 
ENDROOT
BRANCH   5  11
ATOM     11  C   LIG    1       25.362 -28.460   5.315  0.00  0.00    +0.032 C 
ATOM     12  C   LIG    1       25.356 -29.550   6.101  0.00  0.00    +0.030 C 
BRANCH  12  13
ATOM     13  C   LIG    1       24.859 -30.868   5.691  0.00  0.00    +0.064 A 
ATOM     14  N   LIG    1       23.710 -31.314   6.255  0.00  0.00    -0.256 NA
ATOM     15  C   LIG    1       23.260 -32.529   5.869  0.00  0.00    +0.111 A 
ATOM     16  C   LIG    1       23.902 -33.331   4.941  0.00  0.00    +0.020 A 
ATOM     17  C   LIG    1       25.078 -32.860   4.372  0.00  0.00    +0.004 A 
ATOM     18  C   LIG    1       25.565 -31.612   4.749  0.00  0.00    +0.028 A 
ENDBRANCH  12  13
ENDBRANCH   5  11
BRANCH   1  19
ATOM     19  S   LIG    1       23.608 -21.811   7.131  0.00  0.00    -0.089 S 
BRANCH  19  21
ATOM     20  C   LIG    1       25.595 -20.341   5.710  0.00  0.00    +0.050 A 
ATOM     21  C   LIG    1       24.292 -20.880   5.750  0.00  0.00    +0.025 A 
ATOM     22  C   LIG    1       23.481 -20.742   4.603  0.00  0.00    +0.016 A 
ATOM     23  C   LIG    1       23.911 -20.021   3.485  0.00  0.00    +0.001 A 
ATOM     24  C   LIG    1       25.168 -19.435   3.479  0.00  0.00    +0.001 A 
ATOM     25  C   LIG    1       26.008 -19.611   4.575  0.00  0.00    +0.014 A 
BRANCH  20  29
ATOM     26  C   LIG    1       28.917 -21.170   7.364  0.00  0.00    +0.128 C 
ATOM     27  N   LIG    1       27.879 -20.976   6.386  0.00  0.00    -0.314 N 
ATOM     28  H   LIG    1       28.090 -21.110   5.404  0.00  0.00    +0.149 HD
ATOM     29  C   LIG    1       26.650 -20.493   6.756  0.00  0.00    +0.245 C 
ATOM     30  O   LIG    1       26.382 -20.222   7.929  0.00  0.00    -0.270 OA
ENDBRANCH  20  29
ENDBRANCH  19  21
ENDBRANCH   1  19
TORSDOF 5
ENDMDL
MODEL 3
REMARK VINA RESULT:      -8.9      3.543      9.808
REMARK  Name = *****
REMARK                            x       y       z     vdW  Elec       q    Type
REMARK                         _______ _______ _______ _____ _____    ______ ____
ROOT
ATOM      1  C   LIG    1       26.167 -21.603   8.016  0.00  0.00    +0.015 A 
ATOM      2  C   LIG    1       24.779 -21.516   7.818  0.00  0.00    +0.043 A 
ATOM      3  C   LIG    1       24.133 -22.625   7.253  0.00  0.00    +0.067 A 
ATOM      4  C   LIG    1       24.801 -23.780   6.862  0.00  0.00    +0.027 A 
ATOM      5  C   LIG    1       23.776 -24.670   6.415  0.00  0.00    +0.093 A 
ATOM      6  N   LIG    1       22.567 -24.089   6.483  0.00  0.00    -0.173 NA
ATOM      7  C   LIG    1       26.203 -23.821   6.999  0.00  0.00    +0.013 A 
ATOM      8  N   LIG    1       22.815 -22.865   6.972  0.00  0.00    -0.276 N 
ATOM      9  H   LIG    1       22.029 -22.242   7.114  0.00  0.00    +0.189 HD
ATOM     10  C   LIG    1       26.872 -22.729   7.576  0.00  0.00    +0.016 A 
ENDROOT
BRANCH   5  11
ATOM     11  C   LIG    1       23.994 -26.021   5.982  0.00  0.00    +0.032 C 
ATOM     12  C   LIG    1       24.391 -27.025   6.785  0.00  0.00    +0.030 C 
BRANCH  12  13
ATOM     13  C   LIG    1       24.633 -28.401   6.337  0.00  0.00    +0.064 A 
ATOM     14  N   LIG    1       24.026 -29.403   7.017  0.00  0.00    -0.256 NA
ATOM     15  C   LIG    1       24.254 -30.667   6.595  0.00  0.00    +0.111 A 
ATOM     16  C   LIG    1       25.065 -30.987   5.519  0.00  0.00    +0.020 A 
ATOM     17  C   LIG    1       25.680 -29.949   4.832  0.00  0.00    +0.004 A 
ATOM     18  C   LIG    1       25.463 -28.637   5.243  0.00  0.00    +0.028 A 
ENDBRANCH  12  13
ENDBRANCH   5  11
BRANCH   1  19
ATOM     19  S   LIG    1       27.014 -20.244   8.827  0.00  0.00    -0.089 S 
BRANCH  19  21
ATOM     20  C   LIG    1       29.426 -19.133   7.789  0.00  0.00    +0.050 A 
ATOM     21  C   LIG    1       28.147 -19.677   7.547  0.00  0.00    +0.025 A 
ATOM     22  C   LIG    1       27.742 -19.854   6.207  0.00  0.00    +0.016 A 
ATOM     23  C   LIG    1       28.539 -19.428   5.140  0.00  0.00    +0.001 A 
ATOM     24  C   LIG    1       29.767 -18.832   5.386  0.00  0.00    +0.001 A 
ATOM     25  C   LIG    1       30.213 -18.704   6.699  0.00  0.00    +0.014 A 
BRANCH  20  29
ATOM     26  C   LIG    1       30.653 -17.590  11.040  0.00  0.00    +0.128 C 
ATOM     27  N   LIG    1       30.001 -17.787   9.772  0.00  0.00    -0.314 N 
ATOM     28  H   LIG    1       29.394 -17.063   9.407  0.00  0.00    +0.149 HD
ATOM     29  C   LIG    1       30.092 -18.989   9.118  0.00  0.00    +0.245 C 
ATOM     30  O   LIG    1       30.741 -19.934   9.575  0.00  0.00    -0.270 OA
ENDBRANCH  20  29
ENDBRANCH  19  21
ENDBRANCH   1  19
TORSDOF 5
ENDMDL
MODEL 4
REMARK VINA RESULT:      -8.6      2.647      4.615
REMARK  Name = *****
REMARK                            x       y       z     vdW  Elec       q    Type
REMARK                         _______ _______ _______ _____ _____    ______ ____
ROOT
ATOM      1  C   LIG    1       24.661 -30.256   6.491  0.00  0.00    +0.015 A 
ATOM      2  C   LIG    1       24.988 -29.721   5.235  0.00  0.00    +0.043 A 
ATOM      3  C   LIG    1       25.278 -28.351   5.168  0.00  0.00    +0.067 A 
ATOM      4  C   LIG    1       25.232 -27.507   6.272  0.00  0.00    +0.027 A 
ATOM      5  C   LIG    1       25.663 -26.233   5.786  0.00  0.00    +0.093 A 
ATOM      6  N   LIG    1       25.912 -26.278   4.467  0.00  0.00    -0.173 NA
ATOM      7  C   LIG    1       24.831 -28.046   7.511  0.00  0.00    +0.013 A 
ATOM      8  N   LIG    1       25.659 -27.550   4.126  0.00  0.00    -0.276 N 
ATOM      9  H   LIG    1       25.790 -27.816   3.157  0.00  0.00    +0.189 HD
ATOM     10  C   LIG    1       24.548 -29.418   7.606  0.00  0.00    +0.016 A 
ENDROOT
BRANCH   5  11
ATOM     11  C   LIG    1       25.842 -25.063   6.598  0.00  0.00    +0.032 C 
ATOM     12  C   LIG    1       25.492 -23.818   6.230  0.00  0.00    +0.030 C 
BRANCH  12  13
ATOM     13  C   LIG    1       25.694 -22.621   7.053  0.00  0.00    +0.064 A 
ATOM     14  N   LIG    1       26.967 -22.279   7.370  0.00  0.00    -0.256 NA
ATOM     15  C   LIG    1       27.142 -21.173   8.127  0.00  0.00    +0.111 A 
ATOM     16  C   LIG    1       26.105 -20.382   8.591  0.00  0.00    +0.020 A 
ATOM     17  C   LIG    1       24.806 -20.745   8.257  0.00  0.00    +0.004 A 
ATOM     18  C   LIG    1       24.595 -21.879   7.478  0.00  0.00    +0.028 A 
ENDBRANCH  12  13
ENDBRANCH   5  11
BRANCH   1  19
ATOM     19  S   LIG    1       24.380 -32.024   6.634  0.00  0.00    -0.089 S 
BRANCH  19  21
ATOM     20  C   LIG    1       27.077 -32.747   7.211  0.00  0.00    +0.050 A 
ATOM     21  C   LIG    1       26.012 -32.703   6.287  0.00  0.00    +0.025 A 
ATOM     22  C   LIG    1       26.207 -33.289   5.019  0.00  0.00    +0.016 A 
ATOM     23  C   LIG    1       27.443 -33.825   4.643  0.00  0.00    +0.001 A 
ATOM     24  C   LIG    1       28.507 -33.805   5.532  0.00  0.00    +0.001 A 
ATOM     25  C   LIG    1       28.318 -33.287   6.811  0.00  0.00    +0.014 A 
BRANCH  20  29
ATOM     26  C   LIG    1       27.177 -30.507  10.282  0.00  0.00    +0.128 C 
ATOM     27  N   LIG    1       27.180 -30.974   8.921  0.00  0.00    -0.314 N 
ATOM     28  H   LIG    1       27.199 -30.301   8.164  0.00  0.00    +0.149 HD
ATOM     29  C   LIG    1       27.033 -32.308   8.638  0.00  0.00    +0.245 C 
ATOM     30  O   LIG    1       26.908 -33.154   9.527  0.00  0.00    -0.270 OA
ENDBRANCH  20  29
ENDBRANCH  19  21
ENDBRANCH   1  19
TORSDOF 5
ENDMDL
MODEL 5
REMARK VINA RESULT:      -8.5      4.235      6.806
REMARK  Name = *****
REMARK                            x       y       z     vdW  Elec       q    Type
REMARK                         _______ _______ _______ _____ _____    ______ ____
ROOT
ATOM      1  C   LIG    1       26.140 -21.415   7.957  0.00  0.00    +0.015 A 
ATOM      2  C   LIG    1       27.015 -21.623   6.879  0.00  0.00    +0.043 A 
ATOM      3  C   LIG    1       28.175 -20.837   6.823  0.00  0.00    +0.067 A 
ATOM      4  C   LIG    1       28.478 -19.857   7.762  0.00  0.00    +0.027 A 
ATOM      5  C   LIG    1       29.762 -19.359   7.378  0.00  0.00    +0.093 A 
ATOM      6  N   LIG    1       30.198 -19.955   6.257  0.00  0.00    -0.173 NA
ATOM      7  C   LIG    1       27.553 -19.612   8.796  0.00  0.00    +0.013 A 
ATOM      8  N   LIG    1       29.223 -20.821   5.943  0.00  0.00    -0.276 N 
ATOM      9  H   LIG    1       29.345 -21.394   5.117  0.00  0.00    +0.189 HD
ATOM     10  C   LIG    1       26.391 -20.395   8.881  0.00  0.00    +0.016 A 
ENDROOT
BRANCH   5  11
ATOM     11  C   LIG    1       30.511 -18.375   8.107  0.00  0.00    +0.032 C 
ATOM     12  C   LIG    1       30.882 -18.498   9.394  0.00  0.00    +0.030 C 
BRANCH  12  13
ATOM     13  C   LIG    1       31.630 -17.483  10.144  0.00  0.00    +0.064 A 
ATOM     14  N   LIG    1       31.636 -17.573  11.496  0.00  0.00    -0.256 NA
ATOM     15  C   LIG    1       32.331 -16.633  12.177  0.00  0.00    +0.111 A 
ATOM     16  C   LIG    1       33.025 -15.598  11.574  0.00  0.00    +0.020 A 
ATOM     17  C   LIG    1       33.009 -15.519  10.188  0.00  0.00    +0.004 A 
ATOM     18  C   LIG    1       32.304 -16.474   9.460  0.00  0.00    +0.028 A 
ENDBRANCH  12  13
ENDBRANCH   5  11
BRANCH   1  19
ATOM     19  S   LIG    1       24.695 -22.469   8.117  0.00  0.00    -0.089 S 
BRANCH  19  21
ATOM     20  C   LIG    1       24.553 -23.322   5.400  0.00  0.00    +0.050 A 
ATOM     21  C   LIG    1       24.896 -23.610   6.738  0.00  0.00    +0.025 A 
ATOM     22  C   LIG    1       25.500 -24.854   7.016  0.00  0.00    +0.016 A 
ATOM     23  C   LIG    1       25.682 -25.818   6.020  0.00  0.00    +0.001 A 
ATOM     24  C   LIG    1       25.281 -25.555   4.718  0.00  0.00    +0.001 A 
ATOM     25  C   LIG    1       24.739 -24.310   4.410  0.00  0.00    +0.014 A 
BRANCH  20  29
ATOM     26  C   LIG    1       22.214 -20.397   4.743  0.00  0.00    +0.128 C 
ATOM     27  N   LIG    1       22.772 -21.624   5.246  0.00  0.00    -0.314 N 
ATOM     28  H   LIG    1       22.267 -22.148   5.950  0.00  0.00    +0.149 HD
ATOM     29  C   LIG    1       24.032 -22.024   4.877  0.00  0.00    +0.245 C 
ATOM     30  O   LIG    1       24.723 -21.364   4.097  0.00  0.00    -0.270 OA
ENDBRANCH  20  29
ENDBRANCH  19  21
ENDBRANCH   1  19
TORSDOF 5
ENDMDL
MODEL 6
REMARK VINA RESULT:      -8.3      3.441      9.308
REMARK  Name = *****
REMARK                            x       y       z     vdW  Elec       q    Type
REMARK                         _______ _______ _______ _____ _____    ______ ____
ROOT
ATOM      1  C   LIG    1       25.016 -25.327   5.586  0.00  0.00    +0.015 A 
ATOM      2  C   LIG    1       24.292 -26.363   4.974  0.00  0.00    +0.043 A 
ATOM      3  C   LIG    1       24.280 -27.612   5.611  0.00  0.00    +0.067 A 
ATOM      4  C   LIG    1       24.965 -27.871   6.793  0.00  0.00    +0.027 A 
ATOM      5  C   LIG    1       24.629 -29.219   7.131  0.00  0.00    +0.093 A 
ATOM      6  N   LIG    1       23.832 -29.766   6.199  0.00  0.00    -0.173 NA
ATOM      7  C   LIG    1       25.745 -26.841   7.355  0.00  0.00    +0.013 A 
ATOM      8  N   LIG    1       23.654 -28.788   5.299  0.00  0.00    -0.276 N 
ATOM      9  H   LIG    1       23.069 -28.982   4.496  0.00  0.00    +0.189 HD
ATOM     10  C   LIG    1       25.762 -25.577   6.742  0.00  0.00    +0.016 A 
ENDROOT
BRANCH   5  11
ATOM     11  C   LIG    1       25.054 -29.897   8.322  0.00  0.00    +0.032 C 
ATOM     12  C   LIG    1       24.282 -30.089   9.407  0.00  0.00    +0.030 C 
BRANCH  12  13
ATOM     13  C   LIG    1       24.725 -30.765  10.632  0.00  0.00    +0.064 A 
ATOM     14  N   LIG    1       24.679 -32.119  10.659  0.00  0.00    -0.256 NA
ATOM     15  C   LIG    1       25.091 -32.731  11.792  0.00  0.00    +0.111 A 
ATOM     16  C   LIG    1       25.550 -32.058  12.911  0.00  0.00    +0.020 A 
ATOM     17  C   LIG    1       25.591 -30.670  12.868  0.00  0.00    +0.004 A 
ATOM     18  C   LIG    1       25.174 -30.012  11.714  0.00  0.00    +0.028 A 
ENDBRANCH  12  13
ENDBRANCH   5  11
BRANCH   1  19
ATOM     19  S   LIG    1       24.974 -23.689   4.853  0.00  0.00    -0.089 S 
BRANCH  19  21
ATOM     20  C   LIG    1       24.466 -21.476   6.577  0.00  0.00    +0.050 A 
ATOM     21  C   LIG    1       25.234 -22.621   6.279  0.00  0.00    +0.025 A 
ATOM     22  C   LIG    1       26.238 -23.004   7.194  0.00  0.00    +0.016 A 
ATOM     23  C   LIG    1       26.533 -22.232   8.322  0.00  0.00    +0.001 A 
ATOM     24  C   LIG    1       25.819 -21.070   8.573  0.00  0.00    +0.001 A 
ATOM     25  C   LIG    1       24.782 -20.707   7.717  0.00  0.00    +0.014 A 
BRANCH  20  29
ATOM     26  C   LIG    1       22.209 -19.207   4.523  0.00  0.00    +0.128 C 
ATOM     27  N   LIG    1       23.339 -19.739   5.238  0.00  0.00    -0.314 N 
ATOM     28  H   LIG    1       24.216 -19.231   5.233  0.00  0.00    +0.149 HD
ATOM     29  C   LIG    1       23.279 -20.981   5.817  0.00  0.00    +0.245 C 
ATOM     30  O   LIG    1       22.262 -21.678   5.763  0.00  0.00    -0.270 OA
ENDBRANCH  20  29
ENDBRANCH  19  21
ENDBRANCH   1  19
TORSDOF 5
ENDMDL
MODEL 7
REMARK VINA RESULT:      -8.3      3.349      9.875
REMARK  Name = *****
REMARK                            x       y       z     vdW  Elec       q    Type
REMARK                         _______ _______ _______ _____ _____    ______ ____
ROOT
ATOM      1  C   LIG    1       25.851 -26.530   6.543  0.00  0.00    +0.015 A 
ATOM      2  C   LIG    1       25.057 -27.202   5.599  0.00  0.00    +0.043 A 
ATOM      3  C   LIG    1       24.559 -28.465   5.951  0.00  0.00    +0.067 A 
ATOM      4  C   LIG    1       24.834 -29.082   7.166  0.00  0.00    +0.027 A 
ATOM      5  C   LIG    1       24.082 -30.298   7.145  0.00  0.00    +0.093 A 
ATOM      6  N   LIG    1       23.428 -30.442   5.981  0.00  0.00    -0.173 NA
ATOM      7  C   LIG    1       25.691 -28.426   8.072  0.00  0.00    +0.013 A 
ATOM      8  N   LIG    1       23.745 -29.340   5.285  0.00  0.00    -0.276 N 
ATOM      9  H   LIG    1       23.349 -29.234   4.359  0.00  0.00    +0.189 HD
ATOM     10  C   LIG    1       26.192 -27.154   7.748  0.00  0.00    +0.016 A 
ENDROOT
BRANCH   5  11
ATOM     11  C   LIG    1       24.003 -31.232   8.232  0.00  0.00    +0.032 C 
ATOM     12  C   LIG    1       23.438 -30.969   9.424  0.00  0.00    +0.030 C 
BRANCH  12  13
ATOM     13  C   LIG    1       23.375 -31.919  10.541  0.00  0.00    +0.064 A 
ATOM     14  N   LIG    1       22.158 -32.394  10.898  0.00  0.00    -0.256 NA
ATOM     15  C   LIG    1       22.111 -33.270  11.927  0.00  0.00    +0.111 A 
ATOM     16  C   LIG    1       23.226 -33.700  12.626  0.00  0.00    +0.020 A 
ATOM     17  C   LIG    1       24.467 -33.204  12.248  0.00  0.00    +0.004 A 
ATOM     18  C   LIG    1       24.546 -32.301  11.191  0.00  0.00    +0.028 A 
ENDBRANCH  12  13
ENDBRANCH   5  11
BRANCH   1  19
ATOM     19  S   LIG    1       26.425 -24.871   6.170  0.00  0.00    -0.089 S 
BRANCH  19  21
ATOM     20  C   LIG    1       25.123 -22.574   7.246  0.00  0.00    +0.050 A 
ATOM     21  C   LIG    1       25.023 -23.857   6.667  0.00  0.00    +0.025 A 
ATOM     22  C   LIG    1       23.734 -24.363   6.395  0.00  0.00    +0.016 A 
ATOM     23  C   LIG    1       22.580 -23.663   6.760  0.00  0.00    +0.001 A 
ATOM     24  C   LIG    1       22.686 -22.432   7.390  0.00  0.00    +0.001 A 
ATOM     25  C   LIG    1       23.947 -21.886   7.612  0.00  0.00    +0.014 A 
BRANCH  20  29
ATOM     26  C   LIG    1       28.251 -20.511   6.598  0.00  0.00    +0.128 C 
ATOM     27  N   LIG    1       27.019 -21.232   6.418  0.00  0.00    -0.314 N 
ATOM     28  H   LIG    1       26.572 -21.235   5.509  0.00  0.00    +0.149 HD
ATOM     29  C   LIG    1       26.381 -21.807   7.489  0.00  0.00    +0.245 C 
ATOM     30  O   LIG    1       26.840 -21.743   8.632  0.00  0.00    -0.270 OA
ENDBRANCH  20  29
ENDBRANCH  19  21
ENDBRANCH   1  19
TORSDOF 5
ENDMDL
MODEL 8
REMARK VINA RESULT:      -8.3      2.472      4.315
REMARK  Name = *****
REMARK                            x       y       z     vdW  Elec       q    Type
REMARK                         _______ _______ _______ _____ _____    ______ ____
ROOT
ATOM      1  C   LIG    1       25.219 -30.560   7.804  0.00  0.00    +0.015 A 
ATOM      2  C   LIG    1       24.506 -30.101   6.685  0.00  0.00    +0.043 A 
ATOM      3  C   LIG    1       24.567 -28.731   6.393  0.00  0.00    +0.067 A 
ATOM      4  C   LIG    1       25.272 -27.817   7.168  0.00  0.00    +0.027 A 
ATOM      5  C   LIG    1       25.136 -26.567   6.487  0.00  0.00    +0.093 A 
ATOM      6  N   LIG    1       24.363 -26.693   5.396  0.00  0.00    -0.173 NA
ATOM      7  C   LIG    1       25.922 -28.283   8.328  0.00  0.00    +0.013 A 
ATOM      8  N   LIG    1       24.027 -27.991   5.376  0.00  0.00    -0.276 N 
ATOM      9  H   LIG    1       23.438 -28.317   4.620  0.00  0.00    +0.189 HD
ATOM     10  C   LIG    1       25.887 -29.654   8.634  0.00  0.00    +0.016 A 
ENDROOT
BRANCH   5  11
ATOM     11  C   LIG    1       25.766 -25.342   6.889  0.00  0.00    +0.032 C 
ATOM     12  C   LIG    1       25.132 -24.161   7.007  0.00  0.00    +0.030 C 
BRANCH  12  13
ATOM     13  C   LIG    1       25.782 -22.905   7.398  0.00  0.00    +0.064 A 
ATOM     14  N   LIG    1       26.999 -22.632   6.869  0.00  0.00    -0.256 NA
ATOM     15  C   LIG    1       27.587 -21.471   7.234  0.00  0.00    +0.111 A 
ATOM     16  C   LIG    1       27.021 -20.560   8.110  0.00  0.00    +0.020 A 
ATOM     17  C   LIG    1       25.774 -20.854   8.643  0.00  0.00    +0.004 A 
ATOM     18  C   LIG    1       25.143 -22.042   8.284  0.00  0.00    +0.028 A 
ENDBRANCH  12  13
ENDBRANCH   5  11
BRANCH   1  19
ATOM     19  S   LIG    1       25.245 -32.321   8.152  0.00  0.00    -0.089 S 
BRANCH  19  21
ATOM     20  C   LIG    1       26.384 -33.260   5.713  0.00  0.00    +0.050 A 
ATOM     21  C   LIG    1       26.558 -32.909   7.068  0.00  0.00    +0.025 A 
ATOM     22  C   LIG    1       27.862 -32.955   7.604  0.00  0.00    +0.016 A 
ATOM     23  C   LIG    1       28.947 -33.416   6.852  0.00  0.00    +0.001 A 
ATOM     24  C   LIG    1       28.758 -33.824   5.540  0.00  0.00    +0.001 A 
ATOM     25  C   LIG    1       27.490 -33.728   4.971  0.00  0.00    +0.014 A 
BRANCH  20  29
ATOM     26  C   LIG    1       22.731 -33.612   4.719  0.00  0.00    +0.128 C 
ATOM     27  N   LIG    1       23.966 -33.664   5.456  0.00  0.00    -0.314 N 
ATOM     28  H   LIG    1       23.961 -33.999   6.412  0.00  0.00    +0.149 HD
ATOM     29  C   LIG    1       25.121 -33.151   4.923  0.00  0.00    +0.245 C 
ATOM     30  O   LIG    1       25.153 -32.644   3.799  0.00  0.00    -0.270 OA
ENDBRANCH  20  29
ENDBRANCH  19  21
ENDBRANCH   1  19
TORSDOF 5
ENDMDL
MODEL 9
REMARK VINA RESULT:      -8.2      3.187      5.115
REMARK  Name = *****
REMARK                            x       y       z     vdW  Elec       q    Type
REMARK                         _______ _______ _______ _____ _____    ______ ____
ROOT
ATOM      1  C   LIG    1       25.459 -30.440   8.073  0.00  0.00    +0.015 A 
ATOM      2  C   LIG    1       24.688 -30.155   6.935  0.00  0.00    +0.043 A 
ATOM      3  C   LIG    1       24.640 -28.822   6.500  0.00  0.00    +0.067 A 
ATOM      4  C   LIG    1       25.294 -27.783   7.154  0.00  0.00    +0.027 A 
ATOM      5  C   LIG    1       25.048 -26.626   6.350  0.00  0.00    +0.093 A 
ATOM      6  N   LIG    1       24.262 -26.921   5.303  0.00  0.00    -0.173 NA
ATOM      7  C   LIG    1       26.003 -28.076   8.335  0.00  0.00    +0.013 A 
ATOM      8  N   LIG    1       24.023 -28.235   5.429  0.00  0.00    -0.276 N 
ATOM      9  H   LIG    1       23.443 -28.682   4.729  0.00  0.00    +0.189 HD
ATOM     10  C   LIG    1       26.077 -29.405   8.783  0.00  0.00    +0.016 A 
ENDROOT
BRANCH   5  11
ATOM     11  C   LIG    1       25.594 -25.322   6.602  0.00  0.00    +0.032 C 
ATOM     12  C   LIG    1       24.866 -24.196   6.700  0.00  0.00    +0.030 C 
BRANCH  12  13
ATOM     13  C   LIG    1       25.427 -22.862   6.938  0.00  0.00    +0.064 A 
ATOM     14  N   LIG    1       25.458 -21.995   5.897  0.00  0.00    -0.256 NA
ATOM     15  C   LIG    1       25.976 -20.767   6.127  0.00  0.00    +0.111 A 
ATOM     16  C   LIG    1       26.470 -20.355   7.353  0.00  0.00    +0.020 A 
ATOM     17  C   LIG    1       26.431 -21.254   8.410  0.00  0.00    +0.004 A 
ATOM     18  C   LIG    1       25.903 -22.526   8.203  0.00  0.00    +0.028 A 
ENDBRANCH  12  13
ENDBRANCH   5  11
BRANCH   1  19
ATOM     19  S   LIG    1       25.626 -32.148   8.602  0.00  0.00    -0.089 S 
BRANCH  19  21
ATOM     20  C   LIG    1       23.900 -32.068  10.870  0.00  0.00    +0.050 A 
ATOM     21  C   LIG    1       24.099 -32.418   9.518  0.00  0.00    +0.025 A 
ATOM     22  C   LIG    1       23.008 -32.959   8.804  0.00  0.00    +0.016 A 
ATOM     23  C   LIG    1       21.786 -33.226   9.428  0.00  0.00    +0.001 A 
ATOM     24  C   LIG    1       21.618 -32.943  10.775  0.00  0.00    +0.001 A 
ATOM     25  C   LIG    1       22.661 -32.351  11.483  0.00  0.00    +0.014 A 
BRANCH  20  29
ATOM     26  C   LIG    1       25.582 -29.318  12.887  0.00  0.00    +0.128 C 
ATOM     27  N   LIG    1       24.654 -30.046  12.063  0.00  0.00    -0.314 N 
ATOM     28  H   LIG    1       23.785 -29.606  11.784  0.00  0.00    +0.149 HD
ATOM     29  C   LIG    1       24.875 -31.365  11.757  0.00  0.00    +0.245 C 
ATOM     30  O   LIG    1       25.872 -31.970  12.159  0.00  0.00    -0.270 OA
ENDBRANCH  20  29
ENDBRANCH  19  21
ENDBRANCH   1  19
TORSDOF 5
ENDMDL
