MODEL 1
REMARK VINA RESULT:      -7.2      0.000      0.000
REMARK  Name = *****
REMARK                            x       y       z     vdW  Elec       q    Type
REMARK                         _______ _______ _______ _____ _____    ______ ____
ROOT
ATOM      1  C   LIG    1       24.414 -21.152   5.188  0.00  0.00    +0.086 C 
ENDROOT
BRANCH   1   2
ATOM      2  C   LIG    1       25.386 -20.760   6.332  0.00  0.00    -0.027 A 
ATOM      3  C   LIG    1       24.995 -20.795   7.689  0.00  0.00    +0.005 A 
ATOM      4  C   LIG    1       25.912 -20.575   8.720  0.00  0.00    +0.000 A 
ATOM      5  C   LIG    1       27.245 -20.317   8.422  0.00  0.00    +0.000 A 
ATOM      6  C   LIG    1       27.650 -20.227   7.093  0.00  0.00    +0.000 A 
ATOM      7  C   LIG    1       26.730 -20.431   6.060  0.00  0.00    +0.005 A 
ENDBRANCH   1   2
BRANCH   1   9
ATOM      8  C   LIG    1       21.793 -21.517   5.045  0.00  0.00    +0.009 C 
ATOM      9  C   LIG    1       22.945 -20.680   5.634  0.00  0.00    +0.007 C 
ATOM     10  C   LIG    1       22.630 -19.196   5.347  0.00  0.00    +0.009 C 
ENDBRANCH   1   9
BRANCH   1  11
ATOM     11  C   LIG    1       24.743 -20.465   3.901  0.00  0.00    +0.074 C 
ATOM     12  N   LIG    1       25.009 -19.919   2.918  0.00  0.00    -0.196 NA
ENDBRANCH   1  11
BRANCH   1  13
ATOM     13  C   LIG    1       24.393 -22.709   4.905  0.00  0.00    +0.045 C 
BRANCH  13  14
ATOM     14  C   LIG    1       24.645 -23.729   6.073  0.00  0.00    +0.055 C 
ATOM     15  C   LIG    1       23.338 -24.242   6.691  0.00  0.00    +0.024 C 
BRANCH  14  16
ATOM     16  N   LIG    1       25.557 -24.835   5.645  0.00  0.00    -0.306 NA
ATOM     17  C   LIG    1       25.091 -25.621   4.505  0.00  0.00    +0.105 C 
ATOM     18  C   LIG    1       25.952 -25.734   6.738  0.00  0.00    +0.105 C 
ENDBRANCH  14  16
ENDBRANCH  13  14
ENDBRANCH   1  13
TORSDOF 6
ENDMDL
MODEL 2
REMARK VINA RESULT:      -7.0      2.338      5.025
REMARK  Name = *****
REMARK                            x       y       z     vdW  Elec       q    Type
REMARK                         _______ _______ _______ _____ _____    ______ ____
ROOT
ATOM      1  C   LIG    1       25.840 -21.388   7.032  0.00  0.00    +0.086 C 
ENDROOT
BRANCH   1   2
ATOM      2  C   LIG    1       25.285 -22.829   6.883  0.00  0.00    -0.027 A 
ATOM      3  C   LIG    1       23.900 -23.103   6.915  0.00  0.00    +0.005 A 
ATOM      4  C   LIG    1       23.400 -24.379   6.641  0.00  0.00    +0.000 A 
ATOM      5  C   LIG    1       24.272 -25.415   6.327  0.00  0.00    +0.000 A 
ATOM      6  C   LIG    1       25.645 -25.188   6.338  0.00  0.00    +0.000 A 
ATOM      7  C   LIG    1       26.148 -23.914   6.626  0.00  0.00    +0.005 A 
ENDBRANCH   1   2
BRANCH   1   9
ATOM      8  C   LIG    1       23.427 -20.417   6.524  0.00  0.00    +0.009 C 
ATOM      9  C   LIG    1       24.918 -20.431   6.131  0.00  0.00    +0.007 C 
ATOM     10  C   LIG    1       24.991 -20.708   4.613  0.00  0.00    +0.009 C 
ENDBRANCH   1   9
BRANCH   1  11
ATOM     11  C   LIG    1       25.769 -20.894   8.442  0.00  0.00    +0.074 C 
ATOM     12  N   LIG    1       25.734 -20.520   9.535  0.00  0.00    -0.196 NA
ENDBRANCH   1  11
BRANCH   1  13
ATOM     13  C   LIG    1       27.343 -21.255   6.556  0.00  0.00    +0.045 C 
BRANCH  13  14
ATOM     14  C   LIG    1       28.394 -20.504   7.452  0.00  0.00    +0.055 C 
ATOM     15  C   LIG    1       29.452 -21.452   8.030  0.00  0.00    +0.024 C 
BRANCH  14  16
ATOM     16  N   LIG    1       28.993 -19.338   6.730  0.00  0.00    -0.306 NA
ATOM     17  C   LIG    1       28.487 -19.116   5.377  0.00  0.00    +0.105 C 
ATOM     18  C   LIG    1       30.462 -19.342   6.716  0.00  0.00    +0.105 C 
ENDBRANCH  14  16
ENDBRANCH  13  14
ENDBRANCH   1  13
TORSDOF 6
ENDMDL
MODEL 3
REMARK VINA RESULT:      -6.9      1.768      4.020
REMARK  Name = *****
REMARK                            x       y       z     vdW  Elec       q    Type
REMARK                         _______ _______ _______ _____ _____    ______ ____
ROOT
ATOM      1  C   LIG    1       25.842 -21.549   7.148  0.00  0.00    +0.086 C 
ENDROOT
BRANCH   1   2
ATOM      2  C   LIG    1       24.824 -20.941   6.147  0.00  0.00    -0.027 A 
ATOM      3  C   LIG    1       23.558 -20.474   6.561  0.00  0.00    +0.005 A 
ATOM      4  C   LIG    1       22.703 -19.803   5.682  0.00  0.00    +0.000 A 
ATOM      5  C   LIG    1       23.093 -19.579   4.367  0.00  0.00    +0.000 A 
ATOM      6  C   LIG    1       24.314 -20.073   3.916  0.00  0.00    +0.000 A 
ATOM      7  C   LIG    1       25.165 -20.758   4.791  0.00  0.00    +0.005 A 
ENDBRANCH   1   2
BRANCH   1   9
ATOM      8  C   LIG    1       28.467 -21.783   7.429  0.00  0.00    +0.009 C 
ATOM      9  C   LIG    1       27.304 -21.348   6.515  0.00  0.00    +0.007 C 
ATOM     10  C   LIG    1       27.607 -19.911   6.036  0.00  0.00    +0.009 C 
ENDBRANCH   1   9
BRANCH   1  11
ATOM     11  C   LIG    1       25.819 -20.857   8.473  0.00  0.00    +0.074 C 
ATOM     12  N   LIG    1       25.822 -20.326   9.500  0.00  0.00    -0.196 NA
ENDBRANCH   1  11
BRANCH   1  13
ATOM     13  C   LIG    1       25.600 -23.091   7.411  0.00  0.00    +0.045 C 
BRANCH  13  14
ATOM     14  C   LIG    1       25.587 -24.106   6.212  0.00  0.00    +0.055 C 
ATOM     15  C   LIG    1       26.483 -25.324   6.468  0.00  0.00    +0.024 C 
BRANCH  14  16
ATOM     16  N   LIG    1       24.190 -24.484   5.833  0.00  0.00    -0.306 NA
ATOM     17  C   LIG    1       23.151 -24.050   6.765  0.00  0.00    +0.105 C 
ATOM     18  C   LIG    1       24.023 -25.913   5.534  0.00  0.00    +0.105 C 
ENDBRANCH  14  16
ENDBRANCH  13  14
ENDBRANCH   1  13
TORSDOF 6
ENDMDL
MODEL 4
REMARK VINA RESULT:      -6.7      1.764      5.107
REMARK  Name = *****
REMARK                            x       y       z     vdW  Elec       q    Type
REMARK                         _______ _______ _______ _____ _____    ______ ____
ROOT
ATOM      1  C   LIG    1       25.079 -23.016   6.315  0.00  0.00    +0.086 C 
ENDROOT
BRANCH   1   2
ATOM      2  C   LIG    1       25.287 -24.527   6.026  0.00  0.00    -0.027 A 
ATOM      3  C   LIG    1       25.102 -25.072   4.736  0.00  0.00    +0.005 A 
ATOM      4  C   LIG    1       25.424 -26.402   4.452  0.00  0.00    +0.000 A 
ATOM      5  C   LIG    1       25.941 -27.221   5.449  0.00  0.00    +0.000 A 
ATOM      6  C   LIG    1       26.086 -26.726   6.742  0.00  0.00    +0.000 A 
ATOM      7  C   LIG    1       25.751 -25.399   7.031  0.00  0.00    +0.005 A 
ENDBRANCH   1   2
BRANCH   1   9
ATOM      8  C   LIG    1       22.471 -23.344   6.643  0.00  0.00    +0.009 C 
ATOM      9  C   LIG    1       23.800 -22.892   7.278  0.00  0.00    +0.007 C 
ATOM     10  C   LIG    1       23.573 -21.484   7.870  0.00  0.00    +0.009 C 
ENDBRANCH   1   9
BRANCH   1  11
ATOM     11  C   LIG    1       26.246 -22.408   7.025  0.00  0.00    +0.074 C 
ATOM     12  N   LIG    1       27.145 -21.919   7.564  0.00  0.00    -0.196 NA
ENDBRANCH   1  11
BRANCH   1  13
ATOM     13  C   LIG    1       24.825 -22.168   5.004  0.00  0.00    +0.045 C 
BRANCH  13  14
ATOM     14  C   LIG    1       24.765 -20.599   5.075  0.00  0.00    +0.055 C 
ATOM     15  C   LIG    1       26.105 -19.948   4.710  0.00  0.00    +0.024 C 
BRANCH  14  16
ATOM     16  N   LIG    1       23.622 -20.059   4.275  0.00  0.00    -0.306 NA
ATOM     17  C   LIG    1       23.912 -18.846   3.513  0.00  0.00    +0.105 C 
ATOM     18  C   LIG    1       22.391 -19.873   5.054  0.00  0.00    +0.105 C 
ENDBRANCH  14  16
ENDBRANCH  13  14
ENDBRANCH   1  13
TORSDOF 6
ENDMDL
MODEL 5
REMARK VINA RESULT:      -6.6      1.751      5.054
REMARK  Name = *****
REMARK                            x       y       z     vdW  Elec       q    Type
REMARK                         _______ _______ _______ _____ _____    ______ ____
ROOT
ATOM      1  C   LIG    1       25.135 -23.018   6.325  0.00  0.00    +0.086 C 
ENDROOT
BRANCH   1   2
ATOM      2  C   LIG    1       25.403 -24.522   6.051  0.00  0.00    -0.027 A 
ATOM      3  C   LIG    1       25.820 -25.404   7.072  0.00  0.00    +0.005 A 
ATOM      4  C   LIG    1       25.924 -26.780   6.851  0.00  0.00    +0.000 A 
ATOM      5  C   LIG    1       25.613 -27.310   5.605  0.00  0.00    +0.000 A 
ATOM      6  C   LIG    1       25.248 -26.460   4.565  0.00  0.00    +0.000 A 
ATOM      7  C   LIG    1       25.157 -25.081   4.780  0.00  0.00    +0.005 A 
ENDBRANCH   1   2
BRANCH   1   9
ATOM      8  C   LIG    1       22.541 -23.446   6.652  0.00  0.00    +0.009 C 
ATOM      9  C   LIG    1       23.850 -22.935   7.284  0.00  0.00    +0.007 C 
ATOM     10  C   LIG    1       23.565 -21.531   7.861  0.00  0.00    +0.009 C 
ENDBRANCH   1   9
BRANCH   1  11
ATOM     11  C   LIG    1       26.275 -22.357   7.032  0.00  0.00    +0.074 C 
ATOM     12  N   LIG    1       27.170 -21.855   7.564  0.00  0.00    -0.196 NA
ENDBRANCH   1  11
BRANCH   1  13
ATOM     13  C   LIG    1       24.850 -22.193   5.005  0.00  0.00    +0.045 C 
BRANCH  13  14
ATOM     14  C   LIG    1       24.766 -20.625   5.055  0.00  0.00    +0.055 C 
ATOM     15  C   LIG    1       26.097 -19.958   4.683  0.00  0.00    +0.024 C 
BRANCH  14  16
ATOM     16  N   LIG    1       23.616 -20.114   4.246  0.00  0.00    -0.306 NA
ATOM     17  C   LIG    1       23.849 -18.843   3.563  0.00  0.00    +0.105 C 
ATOM     18  C   LIG    1       22.350 -20.052   4.989  0.00  0.00    +0.105 C 
ENDBRANCH  14  16
ENDBRANCH  13  14
ENDBRANCH   1  13
TORSDOF 6
ENDMDL
MODEL 6
REMARK VINA RESULT:      -6.6      2.007      4.040
REMARK  Name = *****
REMARK                            x       y       z     vdW  Elec       q    Type
REMARK                         _______ _______ _______ _____ _____    ______ ____
ROOT
ATOM      1  C   LIG    1       25.937 -21.776   6.807  0.00  0.00    +0.086 C 
ENDROOT
BRANCH   1   2
ATOM      2  C   LIG    1       24.960 -20.886   5.993  0.00  0.00    -0.027 A 
ATOM      3  C   LIG    1       25.247 -20.479   4.671  0.00  0.00    +0.005 A 
ATOM      4  C   LIG    1       24.305 -19.797   3.897  0.00  0.00    +0.000 A 
ATOM      5  C   LIG    1       23.051 -19.506   4.422  0.00  0.00    +0.000 A 
ATOM      6  C   LIG    1       22.758 -19.850   5.738  0.00  0.00    +0.000 A 
ATOM      7  C   LIG    1       23.705 -20.520   6.520  0.00  0.00    +0.005 A 
ENDBRANCH   1   2
BRANCH   1   9
ATOM      8  C   LIG    1       28.516 -21.872   7.406  0.00  0.00    +0.009 C 
ATOM      9  C   LIG    1       27.415 -21.195   6.568  0.00  0.00    +0.007 C 
ATOM     10  C   LIG    1       27.550 -19.671   6.776  0.00  0.00    +0.009 C 
ENDBRANCH   1   9
BRANCH   1  11
ATOM     11  C   LIG    1       25.660 -21.728   8.276  0.00  0.00    +0.074 C 
ATOM     12  N   LIG    1       25.466 -21.688   9.415  0.00  0.00    -0.196 NA
ENDBRANCH   1  11
BRANCH   1  13
ATOM     13  C   LIG    1       25.900 -23.295   6.365  0.00  0.00    +0.045 C 
BRANCH  13  14
ATOM     14  C   LIG    1       24.827 -24.270   6.972  0.00  0.00    +0.055 C 
ATOM     15  C   LIG    1       23.394 -23.846   6.629  0.00  0.00    +0.024 C 
BRANCH  14  16
ATOM     16  N   LIG    1       25.114 -25.692   6.606  0.00  0.00    -0.306 NA
ATOM     17  C   LIG    1       26.469 -25.952   6.124  0.00  0.00    +0.105 C 
ATOM     18  C   LIG    1       24.137 -26.272   5.675  0.00  0.00    +0.105 C 
ENDBRANCH  14  16
ENDBRANCH  13  14
ENDBRANCH   1  13
TORSDOF 6
ENDMDL
MODEL 7
REMARK VINA RESULT:      -6.6      2.110      4.557
REMARK  Name = *****
REMARK                            x       y       z     vdW  Elec       q    Type
REMARK                         _______ _______ _______ _____ _____    ______ ____
ROOT
ATOM      1  C   LIG    1       24.497 -21.269   5.864  0.00  0.00    +0.086 C 
ENDROOT
BRANCH   1   2
ATOM      2  C   LIG    1       24.332 -22.811   5.793  0.00  0.00    -0.027 A 
ATOM      3  C   LIG    1       25.128 -23.608   4.941  0.00  0.00    +0.005 A 
ATOM      4  C   LIG    1       25.071 -25.003   4.983  0.00  0.00    +0.000 A 
ATOM      5  C   LIG    1       24.218 -25.638   5.878  0.00  0.00    +0.000 A 
ATOM      6  C   LIG    1       23.385 -24.879   6.693  0.00  0.00    +0.000 A 
ATOM      7  C   LIG    1       23.430 -23.482   6.643  0.00  0.00    +0.005 A 
ENDBRANCH   1   2
BRANCH   1   9
ATOM      8  C   LIG    1       24.618 -19.577   3.829  0.00  0.00    +0.009 C 
ATOM      9  C   LIG    1       23.795 -20.658   4.556  0.00  0.00    +0.007 C 
ATOM     10  C   LIG    1       22.382 -20.081   4.792  0.00  0.00    +0.009 C 
ENDBRANCH   1   9
BRANCH   1  11
ATOM     11  C   LIG    1       23.822 -20.680   7.062  0.00  0.00    +0.074 C 
ATOM     12  N   LIG    1       23.289 -20.243   7.990  0.00  0.00    -0.196 NA
ENDBRANCH   1  11
BRANCH   1  13
ATOM     13  C   LIG    1       26.012 -20.813   5.899  0.00  0.00    +0.045 C 
BRANCH  13  14
ATOM     14  C   LIG    1       26.757 -20.647   7.273  0.00  0.00    +0.055 C 
ATOM     15  C   LIG    1       26.807 -21.955   8.071  0.00  0.00    +0.024 C 
BRANCH  14  16
ATOM     16  N   LIG    1       28.107 -20.027   7.090  0.00  0.00    -0.306 NA
ATOM     17  C   LIG    1       28.419 -19.603   5.727  0.00  0.00    +0.105 C 
ATOM     18  C   LIG    1       29.208 -20.841   7.621  0.00  0.00    +0.105 C 
ENDBRANCH  14  16
ENDBRANCH  13  14
ENDBRANCH   1  13
TORSDOF 6
ENDMDL
MODEL 8
REMARK VINA RESULT:      -6.5      1.831      4.367
REMARK  Name = *****
REMARK                            x       y       z     vdW  Elec       q    Type
REMARK                         _______ _______ _______ _____ _____    ______ ____
ROOT
ATOM      1  C   LIG    1       25.505 -21.219   6.195  0.00  0.00    +0.086 C 
ENDROOT
BRANCH   1   2
ATOM      2  C   LIG    1       26.832 -20.483   6.521  0.00  0.00    -0.027 A 
ATOM      3  C   LIG    1       27.308 -20.354   7.844  0.00  0.00    +0.005 A 
ATOM      4  C   LIG    1       28.568 -19.814   8.117  0.00  0.00    +0.000 A 
ATOM      5  C   LIG    1       29.385 -19.391   7.075  0.00  0.00    +0.000 A 
ATOM      6  C   LIG    1       28.922 -19.459   5.765  0.00  0.00    +0.000 A 
ATOM      7  C   LIG    1       27.655 -19.985   5.490  0.00  0.00    +0.005 A 
ENDBRANCH   1   2
BRANCH   1   9
ATOM      8  C   LIG    1       24.874 -23.668   5.403  0.00  0.00    +0.009 C 
ATOM      9  C   LIG    1       25.811 -22.794   6.260  0.00  0.00    +0.007 C 
ATOM     10  C   LIG    1       25.822 -23.391   7.684  0.00  0.00    +0.009 C 
ENDBRANCH   1   9
BRANCH   1  11
ATOM     11  C   LIG    1       24.430 -20.921   7.192  0.00  0.00    +0.074 C 
ATOM     12  N   LIG    1       23.601 -20.711   7.969  0.00  0.00    -0.196 NA
ENDBRANCH   1  11
BRANCH   1  13
ATOM     13  C   LIG    1       24.938 -20.861   4.762  0.00  0.00    +0.045 C 
BRANCH  13  14
ATOM     14  C   LIG    1       24.327 -19.439   4.485  0.00  0.00    +0.055 C 
ATOM     15  C   LIG    1       25.118 -18.661   3.426  0.00  0.00    +0.024 C 
BRANCH  14  16
ATOM     16  N   LIG    1       22.867 -19.525   4.171  0.00  0.00    -0.306 NA
ATOM     17  C   LIG    1       22.091 -18.325   4.480  0.00  0.00    +0.105 C 
ATOM     18  C   LIG    1       22.206 -20.704   4.744  0.00  0.00    +0.105 C 
ENDBRANCH  14  16
ENDBRANCH  13  14
ENDBRANCH   1  13
TORSDOF 6
ENDMDL
MODEL 9
REMARK VINA RESULT:      -6.4      1.056      1.677
REMARK  Name = *****
REMARK                            x       y       z     vdW  Elec       q    Type
REMARK                         _______ _______ _______ _____ _____    ______ ____
ROOT
ATOM      1  C   LIG    1       24.865 -21.220   5.586  0.00  0.00    +0.086 C 
ENDROOT
BRANCH   1   2
ATOM      2  C   LIG    1       26.192 -20.840   6.296  0.00  0.00    -0.027 A 
ATOM      3  C   LIG    1       27.357 -20.504   5.570  0.00  0.00    +0.005 A 
ATOM      4  C   LIG    1       28.504 -20.030   6.211  0.00  0.00    +0.000 A 
ATOM      5  C   LIG    1       28.518 -19.877   7.592  0.00  0.00    +0.000 A 
ATOM      6  C   LIG    1       27.403 -20.247   8.338  0.00  0.00    +0.000 A 
ATOM      7  C   LIG    1       26.258 -20.736   7.700  0.00  0.00    +0.005 A 
ENDBRANCH   1   2
BRANCH   1   9
ATOM      8  C   LIG    1       22.900 -21.649   7.312  0.00  0.00    +0.009 C 
ATOM      9  C   LIG    1       23.668 -20.613   6.468  0.00  0.00    +0.007 C 
ATOM     10  C   LIG    1       22.624 -19.804   5.669  0.00  0.00    +0.009 C 
ENDBRANCH   1   9
BRANCH   1  11
ATOM     11  C   LIG    1       24.765 -20.632   4.215  0.00  0.00    +0.074 C 
ATOM     12  N   LIG    1       24.669 -20.188   3.152  0.00  0.00    -0.196 NA
ENDBRANCH   1  11
BRANCH   1  13
ATOM     13  C   LIG    1       24.666 -22.783   5.450  0.00  0.00    +0.045 C 
BRANCH  13  14
ATOM     14  C   LIG    1       25.741 -23.771   6.032  0.00  0.00    +0.055 C 
ATOM     15  C   LIG    1       25.713 -23.828   7.564  0.00  0.00    +0.024 C 
BRANCH  14  16
ATOM     16  N   LIG    1       25.638 -25.124   5.400  0.00  0.00    -0.306 NA
ATOM     17  C   LIG    1       24.281 -25.652   5.275  0.00  0.00    +0.105 C 
ATOM     18  C   LIG    1       26.509 -26.133   6.017  0.00  0.00    +0.105 C 
ENDBRANCH  14  16
ENDBRANCH  13  14
ENDBRANCH   1  13
TORSDOF 6
ENDMDL
