MODEL 1
REMARK VINA RESULT:      -8.5      0.000      0.000
REMARK  Name = *****
REMARK                            x       y       z     vdW  Elec       q    Type
REMARK                         _______ _______ _______ _____ _____    ______ ____
ROOT
ATOM      1  C   LIG    1       25.895 -26.131   6.491  0.00  0.00    +0.250 C 
ATOM      2  N   LIG    1       25.266 -25.031   7.046  0.00  0.00    -0.281 N 
ATOM      3  H   LIG    1       24.848 -25.151   7.962  0.00  0.00    +0.155 HD
ATOM      4  O   LIG    1       26.474 -26.166   5.409  0.00  0.00    -0.270 OA
ENDROOT
BRANCH   1   9
ATOM      5  C   LIG    1       25.814 -29.720   8.855  0.00  0.00    +0.089 A 
ATOM      6  C   LIG    1       25.075 -29.692   7.670  0.00  0.00    +0.047 A 
ATOM      7  C   LIG    1       25.066 -28.535   6.879  0.00  0.00    +0.055 A 
ATOM      8 CL   LIG    1       24.068 -28.593   5.469  0.00  0.00    -0.083 Cl
ATOM      9  C   LIG    1       25.813 -27.411   7.261  0.00  0.00    +0.055 A 
ATOM     10  C   LIG    1       26.544 -27.462   8.469  0.00  0.00    +0.016 A 
ATOM     11  C   LIG    1       26.556 -28.613   9.259  0.00  0.00    +0.028 A 
BRANCH   5  13
ATOM     12  C   LIG    1       26.897 -32.290   8.863  0.00  0.00    +0.200 C 
ATOM     13  S   LIG    1       25.852 -31.217   9.813  0.00  0.00    -0.006 S 
ATOM     14  O   LIG    1       26.522 -30.913  11.059  0.00  0.00    -0.170 OA
ATOM     15  O   LIG    1       24.506 -31.764   9.804  0.00  0.00    -0.170 OA
ENDBRANCH   5  13
ENDBRANCH   1   9
BRANCH   2  16
ATOM     16  C   LIG    1       25.202 -23.718   6.525  0.00  0.00    +0.034 A 
ATOM     17  C   LIG    1       26.260 -22.835   6.823  0.00  0.00    +0.034 A 
ATOM     18  C   LIG    1       26.328 -21.502   6.325  0.00  0.00    +0.020 A 
ATOM     19  C   LIG    1       25.263 -21.104   5.490  0.00  0.00    +0.050 A 
ATOM     20 CL   LIG    1       25.171 -19.574   4.684  0.00  0.00    -0.083 Cl
ATOM     21  C   LIG    1       24.195 -21.972   5.213  0.00  0.00    +0.022 A 
ATOM     22  C   LIG    1       24.162 -23.265   5.730  0.00  0.00    +0.025 A 
BRANCH  18  23
ATOM     23  C   LIG    1       27.505 -20.659   6.693  0.00  0.00    +0.072 A 
ATOM     24  N   LIG    1       27.777 -20.595   8.027  0.00  0.00    -0.255 NA
ATOM     25  C   LIG    1       28.825 -19.841   8.439  0.00  0.00    +0.111 A 
ATOM     26  C   LIG    1       29.642 -19.118   7.592  0.00  0.00    +0.020 A 
ATOM     27  C   LIG    1       29.360 -19.167   6.237  0.00  0.00    +0.004 A 
ATOM     28  C   LIG    1       28.280 -19.931   5.786  0.00  0.00    +0.028 A 
ENDBRANCH  18  23
ENDBRANCH   2  16
TORSDOF 4
ENDMDL
MODEL 2
REMARK VINA RESULT:      -8.5      2.079      2.604
REMARK  Name = *****
REMARK                            x       y       z     vdW  Elec       q    Type
REMARK                         _______ _______ _______ _____ _____    ______ ____
ROOT
ATOM      1  C   LIG    1       25.329 -26.567   6.016  0.00  0.00    +0.250 C 
ATOM      2  N   LIG    1       24.279 -25.846   6.557  0.00  0.00    -0.281 N 
ATOM      3  H   LIG    1       23.583 -26.366   7.081  0.00  0.00    +0.155 HD
ATOM      4  O   LIG    1       26.271 -26.107   5.376  0.00  0.00    -0.270 OA
ENDROOT
BRANCH   1   9
ATOM      5  C   LIG    1       25.092 -30.852   6.279  0.00  0.00    +0.089 A 
ATOM      6  C   LIG    1       25.543 -30.144   7.396  0.00  0.00    +0.047 A 
ATOM      7  C   LIG    1       25.647 -28.748   7.344  0.00  0.00    +0.055 A 
ATOM      8 CL   LIG    1       26.275 -27.984   8.763  0.00  0.00    -0.083 Cl
ATOM      9  C   LIG    1       25.279 -28.054   6.182  0.00  0.00    +0.055 A 
ATOM     10  C   LIG    1       24.835 -28.793   5.063  0.00  0.00    +0.016 A 
ATOM     11  C   LIG    1       24.731 -30.185   5.112  0.00  0.00    +0.028 A 
BRANCH   5  13
ATOM     12  C   LIG    1       23.291 -32.914   5.750  0.00  0.00    +0.200 C 
ATOM     13  S   LIG    1       24.920 -32.617   6.388  0.00  0.00    -0.006 S 
ATOM     14  O   LIG    1       25.880 -33.199   5.476  0.00  0.00    -0.170 OA
ATOM     15  O   LIG    1       24.927 -32.961   7.799  0.00  0.00    -0.170 OA
ENDBRANCH   5  13
ENDBRANCH   1   9
BRANCH   2  16
ATOM     16  C   LIG    1       24.095 -24.445   6.541  0.00  0.00    +0.034 A 
ATOM     17  C   LIG    1       25.242 -23.626   6.555  0.00  0.00    +0.034 A 
ATOM     18  C   LIG    1       25.186 -22.204   6.503  0.00  0.00    +0.020 A 
ATOM     19  C   LIG    1       23.894 -21.642   6.425  0.00  0.00    +0.050 A 
ATOM     20 CL   LIG    1       23.571 -19.950   6.249  0.00  0.00    -0.083 Cl
ATOM     21  C   LIG    1       22.748 -22.454   6.437  0.00  0.00    +0.022 A 
ATOM     22  C   LIG    1       22.848 -23.842   6.500  0.00  0.00    +0.025 A 
BRANCH  18  23
ATOM     23  C   LIG    1       26.467 -21.435   6.508  0.00  0.00    +0.072 A 
ATOM     24  N   LIG    1       27.368 -21.818   7.456  0.00  0.00    -0.255 NA
ATOM     25  C   LIG    1       28.551 -21.161   7.529  0.00  0.00    +0.111 A 
ATOM     26  C   LIG    1       28.909 -20.113   6.704  0.00  0.00    +0.020 A 
ATOM     27  C   LIG    1       27.990 -19.709   5.750  0.00  0.00    +0.004 A 
ATOM     28  C   LIG    1       26.759 -20.364   5.659  0.00  0.00    +0.028 A 
ENDBRANCH  18  23
ENDBRANCH   2  16
TORSDOF 4
ENDMDL
MODEL 3
REMARK VINA RESULT:      -8.1      5.273      9.429
REMARK  Name = *****
REMARK                            x       y       z     vdW  Elec       q    Type
REMARK                         _______ _______ _______ _____ _____    ______ ____
ROOT
ATOM      1  C   LIG    1       28.327 -20.492   7.522  0.00  0.00    +0.250 C 
ATOM      2  N   LIG    1       27.090 -20.623   8.130  0.00  0.00    -0.281 N 
ATOM      3  H   LIG    1       26.943 -20.108   8.991  0.00  0.00    +0.155 HD
ATOM      4  O   LIG    1       28.675 -21.017   6.468  0.00  0.00    -0.270 OA
ENDROOT
BRANCH   1   9
ATOM      5  C   LIG    1       31.132 -17.961   9.571  0.00  0.00    +0.089 A 
ATOM      6  C   LIG    1       31.465 -19.306   9.389  0.00  0.00    +0.047 A 
ATOM      7  C   LIG    1       30.570 -20.165   8.738  0.00  0.00    +0.055 A 
ATOM      8 CL   LIG    1       31.060 -21.820   8.624  0.00  0.00    -0.083 Cl
ATOM      9  C   LIG    1       29.350 -19.676   8.247  0.00  0.00    +0.055 A 
ATOM     10  C   LIG    1       29.033 -18.315   8.453  0.00  0.00    +0.016 A 
ATOM     11  C   LIG    1       29.923 -17.456   9.102  0.00  0.00    +0.028 A 
BRANCH   5  13
ATOM     12  C   LIG    1       31.284 -15.712  11.213  0.00  0.00    +0.200 C 
ATOM     13  S   LIG    1       32.306 -16.880  10.354  0.00  0.00    -0.006 S 
ATOM     14  O   LIG    1       33.025 -17.665  11.334  0.00  0.00    -0.170 OA
ATOM     15  O   LIG    1       33.012 -16.178   9.296  0.00  0.00    -0.170 OA
ENDBRANCH   5  13
ENDBRANCH   1   9
BRANCH   2  16
ATOM     16  C   LIG    1       25.963 -21.328   7.652  0.00  0.00    +0.034 A 
ATOM     17  C   LIG    1       26.147 -22.658   7.221  0.00  0.00    +0.034 A 
ATOM     18  C   LIG    1       25.083 -23.482   6.756  0.00  0.00    +0.020 A 
ATOM     19  C   LIG    1       23.802 -22.889   6.758  0.00  0.00    +0.050 A 
ATOM     20 CL   LIG    1       22.340 -23.718   6.336  0.00  0.00    -0.083 Cl
ATOM     21  C   LIG    1       23.619 -21.558   7.162  0.00  0.00    +0.022 A 
ATOM     22  C   LIG    1       24.690 -20.782   7.600  0.00  0.00    +0.025 A 
BRANCH  18  23
ATOM     23  C   LIG    1       25.390 -24.883   6.338  0.00  0.00    +0.072 A 
ATOM     24  N   LIG    1       25.287 -25.123   5.001  0.00  0.00    -0.255 NA
ATOM     25  C   LIG    1       25.542 -26.374   4.545  0.00  0.00    +0.111 A 
ATOM     26  C   LIG    1       25.897 -27.437   5.354  0.00  0.00    +0.020 A 
ATOM     27  C   LIG    1       25.986 -27.201   6.715  0.00  0.00    +0.004 A 
ATOM     28  C   LIG    1       25.721 -25.922   7.211  0.00  0.00    +0.028 A 
ENDBRANCH  18  23
ENDBRANCH   2  16
TORSDOF 4
ENDMDL
MODEL 4
REMARK VINA RESULT:      -7.8      3.954      9.042
REMARK  Name = *****
REMARK                            x       y       z     vdW  Elec       q    Type
REMARK                         _______ _______ _______ _____ _____    ______ ____
ROOT
ATOM      1  C   LIG    1       25.936 -23.229   6.893  0.00  0.00    +0.250 C 
ATOM      2  N   LIG    1       26.453 -24.408   6.384  0.00  0.00    -0.281 N 
ATOM      3  H   LIG    1       27.430 -24.404   6.111  0.00  0.00    +0.155 HD
ATOM      4  O   LIG    1       24.789 -23.055   7.296  0.00  0.00    -0.270 OA
ENDROOT
BRANCH   1   9
ATOM      5  C   LIG    1       28.686 -19.930   7.080  0.00  0.00    +0.089 A 
ATOM      6  C   LIG    1       27.567 -19.813   6.252  0.00  0.00    +0.047 A 
ATOM      7  C   LIG    1       26.655 -20.872   6.154  0.00  0.00    +0.055 A 
ATOM      8 CL   LIG    1       25.343 -20.639   5.052  0.00  0.00    -0.083 Cl
ATOM      9  C   LIG    1       26.849 -22.044   6.901  0.00  0.00    +0.055 A 
ATOM     10  C   LIG    1       27.993 -22.142   7.724  0.00  0.00    +0.016 A 
ATOM     11  C   LIG    1       28.903 -21.087   7.824  0.00  0.00    +0.028 A 
BRANCH   5  13
ATOM     12  C   LIG    1       31.401 -19.315   7.228  0.00  0.00    +0.200 C 
ATOM     13  S   LIG    1       29.799 -18.553   7.227  0.00  0.00    -0.006 S 
ATOM     14  O   LIG    1       29.670 -17.765   6.021  0.00  0.00    -0.170 OA
ATOM     15  O   LIG    1       29.575 -17.960   8.534  0.00  0.00    -0.170 OA
ENDBRANCH   5  13
ENDBRANCH   1   9
BRANCH   2  16
ATOM     16  C   LIG    1       25.804 -25.658   6.272  0.00  0.00    +0.034 A 
ATOM     17  C   LIG    1       26.112 -26.652   7.222  0.00  0.00    +0.034 A 
ATOM     18  C   LIG    1       25.496 -27.937   7.236  0.00  0.00    +0.020 A 
ATOM     19  C   LIG    1       24.530 -28.165   6.233  0.00  0.00    +0.050 A 
ATOM     20 CL   LIG    1       23.574 -29.604   6.105  0.00  0.00    -0.083 Cl
ATOM     21  C   LIG    1       24.239 -27.187   5.270  0.00  0.00    +0.022 A 
ATOM     22  C   LIG    1       24.874 -25.947   5.285  0.00  0.00    +0.025 A 
BRANCH  18  23
ATOM     23  C   LIG    1       25.889 -28.909   8.301  0.00  0.00    +0.072 A 
ATOM     24  N   LIG    1       26.675 -28.397   9.289  0.00  0.00    -0.255 NA
ATOM     25  C   LIG    1       27.080 -29.221  10.287  0.00  0.00    +0.111 A 
ATOM     26  C   LIG    1       26.753 -30.561  10.368  0.00  0.00    +0.020 A 
ATOM     27  C   LIG    1       25.968 -31.089   9.356  0.00  0.00    +0.004 A 
ATOM     28  C   LIG    1       25.544 -30.263   8.312  0.00  0.00    +0.028 A 
ENDBRANCH  18  23
ENDBRANCH   2  16
TORSDOF 4
ENDMDL
MODEL 5
REMARK VINA RESULT:      -7.0      2.436      3.874
REMARK  Name = *****
REMARK                            x       y       z     vdW  Elec       q    Type
REMARK                         _______ _______ _______ _____ _____    ______ ____
ROOT
ATOM      1  C   LIG    1       26.085 -26.529   6.249  0.00  0.00    +0.250 C 
ATOM      2  N   LIG    1       25.465 -25.473   6.893  0.00  0.00    -0.281 N 
ATOM      3  H   LIG    1       24.716 -25.700   7.538  0.00  0.00    +0.155 HD
ATOM      4  O   LIG    1       27.020 -26.447   5.458  0.00  0.00    -0.270 OA
ENDROOT
BRANCH   1   9
ATOM      5  C   LIG    1       24.375 -30.439   6.767  0.00  0.00    +0.089 A 
ATOM      6  C   LIG    1       25.077 -29.877   7.837  0.00  0.00    +0.047 A 
ATOM      7  C   LIG    1       25.660 -28.610   7.701  0.00  0.00    +0.055 A 
ATOM      8 CL   LIG    1       26.557 -28.042   9.066  0.00  0.00    -0.083 Cl
ATOM      9  C   LIG    1       25.524 -27.893   6.503  0.00  0.00    +0.055 A 
ATOM     10  C   LIG    1       24.818 -28.487   5.434  0.00  0.00    +0.016 A 
ATOM     11  C   LIG    1       24.235 -29.750   5.566  0.00  0.00    +0.028 A 
BRANCH   5  13
ATOM     12  C   LIG    1       24.973 -33.142   7.102  0.00  0.00    +0.200 C 
ATOM     13  S   LIG    1       23.601 -32.024   6.982  0.00  0.00    -0.006 S 
ATOM     14  O   LIG    1       22.918 -32.000   8.257  0.00  0.00    -0.170 OA
ATOM     15  O   LIG    1       22.880 -32.317   5.755  0.00  0.00    -0.170 OA
ENDBRANCH   5  13
ENDBRANCH   1   9
BRANCH   2  16
ATOM     16  C   LIG    1       25.802 -24.102   6.825  0.00  0.00    +0.034 A 
ATOM     17  C   LIG    1       24.916 -23.233   6.158  0.00  0.00    +0.034 A 
ATOM     18  C   LIG    1       25.128 -21.828   6.057  0.00  0.00    +0.020 A 
ATOM     19  C   LIG    1       26.293 -21.336   6.683  0.00  0.00    +0.050 A 
ATOM     20 CL   LIG    1       26.715 -19.660   6.787  0.00  0.00    -0.083 Cl
ATOM     21  C   LIG    1       27.191 -22.202   7.326  0.00  0.00    +0.022 A 
ATOM     22  C   LIG    1       26.951 -23.573   7.392  0.00  0.00    +0.025 A 
BRANCH  18  23
ATOM     23  C   LIG    1       24.113 -20.999   5.339  0.00  0.00    +0.072 A 
ATOM     24  N   LIG    1       24.623 -20.107   4.445  0.00  0.00    -0.255 NA
ATOM     25  C   LIG    1       23.764 -19.312   3.760  0.00  0.00    +0.111 A 
ATOM     26  C   LIG    1       22.392 -19.339   3.914  0.00  0.00    +0.020 A 
ATOM     27  C   LIG    1       21.870 -20.232   4.835  0.00  0.00    +0.004 A 
ATOM     28  C   LIG    1       22.734 -21.058   5.559  0.00  0.00    +0.028 A 
ENDBRANCH  18  23
ENDBRANCH   2  16
TORSDOF 4
ENDMDL
MODEL 6
REMARK VINA RESULT:      -6.9      4.266      9.711
REMARK  Name = *****
REMARK                            x       y       z     vdW  Elec       q    Type
REMARK                         _______ _______ _______ _____ _____    ______ ____
ROOT
ATOM      1  C   LIG    1       25.665 -26.955   6.909  0.00  0.00    +0.250 C 
ATOM      2  N   LIG    1       24.710 -27.869   6.499  0.00  0.00    -0.281 N 
ATOM      3  H   LIG    1       23.959 -27.521   5.913  0.00  0.00    +0.155 HD
ATOM      4  O   LIG    1       26.653 -27.198   7.597  0.00  0.00    -0.270 OA
ENDROOT
BRANCH   1   9
ATOM      5  C   LIG    1       25.032 -22.797   6.019  0.00  0.00    +0.089 A 
ATOM      6  C   LIG    1       24.967 -23.717   4.968  0.00  0.00    +0.047 A 
ATOM      7  C   LIG    1       25.181 -25.079   5.217  0.00  0.00    +0.055 A 
ATOM      8 CL   LIG    1       25.138 -26.115   3.833  0.00  0.00    -0.083 Cl
ATOM      9  C   LIG    1       25.440 -25.528   6.520  0.00  0.00    +0.055 A 
ATOM     10  C   LIG    1       25.510 -24.578   7.563  0.00  0.00    +0.016 A 
ATOM     11  C   LIG    1       25.297 -23.219   7.319  0.00  0.00    +0.028 A 
BRANCH   5  13
ATOM     12  C   LIG    1       22.981 -21.065   5.266  0.00  0.00    +0.200 C 
ATOM     13  S   LIG    1       24.705 -21.083   5.686  0.00  0.00    -0.006 S 
ATOM     14  O   LIG    1       24.879 -20.363   6.928  0.00  0.00    -0.170 OA
ATOM     15  O   LIG    1       25.467 -20.724   4.502  0.00  0.00    -0.170 OA
ENDBRANCH   5  13
ENDBRANCH   1   9
BRANCH   2  16
ATOM     16  C   LIG    1       24.694 -29.263   6.730  0.00  0.00    +0.034 A 
ATOM     17  C   LIG    1       25.288 -30.101   5.765  0.00  0.00    +0.034 A 
ATOM     18  C   LIG    1       25.368 -31.517   5.904  0.00  0.00    +0.020 A 
ATOM     19  C   LIG    1       24.818 -32.050   7.089  0.00  0.00    +0.050 A 
ATOM     20 CL   LIG    1       24.885 -33.723   7.532  0.00  0.00    -0.083 Cl
ATOM     21  C   LIG    1       24.203 -31.221   8.040  0.00  0.00    +0.022 A 
ATOM     22  C   LIG    1       24.136 -29.841   7.860  0.00  0.00    +0.025 A 
BRANCH  18  23
ATOM     23  C   LIG    1       26.035 -32.307   4.825  0.00  0.00    +0.072 A 
ATOM     24  N   LIG    1       27.129 -33.016   5.220  0.00  0.00    -0.255 NA
ATOM     25  C   LIG    1       27.794 -33.751   4.295  0.00  0.00    +0.111 A 
ATOM     26  C   LIG    1       27.439 -33.825   2.962  0.00  0.00    +0.020 A 
ATOM     27  C   LIG    1       26.338 -33.092   2.552  0.00  0.00    +0.004 A 
ATOM     28  C   LIG    1       25.640 -32.321   3.485  0.00  0.00    +0.028 A 
ENDBRANCH  18  23
ENDBRANCH   2  16
TORSDOF 4
ENDMDL
MODEL 7
REMARK VINA RESULT:      -6.6      4.150      9.700
REMARK  Name = *****
REMARK                            x       y       z     vdW  Elec       q    Type
REMARK                         _______ _______ _______ _____ _____    ______ ____
ROOT
ATOM      1  C   LIG    1       25.664 -26.797   6.893  0.00  0.00    +0.250 C 
ATOM      2  N   LIG    1       24.775 -27.722   6.375  0.00  0.00    -0.281 N 
ATOM      3  H   LIG    1       24.080 -27.379   5.721  0.00  0.00    +0.155 HD
ATOM      4  O   LIG    1       26.583 -27.032   7.673  0.00  0.00    -0.270 OA
ENDROOT
BRANCH   1   9
ATOM      5  C   LIG    1       25.064 -22.634   6.003  0.00  0.00    +0.089 A 
ATOM      6  C   LIG    1       24.976 -23.554   4.955  0.00  0.00    +0.047 A 
ATOM      7  C   LIG    1       25.180 -24.918   5.203  0.00  0.00    +0.055 A 
ATOM      8 CL   LIG    1       25.109 -25.955   3.822  0.00  0.00    -0.083 Cl
ATOM      9  C   LIG    1       25.449 -25.368   6.504  0.00  0.00    +0.055 A 
ATOM     10  C   LIG    1       25.542 -24.417   7.545  0.00  0.00    +0.016 A 
ATOM     11  C   LIG    1       25.340 -23.057   7.300  0.00  0.00    +0.028 A 
BRANCH   5  13
ATOM     12  C   LIG    1       24.174 -20.918   3.993  0.00  0.00    +0.200 C 
ATOM     13  S   LIG    1       24.751 -20.916   5.671  0.00  0.00    -0.006 S 
ATOM     14  O   LIG    1       23.661 -20.505   6.528  0.00  0.00    -0.170 OA
ATOM     15  O   LIG    1       26.032 -20.233   5.712  0.00  0.00    -0.170 OA
ENDBRANCH   5  13
ENDBRANCH   1   9
BRANCH   2  16
ATOM     16  C   LIG    1       24.765 -29.120   6.582  0.00  0.00    +0.034 A 
ATOM     17  C   LIG    1       24.231 -29.606   7.792  0.00  0.00    +0.034 A 
ATOM     18  C   LIG    1       24.131 -30.994   8.099  0.00  0.00    +0.020 A 
ATOM     19  C   LIG    1       24.596 -31.878   7.103  0.00  0.00    +0.050 A 
ATOM     20 CL   LIG    1       24.487 -33.604   7.199  0.00  0.00    -0.083 Cl
ATOM     21  C   LIG    1       25.153 -31.397   5.908  0.00  0.00    +0.022 A 
ATOM     22  C   LIG    1       25.242 -30.030   5.652  0.00  0.00    +0.025 A 
BRANCH  18  23
ATOM     23  C   LIG    1       23.532 -31.398   9.407  0.00  0.00    +0.072 A 
ATOM     24  N   LIG    1       22.268 -30.940   9.630  0.00  0.00    -0.255 NA
ATOM     25  C   LIG    1       21.660 -31.257  10.800  0.00  0.00    +0.111 A 
ATOM     26  C   LIG    1       22.244 -32.015  11.796  0.00  0.00    +0.020 A 
ATOM     27  C   LIG    1       23.535 -32.468  11.581  0.00  0.00    +0.004 A 
ATOM     28  C   LIG    1       24.186 -32.149  10.387  0.00  0.00    +0.028 A 
ENDBRANCH  18  23
ENDBRANCH   2  16
TORSDOF 4
ENDMDL
MODEL 8
REMARK VINA RESULT:      -6.4      5.793      9.415
REMARK  Name = *****
REMARK                            x       y       z     vdW  Elec       q    Type
REMARK                         _______ _______ _______ _____ _____    ______ ____
ROOT
ATOM      1  C   LIG    1       28.773 -20.375   7.330  0.00  0.00    +0.250 C 
ATOM      2  N   LIG    1       27.706 -21.004   7.949  0.00  0.00    -0.281 N 
ATOM      3  H   LIG    1       27.576 -20.826   8.939  0.00  0.00    +0.155 HD
ATOM      4  O   LIG    1       29.069 -20.452   6.141  0.00  0.00    -0.270 OA
ENDROOT
BRANCH   1   9
ATOM      5  C   LIG    1       31.257 -17.873   9.789  0.00  0.00    +0.089 A 
ATOM      6  C   LIG    1       31.574 -19.231   9.693  0.00  0.00    +0.047 A 
ATOM      7  C   LIG    1       30.780 -20.081   8.912  0.00  0.00    +0.055 A 
ATOM      8 CL   LIG    1       31.230 -21.750   8.917  0.00  0.00    -0.083 Cl
ATOM      9  C   LIG    1       29.679 -19.571   8.208  0.00  0.00    +0.055 A 
ATOM     10  C   LIG    1       29.374 -18.197   8.329  0.00  0.00    +0.016 A 
ATOM     11  C   LIG    1       30.164 -17.347   9.106  0.00  0.00    +0.028 A 
BRANCH   5  13
ATOM     12  C   LIG    1       31.166 -15.796  11.646  0.00  0.00    +0.200 C 
ATOM     13  S   LIG    1       32.310 -16.807  10.744  0.00  0.00    -0.006 S 
ATOM     14  O   LIG    1       33.025 -17.640  11.686  0.00  0.00    -0.170 OA
ATOM     15  O   LIG    1       33.025 -15.960   9.804  0.00  0.00    -0.170 OA
ENDBRANCH   5  13
ENDBRANCH   1   9
BRANCH   2  16
ATOM     16  C   LIG    1       26.711 -21.808   7.348  0.00  0.00    +0.034 A 
ATOM     17  C   LIG    1       25.662 -21.164   6.662  0.00  0.00    +0.034 A 
ATOM     18  C   LIG    1       24.624 -21.867   5.985  0.00  0.00    +0.020 A 
ATOM     19  C   LIG    1       24.707 -23.275   6.028  0.00  0.00    +0.050 A 
ATOM     20 CL   LIG    1       23.626 -24.344   5.198  0.00  0.00    -0.083 Cl
ATOM     21  C   LIG    1       25.736 -23.920   6.732  0.00  0.00    +0.022 A 
ATOM     22  C   LIG    1       26.726 -23.194   7.391  0.00  0.00    +0.025 A 
BRANCH  18  23
ATOM     23  C   LIG    1       23.570 -21.081   5.276  0.00  0.00    +0.072 A 
ATOM     24  N   LIG    1       24.020 -19.983   4.606  0.00  0.00    -0.255 NA
ATOM     25  C   LIG    1       23.121 -19.213   3.945  0.00  0.00    +0.111 A 
ATOM     26  C   LIG    1       21.763 -19.463   3.910  0.00  0.00    +0.020 A 
ATOM     27  C   LIG    1       21.299 -20.568   4.604  0.00  0.00    +0.004 A 
ATOM     28  C   LIG    1       22.204 -21.374   5.299  0.00  0.00    +0.028 A 
ENDBRANCH  18  23
ENDBRANCH   2  16
TORSDOF 4
ENDMDL
MODEL 9
REMARK VINA RESULT:      -6.1      4.210      9.598
REMARK  Name = *****
REMARK                            x       y       z     vdW  Elec       q    Type
REMARK                         _______ _______ _______ _____ _____    ______ ____
ROOT
ATOM      1  C   LIG    1       25.478 -25.738   6.478  0.00  0.00    +0.250 C 
ATOM      2  N   LIG    1       24.756 -26.752   5.873  0.00  0.00    -0.281 N 
ATOM      3  H   LIG    1       24.156 -26.492   5.098  0.00  0.00    +0.155 HD
ATOM      4  O   LIG    1       26.269 -25.868   7.409  0.00  0.00    -0.270 OA
ENDROOT
BRANCH   1   9
ATOM      5  C   LIG    1       24.689 -21.836   4.857  0.00  0.00    +0.089 A 
ATOM      6  C   LIG    1       25.252 -21.921   6.133  0.00  0.00    +0.047 A 
ATOM      7  C   LIG    1       25.511 -23.175   6.701  0.00  0.00    +0.055 A 
ATOM      8 CL   LIG    1       26.149 -23.159   8.308  0.00  0.00    -0.083 Cl
ATOM      9  C   LIG    1       25.228 -24.348   5.985  0.00  0.00    +0.055 A 
ATOM     10  C   LIG    1       24.650 -24.236   4.701  0.00  0.00    +0.016 A 
ATOM     11  C   LIG    1       24.391 -22.987   4.132  0.00  0.00    +0.028 A 
BRANCH   5  13
ATOM     12  C   LIG    1       22.994 -19.627   5.006  0.00  0.00    +0.200 C 
ATOM     13  S   LIG    1       24.418 -20.233   4.139  0.00  0.00    -0.006 S 
ATOM     14  O   LIG    1       25.552 -19.408   4.490  0.00  0.00    -0.170 OA
ATOM     15  O   LIG    1       24.051 -20.445   2.749  0.00  0.00    -0.170 OA
ENDBRANCH   5  13
ENDBRANCH   1   9
BRANCH   2  16
ATOM     16  C   LIG    1       24.813 -28.137   6.150  0.00  0.00    +0.034 A 
ATOM     17  C   LIG    1       24.390 -28.576   7.421  0.00  0.00    +0.034 A 
ATOM     18  C   LIG    1       24.364 -29.948   7.804  0.00  0.00    +0.020 A 
ATOM     19  C   LIG    1       24.784 -30.868   6.820  0.00  0.00    +0.050 A 
ATOM     20 CL   LIG    1       24.745 -32.589   7.010  0.00  0.00    -0.083 Cl
ATOM     21  C   LIG    1       25.231 -30.432   5.562  0.00  0.00    +0.022 A 
ATOM     22  C   LIG    1       25.250 -29.079   5.232  0.00  0.00    +0.025 A 
BRANCH  18  23
ATOM     23  C   LIG    1       23.881 -30.302   9.173  0.00  0.00    +0.072 A 
ATOM     24  N   LIG    1       22.619 -30.814   9.226  0.00  0.00    -0.255 NA
ATOM     25  C   LIG    1       22.107 -31.150  10.435  0.00  0.00    +0.111 A 
ATOM     26  C   LIG    1       22.781 -31.001  11.632  0.00  0.00    +0.020 A 
ATOM     27  C   LIG    1       24.057 -30.466  11.584  0.00  0.00    +0.004 A 
ATOM     28  C   LIG    1       24.605 -30.103  10.351  0.00  0.00    +0.028 A 
ENDBRANCH  18  23
ENDBRANCH   2  16
TORSDOF 4
ENDMDL
