MODEL 1
REMARK VINA RESULT:      -7.9      0.000      0.000
REMARK  Name = *****
REMARK                            x       y       z     vdW  Elec       q    Type
REMARK                         _______ _______ _______ _____ _____    ______ ____
ROOT
ATOM      1  S   UNK A  1       26.147 -26.458   5.363  0.00  0.00    -0.091 S 
ENDROOT
BRANCH   1   2
ATOM      2  S   UNK A  1       25.105 -24.706   5.765  0.00  0.00    -0.091 S 
BRANCH   2   3
ATOM      3  C   UNK A  1       25.941 -23.868   7.213  0.00  0.00    +0.112 C 
BRANCH   3   4
ATOM      4  C   UNK A  1       26.165 -22.336   7.111  0.00  0.00    +0.169 C 
BRANCH   4   5
ATOM      5  N   UNK A  1       27.595 -21.907   7.401  0.00  0.00    -0.303 N 
ATOM      6  H   UNK A  1       27.967 -22.213   8.295  0.00  0.00    +0.149 HD
ATOM      7  C   UNK A  1       28.183 -20.789   6.832  0.00  0.00    +0.214 C 
ATOM      8  O   UNK A  1       27.553 -20.084   6.043  0.00  0.00    -0.276 OA
BRANCH   7   9
ATOM      9  C   UNK A  1       29.625 -20.389   7.275  0.00  0.00    +0.098 C 
BRANCH   9  10
ATOM     10  C   UNK A  1       30.016 -18.888   7.509  0.00  0.00    +0.039 C 
BRANCH  10  11
ATOM     11  C   UNK A  1       31.081 -18.568   8.583  0.00  0.00    +0.161 C 
BRANCH  11  12
ATOM     12  N   UNK A  1       31.735 -19.804   9.082  0.00  0.00    -0.318 NA
ATOM     13  H   UNK A  1       31.367 -20.605   8.561  0.00  0.00    +0.119 HD
ATOM     14  H   UNK A  1       31.339 -20.001  10.017  0.00  0.00    +0.119 HD
ENDBRANCH  11  12
BRANCH  11  15
ATOM     15  C   UNK A  1       30.511 -17.832   9.833  0.00  0.00    +0.322 C 
ATOM     16  O   UNK A  1       30.080 -16.684   9.857  0.00  0.00    -0.249 OA
BRANCH  15  17
ATOM     17  O   UNK A  1       30.596 -18.599  10.956  0.00  0.00    -0.479 OA
ATOM     18  H   UNK A  1       31.562 -18.687  11.153  0.00  0.00    +0.295 HD
ENDBRANCH  15  17
ENDBRANCH  11  15
ENDBRANCH  10  11
ENDBRANCH   9  10
ENDBRANCH   7   9
ENDBRANCH   4   5
BRANCH   4  19
ATOM     19  C   UNK A  1       25.207 -21.662   8.130  0.00  0.00    +0.235 C 
ATOM     20  N   GLY A  2       23.966 -21.222   7.759  0.00  0.00    -0.303 N 
ATOM     21  H   GLY A  2       23.411 -20.891   8.539  0.00  0.00    +0.149 HD
ATOM     22  O   UNK A  1       25.552 -21.476   9.303  0.00  0.00    -0.274 OA
BRANCH  20  23
ATOM     23  CA  GLY A  2       23.261 -21.416   6.496  0.00  0.00    +0.224 C 
BRANCH  23  24
ATOM     24  C   GLY A  2       23.454 -20.311   5.486  0.00  0.00    +0.322 C 
ATOM     25  O   GLY A  2       24.450 -20.152   4.747  0.00  0.00    -0.249 OA
BRANCH  24  26
ATOM     26  OXT GLY A  2       22.368 -19.552   5.292  0.00  0.00    -0.479 OA
ATOM     27  HXT GLY A  2       21.758 -19.815   6.012  0.00  0.00    +0.295 HD
ENDBRANCH  24  26
ENDBRANCH  23  24
ENDBRANCH  20  23
ENDBRANCH   4  19
ENDBRANCH   3   4
ENDBRANCH   2   3
ENDBRANCH   1   2
BRANCH   1  28
ATOM     28  C   UNK A  1       24.814 -27.751   5.496  0.00  0.00    +0.112 C 
BRANCH  28  29
ATOM     29  C   UNK A  1       24.826 -28.708   6.735  0.00  0.00    +0.169 C 
BRANCH  29  31
ATOM     30  C   UNK A  1       25.760 -28.964   9.105  0.00  0.00    +0.214 C 
ATOM     31  N   UNK A  1       25.834 -28.474   7.816  0.00  0.00    -0.303 N 
ATOM     32  H   UNK A  1       26.721 -28.081   7.528  0.00  0.00    +0.149 HD
ATOM     33  O   UNK A  1       24.850 -29.685   9.496  0.00  0.00    -0.276 OA
BRANCH  30  34
ATOM     34  C   UNK A  1       26.931 -28.655  10.035  0.00  0.00    +0.098 C 
BRANCH  34  35
ATOM     35  C   UNK A  1       27.188 -29.727  11.135  0.00  0.00    +0.039 C 
BRANCH  35  36
ATOM     36  C   UNK A  1       27.622 -29.219  12.542  0.00  0.00    +0.161 C 
BRANCH  36  37
ATOM     37  N   UNK A  1       27.490 -27.739  12.644  0.00  0.00    -0.318 NA
ATOM     38  H   UNK A  1       28.382 -27.305  12.872  0.00  0.00    +0.119 HD
ATOM     39  H   UNK A  1       27.191 -27.358  11.743  0.00  0.00    +0.119 HD
ENDBRANCH  36  37
BRANCH  36  40
ATOM     40  C   UNK A  1       29.081 -29.591  12.862  0.00  0.00    +0.322 C 
ATOM     41  O   UNK A  1       29.446 -30.213  13.859  0.00  0.00    -0.249 OA
BRANCH  40  42
ATOM     42  O   UNK A  1       29.965 -29.262  11.890  0.00  0.00    -0.479 OA
ATOM     43  H   UNK A  1       30.657 -29.935  11.759  0.00  0.00    +0.295 HD
ENDBRANCH  40  42
ENDBRANCH  36  40
ENDBRANCH  35  36
ENDBRANCH  34  35
ENDBRANCH  30  34
ENDBRANCH  29  31
BRANCH  29  44
ATOM     44  C   UNK A  1       24.744 -30.201   6.264  0.00  0.00    +0.235 C 
ATOM     45  N   GLY A  2       25.947 -30.864   6.085  0.00  0.00    -0.303 N 
ATOM     46  H   GLY A  2       26.814 -30.455   6.394  0.00  0.00    +0.149 HD
ATOM     47  O   UNK A  1       23.677 -30.812   6.193  0.00  0.00    -0.274 OA
BRANCH  45  48
ATOM     48  CA  GLY A  2       25.997 -32.253   5.622  0.00  0.00    +0.224 C 
BRANCH  48  49
ATOM     49  C   GLY A  2       25.735 -32.452   4.137  0.00  0.00    +0.322 C 
ATOM     50  O   GLY A  2       26.586 -32.527   3.256  0.00  0.00    -0.249 OA
BRANCH  49  51
ATOM     51  OXT GLY A  2       24.457 -32.790   3.857  0.00  0.00    -0.479 OA
ATOM     52  HXT GLY A  2       24.547 -33.633   3.359  0.00  0.00    +0.295 HD
ENDBRANCH  49  51
ENDBRANCH  48  49
ENDBRANCH  45  48
ENDBRANCH  29  44
ENDBRANCH  28  29
ENDBRANCH   1  28
TORSDOF 27
ENDMDL
MODEL 2
REMARK VINA RESULT:      -7.7      1.640      2.024
REMARK  Name = *****
REMARK                            x       y       z     vdW  Elec       q    Type
REMARK                         _______ _______ _______ _____ _____    ______ ____
ROOT
ATOM      1  S   UNK A  1       24.386 -27.003   5.744  0.00  0.00    -0.091 S 
ENDROOT
BRANCH   1   2
ATOM      2  S   UNK A  1       25.672 -25.371   5.772  0.00  0.00    -0.091 S 
BRANCH   2   3
ATOM      3  C   UNK A  1       24.789 -23.967   6.635  0.00  0.00    +0.112 C 
BRANCH   3   4
ATOM      4  C   UNK A  1       25.318 -22.532   6.377  0.00  0.00    +0.169 C 
BRANCH   4   5
ATOM      5  N   UNK A  1       26.618 -22.221   7.103  0.00  0.00    -0.303 N 
ATOM      6  H   UNK A  1       26.705 -22.624   8.030  0.00  0.00    +0.149 HD
ATOM      7  C   UNK A  1       27.386 -21.098   6.837  0.00  0.00    +0.214 C 
ATOM      8  O   UNK A  1       27.037 -20.289   5.976  0.00  0.00    -0.276 OA
BRANCH   7   9
ATOM      9  C   UNK A  1       28.651 -20.828   7.710  0.00  0.00    +0.098 C 
BRANCH   9  10
ATOM     10  C   UNK A  1       29.583 -19.597   7.432  0.00  0.00    +0.039 C 
BRANCH  10  11
ATOM     11  C   UNK A  1       31.101 -19.759   7.677  0.00  0.00    +0.161 C 
BRANCH  11  12
ATOM     12  N   UNK A  1       31.424 -21.107   8.208  0.00  0.00    -0.318 NA
ATOM     13  H   UNK A  1       32.439 -21.239   8.178  0.00  0.00    +0.119 HD
ATOM     14  H   UNK A  1       31.132 -21.793   7.493  0.00  0.00    +0.119 HD
ENDBRANCH  11  12
BRANCH  11  15
ATOM     15  C   UNK A  1       31.687 -18.731   8.691  0.00  0.00    +0.322 C 
ATOM     16  O   UNK A  1       31.710 -18.857   9.911  0.00  0.00    -0.249 OA
BRANCH  15  17
ATOM     17  O   UNK A  1       32.138 -17.606   8.069  0.00  0.00    -0.479 OA
ATOM     18  H   UNK A  1       33.097 -17.531   8.303  0.00  0.00    +0.295 HD
ENDBRANCH  15  17
ENDBRANCH  11  15
ENDBRANCH  10  11
ENDBRANCH   9  10
ENDBRANCH   7   9
ENDBRANCH   4   5
BRANCH   4  19
ATOM     19  C   UNK A  1       24.216 -21.543   6.844  0.00  0.00    +0.235 C 
ATOM     20  N   GLY A  2       23.514 -20.784   5.949  0.00  0.00    -0.303 N 
ATOM     21  H   GLY A  2       22.763 -20.255   6.377  0.00  0.00    +0.149 HD
ATOM     22  O   UNK A  1       23.963 -21.392   8.045  0.00  0.00    -0.274 OA
BRANCH  20  23
ATOM     23  CA  GLY A  2       23.516 -20.843   4.491  0.00  0.00    +0.224 C 
BRANCH  23  24
ATOM     24  C   GLY A  2       24.252 -19.712   3.812  0.00  0.00    +0.322 C 
ATOM     25  O   GLY A  2       23.829 -18.548   3.651  0.00  0.00    -0.249 OA
BRANCH  24  26
ATOM     26  OXT GLY A  2       25.528 -19.992   3.515  0.00  0.00    -0.479 OA
ATOM     27  HXT GLY A  2       25.799 -19.270   2.910  0.00  0.00    +0.295 HD
ENDBRANCH  24  26
ENDBRANCH  23  24
ENDBRANCH  20  23
ENDBRANCH   4  19
ENDBRANCH   3   4
ENDBRANCH   2   3
ENDBRANCH   1   2
BRANCH   1  28
ATOM     28  C   UNK A  1       25.524 -28.412   6.179  0.00  0.00    +0.112 C 
BRANCH  28  29
ATOM     29  C   UNK A  1       24.919 -29.663   6.900  0.00  0.00    +0.169 C 
BRANCH  29  31
ATOM     30  C   UNK A  1       23.793 -30.290   9.112  0.00  0.00    +0.214 C 
ATOM     31  N   UNK A  1       24.771 -29.634   8.389  0.00  0.00    -0.303 N 
ATOM     32  H   UNK A  1       25.549 -29.257   8.912  0.00  0.00    +0.149 HD
ATOM     33  O   UNK A  1       22.944 -31.005   8.595  0.00  0.00    -0.276 OA
BRANCH  30  34
ATOM     34  C   UNK A  1       23.861 -30.176  10.633  0.00  0.00    +0.098 C 
BRANCH  34  35
ATOM     35  C   UNK A  1       25.067 -29.348  11.170  0.00  0.00    +0.039 C 
BRANCH  35  36
ATOM     36  C   UNK A  1       26.339 -30.136  11.602  0.00  0.00    +0.161 C 
BRANCH  36  37
ATOM     37  N   UNK A  1       26.693 -29.852  13.021  0.00  0.00    -0.318 NA
ATOM     38  H   UNK A  1       27.421 -29.143  13.083  0.00  0.00    +0.119 HD
ATOM     39  H   UNK A  1       25.874 -29.486  13.512  0.00  0.00    +0.119 HD
ENDBRANCH  36  37
BRANCH  36  40
ATOM     40  C   UNK A  1       27.556 -29.786  10.727  0.00  0.00    +0.322 C 
ATOM     41  O   UNK A  1       28.640 -29.389  11.154  0.00  0.00    -0.249 OA
BRANCH  40  42
ATOM     42  O   UNK A  1       27.385 -30.042   9.408  0.00  0.00    -0.479 OA
ATOM     43  H   UNK A  1       27.664 -29.304   8.836  0.00  0.00    +0.295 HD
ENDBRANCH  40  42
ENDBRANCH  36  40
ENDBRANCH  35  36
ENDBRANCH  34  35
ENDBRANCH  30  34
ENDBRANCH  29  31
BRANCH  29  44
ATOM     44  C   UNK A  1       25.590 -30.973   6.360  0.00  0.00    +0.235 C 
ATOM     45  N   GLY A  2       25.432 -31.242   5.010  0.00  0.00    -0.303 N 
ATOM     46  H   GLY A  2       25.043 -30.553   4.387  0.00  0.00    +0.149 HD
ATOM     47  O   UNK A  1       26.343 -31.661   7.051  0.00  0.00    -0.274 OA
BRANCH  45  48
ATOM     48  CA  GLY A  2       25.991 -32.450   4.398  0.00  0.00    +0.224 C 
BRANCH  48  49
ATOM     49  C   GLY A  2       25.443 -32.795   3.022  0.00  0.00    +0.322 C 
ATOM     50  O   GLY A  2       26.033 -32.664   1.955  0.00  0.00    -0.249 OA
BRANCH  49  51
ATOM     51  OXT GLY A  2       24.294 -33.505   3.063  0.00  0.00    -0.479 OA
ATOM     52  HXT GLY A  2       24.141 -33.748   2.124  0.00  0.00    +0.295 HD
ENDBRANCH  49  51
ENDBRANCH  48  49
ENDBRANCH  45  48
ENDBRANCH  29  44
ENDBRANCH  28  29
ENDBRANCH   1  28
TORSDOF 27
ENDMDL
MODEL 3
REMARK VINA RESULT:      -7.7      1.862      2.124
REMARK  Name = *****
REMARK                            x       y       z     vdW  Elec       q    Type
REMARK                         _______ _______ _______ _____ _____    ______ ____
ROOT
ATOM      1  S   UNK A  1       25.068 -25.570   4.973  0.00  0.00    -0.091 S 
ENDROOT
BRANCH   1   2
ATOM      2  S   UNK A  1       24.387 -24.362   6.520  0.00  0.00    -0.091 S 
BRANCH   2   3
ATOM      3  C   UNK A  1       25.883 -23.608   7.351  0.00  0.00    +0.112 C 
BRANCH   3   4
ATOM      4  C   UNK A  1       26.121 -22.090   7.139  0.00  0.00    +0.169 C 
BRANCH   4   5
ATOM      5  N   UNK A  1       27.573 -21.669   7.307  0.00  0.00    -0.303 N 
ATOM      6  H   UNK A  1       28.003 -21.935   8.187  0.00  0.00    +0.149 HD
ATOM      7  C   UNK A  1       28.133 -20.591   6.641  0.00  0.00    +0.214 C 
ATOM      8  O   UNK A  1       27.458 -19.916   5.862  0.00  0.00    -0.276 OA
BRANCH   7   9
ATOM      9  C   UNK A  1       29.607 -20.191   6.962  0.00  0.00    +0.098 C 
BRANCH   9  10
ATOM     10  C   UNK A  1       29.942 -19.163   8.099  0.00  0.00    +0.039 C 
BRANCH  10  11
ATOM     11  C   UNK A  1       31.390 -19.115   8.638  0.00  0.00    +0.161 C 
BRANCH  11  12
ATOM     12  N   UNK A  1       31.867 -20.464   9.033  0.00  0.00    -0.318 NA
ATOM     13  H   UNK A  1       31.239 -20.838   9.751  0.00  0.00    +0.119 HD
ATOM     14  H   UNK A  1       32.724 -20.331   9.594  0.00  0.00    +0.119 HD
ENDBRANCH  11  12
BRANCH  11  15
ATOM     15  C   UNK A  1       31.566 -18.199   9.886  0.00  0.00    +0.322 C 
ATOM     16  O   UNK A  1       32.490 -17.416  10.080  0.00  0.00    -0.249 OA
BRANCH  15  17
ATOM     17  O   UNK A  1       30.582 -18.403  10.807  0.00  0.00    -0.479 OA
ATOM     18  H   UNK A  1       30.542 -17.576  11.349  0.00  0.00    +0.295 HD
ENDBRANCH  15  17
ENDBRANCH  11  15
ENDBRANCH  10  11
ENDBRANCH   9  10
ENDBRANCH   7   9
ENDBRANCH   4   5
BRANCH   4  19
ATOM     19  C   UNK A  1       25.242 -21.336   8.174  0.00  0.00    +0.235 C 
ATOM     20  N   GLY A  2       23.989 -20.893   7.856  0.00  0.00    -0.303 N 
ATOM     21  H   GLY A  2       23.490 -20.504   8.649  0.00  0.00    +0.149 HD
ATOM     22  O   UNK A  1       25.666 -21.090   9.310  0.00  0.00    -0.274 OA
BRANCH  20  23
ATOM     23  CA  GLY A  2       23.201 -21.145   6.654  0.00  0.00    +0.224 C 
BRANCH  23  24
ATOM     24  C   GLY A  2       23.335 -20.096   5.576  0.00  0.00    +0.322 C 
ATOM     25  O   GLY A  2       22.520 -19.181   5.331  0.00  0.00    -0.249 OA
BRANCH  24  26
ATOM     26  OXT GLY A  2       24.525 -20.094   4.962  0.00  0.00    -0.479 OA
ATOM     27  HXT GLY A  2       25.133 -20.508   5.610  0.00  0.00    +0.295 HD
ENDBRANCH  24  26
ENDBRANCH  23  24
ENDBRANCH  20  23
ENDBRANCH   4  19
ENDBRANCH   3   4
ENDBRANCH   2   3
ENDBRANCH   1   2
BRANCH   1  28
ATOM     28  C   UNK A  1       26.230 -26.727   5.856  0.00  0.00    +0.112 C 
BRANCH  28  29
ATOM     29  C   UNK A  1       25.629 -27.750   6.878  0.00  0.00    +0.169 C 
BRANCH  29  31
ATOM     30  C   UNK A  1       26.048 -29.018   9.062  0.00  0.00    +0.214 C 
ATOM     31  N   UNK A  1       26.435 -28.125   8.081  0.00  0.00    -0.303 N 
ATOM     32  H   UNK A  1       27.405 -27.841   8.080  0.00  0.00    +0.149 HD
ATOM     33  O   UNK A  1       24.990 -29.633   9.027  0.00  0.00    -0.276 OA
BRANCH  30  34
ATOM     34  C   UNK A  1       27.052 -29.302  10.177  0.00  0.00    +0.098 C 
BRANCH  34  35
ATOM     35  C   UNK A  1       26.501 -29.082  11.618  0.00  0.00    +0.039 C 
BRANCH  35  36
ATOM     36  C   UNK A  1       25.854 -30.306  12.331  0.00  0.00    +0.161 C 
BRANCH  36  37
ATOM     37  N   UNK A  1       25.939 -31.529  11.486  0.00  0.00    -0.318 NA
ATOM     38  H   UNK A  1       25.013 -31.875  11.245  0.00  0.00    +0.119 HD
ATOM     39  H   UNK A  1       26.416 -31.307  10.608  0.00  0.00    +0.119 HD
ENDBRANCH  36  37
BRANCH  36  40
ATOM     40  C   UNK A  1       24.371 -30.058  12.663  0.00  0.00    +0.322 C 
ATOM     41  O   UNK A  1       23.908 -29.979  13.801  0.00  0.00    -0.249 OA
BRANCH  40  42
ATOM     42  O   UNK A  1       23.589 -29.827  11.582  0.00  0.00    -0.479 OA
ATOM     43  H   UNK A  1       23.670 -30.516  10.898  0.00  0.00    +0.295 HD
ENDBRANCH  40  42
ENDBRANCH  36  40
ENDBRANCH  35  36
ENDBRANCH  34  35
ENDBRANCH  30  34
ENDBRANCH  29  31
BRANCH  29  44
ATOM     44  C   UNK A  1       25.028 -28.982   6.115  0.00  0.00    +0.235 C 
ATOM     45  N   GLY A  2       25.891 -30.034   5.855  0.00  0.00    -0.303 N 
ATOM     46  H   GLY A  2       26.806 -30.068   6.273  0.00  0.00    +0.149 HD
ATOM     47  O   UNK A  1       23.823 -29.089   5.882  0.00  0.00    -0.274 OA
BRANCH  45  48
ATOM     48  CA  GLY A  2       25.450 -31.226   5.127  0.00  0.00    +0.224 C 
BRANCH  48  49
ATOM     49  C   GLY A  2       24.513 -32.147   5.893  0.00  0.00    +0.322 C 
ATOM     50  O   GLY A  2       24.784 -32.763   6.919  0.00  0.00    -0.249 OA
BRANCH  49  51
ATOM     51  OXT GLY A  2       23.226 -32.063   5.488  0.00  0.00    -0.479 OA
ATOM     52  HXT GLY A  2       23.038 -32.961   5.137  0.00  0.00    +0.295 HD
ENDBRANCH  49  51
ENDBRANCH  48  49
ENDBRANCH  45  48
ENDBRANCH  29  44
ENDBRANCH  28  29
ENDBRANCH   1  28
TORSDOF 27
ENDMDL
MODEL 4
REMARK VINA RESULT:      -7.7      1.837      2.256
REMARK  Name = *****
REMARK                            x       y       z     vdW  Elec       q    Type
REMARK                         _______ _______ _______ _____ _____    ______ ____
ROOT
ATOM      1  S   UNK A  1       24.357 -26.876   6.108  0.00  0.00    -0.091 S 
ENDROOT
BRANCH   1   2
ATOM      2  S   UNK A  1       26.048 -25.676   6.241  0.00  0.00    -0.091 S 
BRANCH   2   3
ATOM      3  C   UNK A  1       25.534 -24.056   7.021  0.00  0.00    +0.112 C 
BRANCH   3   4
ATOM      4  C   UNK A  1       25.428 -22.823   6.085  0.00  0.00    +0.169 C 
BRANCH   4   5
ATOM      5  N   UNK A  1       26.440 -21.731   6.396  0.00  0.00    -0.303 N 
ATOM      6  H   UNK A  1       27.139 -21.570   5.677  0.00  0.00    +0.149 HD
ATOM      7  C   UNK A  1       26.773 -21.349   7.685  0.00  0.00    +0.214 C 
ATOM      8  O   UNK A  1       26.243 -21.891   8.656  0.00  0.00    -0.276 OA
BRANCH   7   9
ATOM      9  C   UNK A  1       27.896 -20.284   7.888  0.00  0.00    +0.098 C 
BRANCH   9  10
ATOM     10  C   UNK A  1       29.284 -20.419   7.171  0.00  0.00    +0.039 C 
BRANCH  10  11
ATOM     11  C   UNK A  1       30.549 -19.956   7.931  0.00  0.00    +0.161 C 
BRANCH  11  12
ATOM     12  N   UNK A  1       31.657 -19.637   6.996  0.00  0.00    -0.318 NA
ATOM     13  H   UNK A  1       32.418 -20.305   7.147  0.00  0.00    +0.119 HD
ATOM     14  H   UNK A  1       32.105 -18.772   7.340  0.00  0.00    +0.119 HD
ENDBRANCH  11  12
BRANCH  11  15
ATOM     15  C   UNK A  1       31.104 -21.014   8.932  0.00  0.00    +0.322 C 
ATOM     16  O   UNK A  1       32.243 -21.048   9.385  0.00  0.00    -0.249 OA
BRANCH  15  17
ATOM     17  O   UNK A  1       30.179 -21.971   9.222  0.00  0.00    -0.479 OA
ATOM     18  H   UNK A  1       29.979 -22.425   8.366  0.00  0.00    +0.295 HD
ENDBRANCH  15  17
ENDBRANCH  11  15
ENDBRANCH  10  11
ENDBRANCH   9  10
ENDBRANCH   7   9
ENDBRANCH   4   5
BRANCH   4  19
ATOM     19  C   UNK A  1       23.991 -22.252   6.235  0.00  0.00    +0.235 C 
ATOM     20  N   GLY A  2       23.415 -21.502   5.248  0.00  0.00    -0.303 N 
ATOM     21  H   GLY A  2       22.445 -21.276   5.434  0.00  0.00    +0.149 HD
ATOM     22  O   UNK A  1       23.337 -22.438   7.269  0.00  0.00    -0.274 OA
BRANCH  20  23
ATOM     23  CA  GLY A  2       23.897 -21.232   3.897  0.00  0.00    +0.224 C 
BRANCH  23  24
ATOM     24  C   GLY A  2       24.681 -19.950   3.749  0.00  0.00    +0.322 C 
ATOM     25  O   GLY A  2       24.202 -18.803   3.622  0.00  0.00    -0.249 OA
BRANCH  24  26
ATOM     26  OXT GLY A  2       26.000 -20.092   3.932  0.00  0.00    -0.479 OA
ATOM     27  HXT GLY A  2       26.077 -20.826   4.578  0.00  0.00    +0.295 HD
ENDBRANCH  24  26
ENDBRANCH  23  24
ENDBRANCH  20  23
ENDBRANCH   4  19
ENDBRANCH   3   4
ENDBRANCH   2   3
ENDBRANCH   1   2
BRANCH   1  28
ATOM     28  C   UNK A  1       25.086 -28.589   6.096  0.00  0.00    +0.112 C 
BRANCH  28  29
ATOM     29  C   UNK A  1       24.433 -29.683   7.007  0.00  0.00    +0.169 C 
BRANCH  29  31
ATOM     30  C   UNK A  1       23.990 -30.098   9.494  0.00  0.00    +0.214 C 
ATOM     31  N   UNK A  1       24.823 -29.744   8.450  0.00  0.00    -0.303 N 
ATOM     32  H   UNK A  1       25.813 -29.699   8.652  0.00  0.00    +0.149 HD
ATOM     33  O   UNK A  1       22.824 -30.436   9.334  0.00  0.00    -0.276 OA
BRANCH  30  34
ATOM     34  C   UNK A  1       24.609 -30.154  10.889  0.00  0.00    +0.098 C 
BRANCH  34  35
ATOM     35  C   UNK A  1       25.145 -28.789  11.417  0.00  0.00    +0.039 C 
BRANCH  35  36
ATOM     36  C   UNK A  1       26.640 -28.728  11.851  0.00  0.00    +0.161 C 
BRANCH  36  37
ATOM     37  N   UNK A  1       27.070 -27.326  12.105  0.00  0.00    -0.318 NA
ATOM     38  H   UNK A  1       27.209 -27.158  13.100  0.00  0.00    +0.119 HD
ATOM     39  H   UNK A  1       27.965 -27.152  11.642  0.00  0.00    +0.119 HD
ENDBRANCH  36  37
BRANCH  36  40
ATOM     40  C   UNK A  1       27.572 -29.328  10.783  0.00  0.00    +0.322 C 
ATOM     41  O   UNK A  1       28.413 -30.202  10.993  0.00  0.00    -0.249 OA
BRANCH  40  42
ATOM     42  O   UNK A  1       27.337 -28.884   9.526  0.00  0.00    -0.479 OA
ATOM     43  H   UNK A  1       27.816 -28.062   9.314  0.00  0.00    +0.295 HD
ENDBRANCH  40  42
ENDBRANCH  36  40
ENDBRANCH  35  36
ENDBRANCH  34  35
ENDBRANCH  30  34
ENDBRANCH  29  31
BRANCH  29  44
ATOM     44  C   UNK A  1       24.469 -31.075   6.286  0.00  0.00    +0.235 C 
ATOM     45  N   GLY A  2       25.719 -31.586   5.980  0.00  0.00    -0.303 N 
ATOM     46  H   GLY A  2       26.556 -31.158   6.342  0.00  0.00    +0.149 HD
ATOM     47  O   UNK A  1       23.457 -31.760   6.126  0.00  0.00    -0.274 OA
BRANCH  45  48
ATOM     48  CA  GLY A  2       25.876 -32.865   5.283  0.00  0.00    +0.224 C 
BRANCH  48  49
ATOM     49  C   GLY A  2       25.605 -32.828   3.788  0.00  0.00    +0.322 C 
ATOM     50  O   GLY A  2       26.449 -32.747   2.901  0.00  0.00    -0.249 OA
BRANCH  49  51
ATOM     51  OXT GLY A  2       24.330 -33.138   3.465  0.00  0.00    -0.479 OA
ATOM     52  HXT GLY A  2       24.374 -34.096   3.250  0.00  0.00    +0.295 HD
ENDBRANCH  49  51
ENDBRANCH  48  49
ENDBRANCH  45  48
ENDBRANCH  29  44
ENDBRANCH  28  29
ENDBRANCH   1  28
TORSDOF 27
ENDMDL
MODEL 5
REMARK VINA RESULT:      -7.5      2.049     10.262
REMARK  Name = *****
REMARK                            x       y       z     vdW  Elec       q    Type
REMARK                         _______ _______ _______ _____ _____    ______ ____
ROOT
ATOM      1  S   UNK A  1       24.956 -25.376   5.193  0.00  0.00    -0.091 S 
ENDROOT
BRANCH   1   2
ATOM      2  S   UNK A  1       25.498 -27.109   6.204  0.00  0.00    -0.091 S 
BRANCH   2   3
ATOM      3  C   UNK A  1       24.361 -28.478   5.632  0.00  0.00    +0.112 C 
BRANCH   3   4
ATOM      4  C   UNK A  1       24.299 -29.758   6.507  0.00  0.00    +0.169 C 
BRANCH   4   5
ATOM      5  N   UNK A  1       24.993 -29.614   7.852  0.00  0.00    -0.303 N 
ATOM      6  H   UNK A  1       26.000 -29.740   7.836  0.00  0.00    +0.149 HD
ATOM      7  C   UNK A  1       24.357 -29.834   9.063  0.00  0.00    +0.214 C 
ATOM      8  O   UNK A  1       23.170 -30.160   9.096  0.00  0.00    -0.276 OA
BRANCH   7   9
ATOM      9  C   UNK A  1       25.192 -29.751  10.378  0.00  0.00    +0.098 C 
BRANCH   9  10
ATOM     10  C   UNK A  1       26.353 -28.708  10.540  0.00  0.00    +0.039 C 
BRANCH  10  11
ATOM     11  C   UNK A  1       26.952 -28.492  11.949  0.00  0.00    +0.161 C 
BRANCH  11  12
ATOM     12  N   UNK A  1       27.127 -27.048  12.247  0.00  0.00    -0.318 NA
ATOM     13  H   UNK A  1       26.770 -26.860  13.188  0.00  0.00    +0.119 HD
ATOM     14  H   UNK A  1       26.429 -26.534  11.684  0.00  0.00    +0.119 HD
ENDBRANCH  11  12
BRANCH  11  15
ATOM     15  C   UNK A  1       28.346 -29.158  12.149  0.00  0.00    +0.322 C 
ATOM     16  O   UNK A  1       28.914 -29.893  11.347  0.00  0.00    -0.249 OA
BRANCH  15  17
ATOM     17  O   UNK A  1       28.869 -28.881  13.376  0.00  0.00    -0.479 OA
ATOM     18  H   UNK A  1       28.431 -29.505  14.006  0.00  0.00    +0.295 HD
ENDBRANCH  15  17
ENDBRANCH  11  15
ENDBRANCH  10  11
ENDBRANCH   9  10
ENDBRANCH   7   9
ENDBRANCH   4   5
BRANCH   4  19
ATOM     19  C   UNK A  1       24.970 -30.902   5.699  0.00  0.00    +0.235 C 
ATOM     20  N   GLY A  2       24.504 -32.186   5.759  0.00  0.00    -0.303 N 
ATOM     21  H   GLY A  2       24.972 -32.811   5.112  0.00  0.00    +0.149 HD
ATOM     22  O   UNK A  1       25.967 -30.687   4.998  0.00  0.00    -0.274 OA
BRANCH  20  23
ATOM     23  CA  GLY A  2       23.294 -32.697   6.395  0.00  0.00    +0.224 C 
BRANCH  23  24
ATOM     24  C   GLY A  2       23.506 -33.317   7.755  0.00  0.00    +0.322 C 
ATOM     25  O   GLY A  2       24.596 -33.414   8.360  0.00  0.00    -0.249 OA
BRANCH  24  26
ATOM     26  OXT GLY A  2       22.373 -33.634   8.394  0.00  0.00    -0.479 OA
ATOM     27  HXT GLY A  2       22.610 -34.418   8.933  0.00  0.00    +0.295 HD
ENDBRANCH  24  26
ENDBRANCH  23  24
ENDBRANCH  20  23
ENDBRANCH   4  19
ENDBRANCH   3   4
ENDBRANCH   2   3
ENDBRANCH   1   2
BRANCH   1  28
ATOM     28  C   UNK A  1       25.099 -24.080   6.524  0.00  0.00    +0.112 C 
BRANCH  28  29
ATOM     29  C   UNK A  1       25.377 -22.600   6.094  0.00  0.00    +0.169 C 
BRANCH  29  31
ATOM     30  C   UNK A  1       27.045 -20.665   6.258  0.00  0.00    +0.214 C 
ATOM     31  N   UNK A  1       26.570 -21.898   6.662  0.00  0.00    -0.303 N 
ATOM     32  H   UNK A  1       26.944 -22.270   7.525  0.00  0.00    +0.149 HD
ATOM     33  O   UNK A  1       26.504 -19.990   5.391  0.00  0.00    -0.276 OA
BRANCH  30  34
ATOM     34  C   UNK A  1       28.245 -20.101   7.015  0.00  0.00    +0.098 C 
BRANCH  34  35
ATOM     35  C   UNK A  1       29.201 -21.177   7.612  0.00  0.00    +0.039 C 
BRANCH  35  36
ATOM     36  C   UNK A  1       30.472 -20.670   8.357  0.00  0.00    +0.161 C 
BRANCH  36  37
ATOM     37  N   UNK A  1       31.482 -20.140   7.399  0.00  0.00    -0.318 NA
ATOM     38  H   UNK A  1       31.405 -19.129   7.307  0.00  0.00    +0.119 HD
ATOM     39  H   UNK A  1       32.423 -20.341   7.747  0.00  0.00    +0.119 HD
ENDBRANCH  36  37
BRANCH  36  40
ATOM     40  C   UNK A  1       31.136 -21.787   9.182  0.00  0.00    +0.322 C 
ATOM     41  O   UNK A  1       30.778 -22.141  10.305  0.00  0.00    -0.249 OA
BRANCH  40  42
ATOM     42  O   UNK A  1       32.121 -22.450   8.530  0.00  0.00    -0.479 OA
ATOM     43  H   UNK A  1       32.202 -22.190   7.595  0.00  0.00    +0.295 HD
ENDBRANCH  40  42
ENDBRANCH  36  40
ENDBRANCH  35  36
ENDBRANCH  34  35
ENDBRANCH  30  34
ENDBRANCH  29  31
BRANCH  29  44
ATOM     44  C   UNK A  1       24.056 -21.759   6.172  0.00  0.00    +0.235 C 
ATOM     45  N   GLY A  2       23.674 -21.092   5.020  0.00  0.00    -0.303 N 
ATOM     46  H   GLY A  2       24.135 -21.268   4.143  0.00  0.00    +0.149 HD
ATOM     47  O   UNK A  1       23.308 -21.797   7.151  0.00  0.00    -0.274 OA
BRANCH  45  48
ATOM     48  CA  GLY A  2       22.472 -20.255   4.981  0.00  0.00    +0.224 C 
BRANCH  48  49
ATOM     49  C   GLY A  2       22.650 -18.893   4.327  0.00  0.00    +0.322 C 
ATOM     50  O   GLY A  2       21.866 -17.952   4.392  0.00  0.00    -0.249 OA
BRANCH  49  51
ATOM     51  OXT GLY A  2       23.892 -18.691   3.835  0.00  0.00    -0.479 OA
ATOM     52  HXT GLY A  2       24.023 -19.449   3.223  0.00  0.00    +0.295 HD
ENDBRANCH  49  51
ENDBRANCH  48  49
ENDBRANCH  45  48
ENDBRANCH  29  44
ENDBRANCH  28  29
ENDBRANCH   1  28
TORSDOF 27
ENDMDL
MODEL 6
REMARK VINA RESULT:      -7.4      1.732      3.833
REMARK  Name = *****
REMARK                            x       y       z     vdW  Elec       q    Type
REMARK                         _______ _______ _______ _____ _____    ______ ____
ROOT
ATOM      1  S   UNK A  1       23.977 -25.763   6.219  0.00  0.00    -0.091 S 
ENDROOT
BRANCH   1   2
ATOM      2  S   UNK A  1       25.149 -24.186   5.544  0.00  0.00    -0.091 S 
BRANCH   2   3
ATOM      3  C   UNK A  1       25.989 -23.426   7.032  0.00  0.00    +0.112 C 
BRANCH   3   4
ATOM      4  C   UNK A  1       26.191 -21.888   7.021  0.00  0.00    +0.169 C 
BRANCH   4   5
ATOM      5  N   UNK A  1       27.616 -21.457   7.333  0.00  0.00    -0.303 N 
ATOM      6  H   UNK A  1       27.914 -21.604   8.293  0.00  0.00    +0.149 HD
ATOM      7  C   UNK A  1       28.289 -20.481   6.616  0.00  0.00    +0.214 C 
ATOM      8  O   UNK A  1       27.745 -19.914   5.668  0.00  0.00    -0.276 OA
BRANCH   7   9
ATOM      9  C   UNK A  1       29.714 -20.050   7.084  0.00  0.00    +0.098 C 
BRANCH   9  10
ATOM     10  C   UNK A  1       29.935 -18.736   7.912  0.00  0.00    +0.039 C 
BRANCH  10  11
ATOM     11  C   UNK A  1       31.314 -18.512   8.574  0.00  0.00    +0.161 C 
BRANCH  11  12
ATOM     12  N   UNK A  1       31.877 -19.783   9.097  0.00  0.00    -0.318 NA
ATOM     13  H   UNK A  1       32.807 -19.922   8.691  0.00  0.00    +0.119 HD
ATOM     14  H   UNK A  1       31.363 -20.554   8.639  0.00  0.00    +0.119 HD
ENDBRANCH  11  12
BRANCH  11  15
ATOM     15  C   UNK A  1       31.281 -17.516   9.772  0.00  0.00    +0.322 C 
ATOM     16  O   UNK A  1       30.453 -16.628   9.946  0.00  0.00    -0.249 OA
BRANCH  15  17
ATOM     17  O   UNK A  1       32.339 -17.697  10.612  0.00  0.00    -0.479 OA
ATOM     18  H   UNK A  1       32.568 -18.658  10.556  0.00  0.00    +0.295 HD
ENDBRANCH  15  17
ENDBRANCH  11  15
ENDBRANCH  10  11
ENDBRANCH   9  10
ENDBRANCH   7   9
ENDBRANCH   4   5
BRANCH   4  19
ATOM     19  C   UNK A  1       25.227 -21.288   8.080  0.00  0.00    +0.235 C 
ATOM     20  N   GLY A  2       23.914 -21.038   7.788  0.00  0.00    -0.303 N 
ATOM     21  H   GLY A  2       23.377 -20.738   8.594  0.00  0.00    +0.149 HD
ATOM     22  O   UNK A  1       25.628 -20.992   9.212  0.00  0.00    -0.274 OA
BRANCH  20  23
ATOM     23  CA  GLY A  2       23.153 -21.394   6.596  0.00  0.00    +0.224 C 
BRANCH  23  24
ATOM     24  C   GLY A  2       23.136 -20.339   5.515  0.00  0.00    +0.322 C 
ATOM     25  O   GLY A  2       22.487 -19.271   5.538  0.00  0.00    -0.249 OA
BRANCH  24  26
ATOM     26  OXT GLY A  2       24.033 -20.540   4.542  0.00  0.00    -0.479 OA
ATOM     27  HXT GLY A  2       24.174 -21.510   4.539  0.00  0.00    +0.295 HD
ENDBRANCH  24  26
ENDBRANCH  23  24
ENDBRANCH  20  23
ENDBRANCH   4  19
ENDBRANCH   3   4
ENDBRANCH   2   3
ENDBRANCH   1   2
BRANCH   1  28
ATOM     28  C   UNK A  1       24.658 -27.204   5.255  0.00  0.00    +0.112 C 
BRANCH  28  29
ATOM     29  C   UNK A  1       25.254 -28.415   6.048  0.00  0.00    +0.169 C 
BRANCH  29  31
ATOM     30  C   UNK A  1       24.704 -30.899   5.763  0.00  0.00    +0.214 C 
ATOM     31  N   UNK A  1       24.411 -29.636   6.240  0.00  0.00    -0.303 N 
ATOM     32  H   UNK A  1       23.667 -29.568   6.922  0.00  0.00    +0.149 HD
ATOM     33  O   UNK A  1       25.727 -31.159   5.143  0.00  0.00    -0.276 OA
BRANCH  30  34
ATOM     34  C   UNK A  1       23.733 -32.021   6.125  0.00  0.00    +0.098 C 
BRANCH  34  35
ATOM     35  C   UNK A  1       24.321 -33.106   7.076  0.00  0.00    +0.039 C 
BRANCH  35  36
ATOM     36  C   UNK A  1       24.642 -32.677   8.539  0.00  0.00    +0.161 C 
BRANCH  36  37
ATOM     37  N   UNK A  1       24.076 -31.334   8.843  0.00  0.00    -0.318 NA
ATOM     38  H   UNK A  1       24.303 -31.046   9.792  0.00  0.00    +0.119 HD
ATOM     39  H   UNK A  1       24.481 -30.640   8.211  0.00  0.00    +0.119 HD
ENDBRANCH  36  37
BRANCH  36  40
ATOM     40  C   UNK A  1       26.159 -32.627   8.801  0.00  0.00    +0.322 C 
ATOM     41  O   UNK A  1       27.006 -32.290   7.974  0.00  0.00    -0.249 OA
BRANCH  40  42
ATOM     42  O   UNK A  1       26.511 -32.895  10.081  0.00  0.00    -0.479 OA
ATOM     43  H   UNK A  1       27.107 -33.662  10.160  0.00  0.00    +0.295 HD
ENDBRANCH  40  42
ENDBRANCH  36  40
ENDBRANCH  35  36
ENDBRANCH  34  35
ENDBRANCH  30  34
ENDBRANCH  29  31
BRANCH  29  44
ATOM     44  C   UNK A  1       25.939 -27.911   7.366  0.00  0.00    +0.235 C 
ATOM     45  N   GLY A  2       26.021 -28.816   8.411  0.00  0.00    -0.303 N 
ATOM     46  H   GLY A  2       25.795 -29.787   8.273  0.00  0.00    +0.149 HD
ATOM     47  O   UNK A  1       26.510 -26.821   7.436  0.00  0.00    -0.274 OA
BRANCH  45  48
ATOM     48  CA  GLY A  2       26.616 -28.450   9.699  0.00  0.00    +0.224 C 
BRANCH  48  49
ATOM     49  C   GLY A  2       26.779 -29.593  10.688  0.00  0.00    +0.322 C 
ATOM     50  O   GLY A  2       25.877 -30.146  11.309  0.00  0.00    -0.249 OA
BRANCH  49  51
ATOM     51  OXT GLY A  2       28.011 -30.148  10.670  0.00  0.00    -0.479 OA
ATOM     52  HXT GLY A  2       28.285 -30.068   9.730  0.00  0.00    +0.295 HD
ENDBRANCH  49  51
ENDBRANCH  48  49
ENDBRANCH  45  48
ENDBRANCH  29  44
ENDBRANCH  28  29
ENDBRANCH   1  28
TORSDOF 27
ENDMDL
MODEL 7
REMARK VINA RESULT:      -7.4      1.988      2.376
REMARK  Name = *****
REMARK                            x       y       z     vdW  Elec       q    Type
REMARK                         _______ _______ _______ _____ _____    ______ ____
ROOT
ATOM      1  S   UNK A  1       24.400 -27.801   5.924  0.00  0.00    -0.091 S 
ENDROOT
BRANCH   1   2
ATOM      2  S   UNK A  1       25.842 -26.305   5.917  0.00  0.00    -0.091 S 
BRANCH   2   3
ATOM      3  C   UNK A  1       25.144 -24.849   4.972  0.00  0.00    +0.112 C 
BRANCH   3   4
ATOM      4  C   UNK A  1       24.963 -23.520   5.752  0.00  0.00    +0.169 C 
BRANCH   4   5
ATOM      5  N   UNK A  1       26.103 -23.215   6.712  0.00  0.00    -0.303 N 
ATOM      6  H   UNK A  1       26.124 -23.781   7.554  0.00  0.00    +0.149 HD
ATOM      7  C   UNK A  1       26.735 -21.984   6.773  0.00  0.00    +0.214 C 
ATOM      8  O   UNK A  1       26.392 -21.066   6.027  0.00  0.00    -0.276 OA
BRANCH   7   9
ATOM      9  C   UNK A  1       27.828 -21.752   7.863  0.00  0.00    +0.098 C 
BRANCH   9  10
ATOM     10  C   UNK A  1       28.831 -20.550   7.766  0.00  0.00    +0.039 C 
BRANCH  10  11
ATOM     11  C   UNK A  1       30.281 -20.766   8.257  0.00  0.00    +0.161 C 
BRANCH  11  12
ATOM     12  N   UNK A  1       30.357 -21.860   9.258  0.00  0.00    -0.318 NA
ATOM     13  H   UNK A  1       29.748 -22.626   8.956  0.00  0.00    +0.119 HD
ATOM     14  H   UNK A  1       29.842 -21.541  10.096  0.00  0.00    +0.119 HD
ENDBRANCH  11  12
BRANCH  11  15
ATOM     15  C   UNK A  1       30.913 -19.508   8.925  0.00  0.00    +0.322 C 
ATOM     16  O   UNK A  1       32.101 -19.352   9.185  0.00  0.00    -0.249 OA
BRANCH  15  17
ATOM     17  O   UNK A  1       29.969 -18.584   9.259  0.00  0.00    -0.479 OA
ATOM     18  H   UNK A  1       29.231 -18.703   8.611  0.00  0.00    +0.295 HD
ENDBRANCH  15  17
ENDBRANCH  11  15
ENDBRANCH  10  11
ENDBRANCH   9  10
ENDBRANCH   7   9
ENDBRANCH   4   5
BRANCH   4  19
ATOM     19  C   UNK A  1       23.633 -23.629   6.546  0.00  0.00    +0.235 C 
ATOM     20  N   GLY A  2       22.961 -22.515   6.966  0.00  0.00    -0.303 N 
ATOM     21  H   GLY A  2       22.063 -22.726   7.387  0.00  0.00    +0.149 HD
ATOM     22  O   UNK A  1       23.159 -24.731   6.847  0.00  0.00    -0.274 OA
BRANCH  20  23
ATOM     23  CA  GLY A  2       23.217 -21.113   6.654  0.00  0.00    +0.224 C 
BRANCH  23  24
ATOM     24  C   GLY A  2       22.691 -20.655   5.314  0.00  0.00    +0.322 C 
ATOM     25  O   GLY A  2       23.225 -19.813   4.561  0.00  0.00    -0.249 OA
BRANCH  24  26
ATOM     26  OXT GLY A  2       21.642 -21.359   4.869  0.00  0.00    -0.479 OA
ATOM     27  HXT GLY A  2       22.005 -22.255   4.704  0.00  0.00    +0.295 HD
ENDBRANCH  24  26
ENDBRANCH  23  24
ENDBRANCH  20  23
ENDBRANCH   4  19
ENDBRANCH   3   4
ENDBRANCH   2   3
ENDBRANCH   1   2
BRANCH   1  28
ATOM     28  C   UNK A  1       25.374 -29.292   5.380  0.00  0.00    +0.112 C 
BRANCH  28  29
ATOM     29  C   UNK A  1       25.389 -30.551   6.311  0.00  0.00    +0.169 C 
BRANCH  29  31
ATOM     30  C   UNK A  1       25.805 -30.083   8.793  0.00  0.00    +0.214 C 
ATOM     31  N   UNK A  1       26.225 -30.519   7.552  0.00  0.00    -0.303 N 
ATOM     32  H   UNK A  1       27.102 -31.022   7.518  0.00  0.00    +0.149 HD
ATOM     33  O   UNK A  1       24.665 -29.696   9.016  0.00  0.00    -0.276 OA
BRANCH  30  34
ATOM     34  C   UNK A  1       26.804 -30.191   9.943  0.00  0.00    +0.098 C 
BRANCH  34  35
ATOM     35  C   UNK A  1       27.105 -28.847  10.671  0.00  0.00    +0.039 C 
BRANCH  35  36
ATOM     36  C   UNK A  1       26.523 -28.665  12.104  0.00  0.00    +0.161 C 
BRANCH  36  37
ATOM     37  N   UNK A  1       25.034 -28.660  12.084  0.00  0.00    -0.318 NA
ATOM     38  H   UNK A  1       24.667 -27.718  12.199  0.00  0.00    +0.119 HD
ATOM     39  H   UNK A  1       24.702 -29.005  11.180  0.00  0.00    +0.119 HD
ENDBRANCH  36  37
BRANCH  36  40
ATOM     40  C   UNK A  1       26.995 -27.351  12.753  0.00  0.00    +0.322 C 
ATOM     41  O   UNK A  1       26.530 -26.238  12.509  0.00  0.00    -0.249 OA
BRANCH  40  42
ATOM     42  O   UNK A  1       27.930 -27.512  13.719  0.00  0.00    -0.479 OA
ATOM     43  H   UNK A  1       28.666 -28.089  13.446  0.00  0.00    +0.295 HD
ENDBRANCH  40  42
ENDBRANCH  36  40
ENDBRANCH  35  36
ENDBRANCH  34  35
ENDBRANCH  30  34
ENDBRANCH  29  31
BRANCH  29  44
ATOM     44  C   UNK A  1       25.584 -31.851   5.455  0.00  0.00    +0.235 C 
ATOM     45  N   GLY A  2       25.193 -31.787   4.128  0.00  0.00    -0.303 N 
ATOM     46  H   GLY A  2       24.947 -30.908   3.703  0.00  0.00    +0.149 HD
ATOM     47  O   UNK A  1       26.184 -32.838   5.884  0.00  0.00    -0.274 OA
BRANCH  45  48
ATOM     48  CA  GLY A  2       25.302 -32.946   3.239  0.00  0.00    +0.224 C 
BRANCH  48  49
ATOM     49  C   GLY A  2       26.562 -32.997   2.390  0.00  0.00    +0.322 C 
ATOM     50  O   GLY A  2       27.673 -33.359   2.766  0.00  0.00    -0.249 OA
BRANCH  49  51
ATOM     51  OXT GLY A  2       26.328 -32.833   1.069  0.00  0.00    -0.479 OA
ATOM     52  HXT GLY A  2       25.350 -32.893   1.001  0.00  0.00    +0.295 HD
ENDBRANCH  49  51
ENDBRANCH  48  49
ENDBRANCH  45  48
ENDBRANCH  29  44
ENDBRANCH  28  29
ENDBRANCH   1  28
TORSDOF 27
ENDMDL
MODEL 8
REMARK VINA RESULT:      -7.4      2.022      2.345
REMARK  Name = *****
REMARK                            x       y       z     vdW  Elec       q    Type
REMARK                         _______ _______ _______ _____ _____    ______ ____
ROOT
ATOM      1  S   UNK A  1       24.983 -26.619   5.676  0.00  0.00    -0.091 S 
ENDROOT
BRANCH   1   2
ATOM      2  S   UNK A  1       25.778 -24.818   6.341  0.00  0.00    -0.091 S 
BRANCH   2   3
ATOM      3  C   UNK A  1       24.383 -23.574   6.412  0.00  0.00    +0.112 C 
BRANCH   3   4
ATOM      4  C   UNK A  1       24.726 -22.105   6.051  0.00  0.00    +0.169 C 
BRANCH   4   5
ATOM      5  N   UNK A  1       26.177 -21.733   6.316  0.00  0.00    -0.303 N 
ATOM      6  H   UNK A  1       26.561 -22.078   7.190  0.00  0.00    +0.149 HD
ATOM      7  C   UNK A  1       26.787 -20.618   5.765  0.00  0.00    +0.214 C 
ATOM      8  O   UNK A  1       26.162 -19.868   5.014  0.00  0.00    -0.276 OA
BRANCH   7   9
ATOM      9  C   UNK A  1       28.253 -20.280   6.181  0.00  0.00    +0.098 C 
BRANCH   9  10
ATOM     10  C   UNK A  1       28.644 -20.079   7.687  0.00  0.00    +0.039 C 
BRANCH  10  11
ATOM     11  C   UNK A  1       29.928 -19.279   8.009  0.00  0.00    +0.161 C 
BRANCH  11  12
ATOM     12  N   UNK A  1       30.468 -18.611   6.798  0.00  0.00    -0.318 NA
ATOM     13  H   UNK A  1       30.757 -19.329   6.127  0.00  0.00    +0.119 HD
ATOM     14  H   UNK A  1       31.391 -18.221   7.052  0.00  0.00    +0.119 HD
ENDBRANCH  11  12
BRANCH  11  15
ATOM     15  C   UNK A  1       31.083 -20.151   8.587  0.00  0.00    +0.322 C 
ATOM     16  O   UNK A  1       32.059 -19.735   9.203  0.00  0.00    -0.249 OA
BRANCH  15  17
ATOM     17  O   UNK A  1       30.926 -21.469   8.279  0.00  0.00    -0.479 OA
ATOM     18  H   UNK A  1       30.030 -21.722   8.614  0.00  0.00    +0.295 HD
ENDBRANCH  15  17
ENDBRANCH  11  15
ENDBRANCH  10  11
ENDBRANCH   9  10
ENDBRANCH   7   9
ENDBRANCH   4   5
BRANCH   4  19
ATOM     19  C   UNK A  1       23.796 -21.193   6.897  0.00  0.00    +0.235 C 
ATOM     20  N   GLY A  2       22.890 -20.356   6.308  0.00  0.00    -0.303 N 
ATOM     21  H   GLY A  2       22.284 -19.891   6.975  0.00  0.00    +0.149 HD
ATOM     22  O   UNK A  1       23.871 -21.178   8.132  0.00  0.00    -0.274 OA
BRANCH  20  23
ATOM     23  CA  GLY A  2       22.506 -20.257   4.904  0.00  0.00    +0.224 C 
BRANCH  23  24
ATOM     24  C   GLY A  2       22.756 -18.909   4.272  0.00  0.00    +0.322 C 
ATOM     25  O   GLY A  2       22.079 -17.874   4.450  0.00  0.00    -0.249 OA
BRANCH  24  26
ATOM     26  OXT GLY A  2       23.908 -18.829   3.594  0.00  0.00    -0.479 OA
ATOM     27  HXT GLY A  2       23.971 -17.885   3.335  0.00  0.00    +0.295 HD
ENDBRANCH  24  26
ENDBRANCH  23  24
ENDBRANCH  20  23
ENDBRANCH   4  19
ENDBRANCH   3   4
ENDBRANCH   2   3
ENDBRANCH   1   2
BRANCH   1  28
ATOM     28  C   UNK A  1       25.600 -27.821   6.958  0.00  0.00    +0.112 C 
BRANCH  28  29
ATOM     29  C   UNK A  1       24.624 -28.938   7.461  0.00  0.00    +0.169 C 
BRANCH  29  31
ATOM     30  C   UNK A  1       25.717 -30.075   9.477  0.00  0.00    +0.214 C 
ATOM     31  N   UNK A  1       24.690 -29.358   8.896  0.00  0.00    -0.303 N 
ATOM     32  H   UNK A  1       24.022 -28.930   9.523  0.00  0.00    +0.149 HD
ATOM     33  O   UNK A  1       26.721 -30.422   8.866  0.00  0.00    -0.276 OA
BRANCH  30  34
ATOM     34  C   UNK A  1       25.613 -30.349  10.976  0.00  0.00    +0.098 C 
BRANCH  34  35
ATOM     35  C   UNK A  1       25.523 -29.071  11.864  0.00  0.00    +0.039 C 
BRANCH  35  36
ATOM     36  C   UNK A  1       26.631 -27.993  11.681  0.00  0.00    +0.161 C 
BRANCH  36  37
ATOM     37  N   UNK A  1       27.985 -28.567  11.917  0.00  0.00    -0.318 NA
ATOM     38  H   UNK A  1       28.283 -29.142  11.131  0.00  0.00    +0.119 HD
ATOM     39  H   UNK A  1       28.667 -27.810  12.012  0.00  0.00    +0.119 HD
ENDBRANCH  36  37
BRANCH  36  40
ATOM     40  C   UNK A  1       26.441 -26.806  12.643  0.00  0.00    +0.322 C 
ATOM     41  O   UNK A  1       25.453 -26.627  13.354  0.00  0.00    -0.249 OA
BRANCH  40  42
ATOM     42  O   UNK A  1       27.515 -25.986  12.734  0.00  0.00    -0.479 OA
ATOM     43  H   UNK A  1       28.273 -26.397  13.188  0.00  0.00    +0.295 HD
ENDBRANCH  40  42
ENDBRANCH  36  40
ENDBRANCH  35  36
ENDBRANCH  34  35
ENDBRANCH  30  34
ENDBRANCH  29  31
BRANCH  29  44
ATOM     44  C   UNK A  1       24.614 -30.139   6.454  0.00  0.00    +0.235 C 
ATOM     45  N   GLY A  2       25.841 -30.541   5.952  0.00  0.00    -0.303 N 
ATOM     46  H   GLY A  2       26.700 -30.182   6.337  0.00  0.00    +0.149 HD
ATOM     47  O   UNK A  1       23.598 -30.797   6.222  0.00  0.00    -0.274 OA
BRANCH  45  48
ATOM     48  CA  GLY A  2       25.954 -31.634   4.984  0.00  0.00    +0.224 C 
BRANCH  48  49
ATOM     49  C   GLY A  2       26.910 -32.751   5.373  0.00  0.00    +0.322 C 
ATOM     50  O   GLY A  2       27.411 -33.572   4.611  0.00  0.00    -0.249 OA
BRANCH  49  51
ATOM     51  OXT GLY A  2       27.382 -32.640   6.634  0.00  0.00    -0.479 OA
ATOM     52  HXT GLY A  2       27.971 -33.421   6.728  0.00  0.00    +0.295 HD
ENDBRANCH  49  51
ENDBRANCH  48  49
ENDBRANCH  45  48
ENDBRANCH  29  44
ENDBRANCH  28  29
ENDBRANCH   1  28
TORSDOF 27
ENDMDL
MODEL 9
REMARK VINA RESULT:      -7.3      2.226     10.726
REMARK  Name = *****
REMARK                            x       y       z     vdW  Elec       q    Type
REMARK                         _______ _______ _______ _____ _____    ______ ____
ROOT
ATOM      1  S   UNK A  1       25.258 -24.853   5.996  0.00  0.00    -0.091 S 
ENDROOT
BRANCH   1   2
ATOM      2  S   UNK A  1       25.980 -26.666   6.711  0.00  0.00    -0.091 S 
BRANCH   2   3
ATOM      3  C   UNK A  1       24.668 -27.961   6.399  0.00  0.00    +0.112 C 
BRANCH   3   4
ATOM      4  C   UNK A  1       24.795 -29.299   7.175  0.00  0.00    +0.169 C 
BRANCH   4   5
ATOM      5  N   UNK A  1       25.930 -29.313   8.187  0.00  0.00    -0.303 N 
ATOM      6  H   UNK A  1       26.843 -29.553   7.812  0.00  0.00    +0.149 HD
ATOM      7  C   UNK A  1       25.737 -29.529   9.542  0.00  0.00    +0.214 C 
ATOM      8  O   UNK A  1       24.606 -29.718   9.991  0.00  0.00    -0.276 OA
BRANCH   7   9
ATOM      9  C   UNK A  1       26.985 -29.618  10.475  0.00  0.00    +0.098 C 
BRANCH   9  10
ATOM     10  C   UNK A  1       27.455 -28.385  11.324  0.00  0.00    +0.039 C 
BRANCH  10  11
ATOM     11  C   UNK A  1       26.878 -28.213  12.748  0.00  0.00    +0.161 C 
BRANCH  11  12
ATOM     12  N   UNK A  1       25.622 -28.986  12.920  0.00  0.00    -0.318 NA
ATOM     13  H   UNK A  1       25.803 -29.966  12.684  0.00  0.00    +0.119 HD
ATOM     14  H   UNK A  1       24.996 -28.725  12.140  0.00  0.00    +0.119 HD
ENDBRANCH  11  12
BRANCH  11  15
ATOM     15  C   UNK A  1       26.545 -26.737  13.117  0.00  0.00    +0.322 C 
ATOM     16  O   UNK A  1       25.421 -26.264  13.246  0.00  0.00    -0.249 OA
BRANCH  15  17
ATOM     17  O   UNK A  1       27.670 -25.977  13.231  0.00  0.00    -0.479 OA
ATOM     18  H   UNK A  1       28.132 -26.296  14.046  0.00  0.00    +0.295 HD
ENDBRANCH  15  17
ENDBRANCH  11  15
ENDBRANCH  10  11
ENDBRANCH   9  10
ENDBRANCH   7   9
ENDBRANCH   4   5
BRANCH   4  19
ATOM     19  C   UNK A  1       25.024 -30.420   6.126  0.00  0.00    +0.235 C 
ATOM     20  N   GLY A  2       24.571 -31.694   6.333  0.00  0.00    -0.303 N 
ATOM     21  H   GLY A  2       24.703 -32.299   5.531  0.00  0.00    +0.149 HD
ATOM     22  O   UNK A  1       25.651 -30.198   5.083  0.00  0.00    -0.274 OA
BRANCH  20  23
ATOM     23  CA  GLY A  2       23.711 -32.203   7.396  0.00  0.00    +0.224 C 
BRANCH  23  24
ATOM     24  C   GLY A  2       24.443 -32.827   8.560  0.00  0.00    +0.322 C 
ATOM     25  O   GLY A  2       25.585 -33.334   8.526  0.00  0.00    -0.249 OA
BRANCH  24  26
ATOM     26  OXT GLY A  2       23.838 -32.655   9.742  0.00  0.00    -0.479 OA
ATOM     27  HXT GLY A  2       24.463 -32.101  10.255  0.00  0.00    +0.295 HD
ENDBRANCH  24  26
ENDBRANCH  23  24
ENDBRANCH  20  23
ENDBRANCH   4  19
ENDBRANCH   3   4
ENDBRANCH   2   3
ENDBRANCH   1   2
BRANCH   1  28
ATOM     28  C   UNK A  1       26.207 -23.618   7.018  0.00  0.00    +0.112 C 
BRANCH  28  29
ATOM     29  C   UNK A  1       25.549 -22.227   7.304  0.00  0.00    +0.169 C 
BRANCH  29  31
ATOM     30  C   UNK A  1       23.417 -20.920   6.757  0.00  0.00    +0.214 C 
ATOM     31  N   UNK A  1       24.466 -21.741   6.393  0.00  0.00    -0.303 N 
ATOM     32  H   UNK A  1       24.615 -21.878   5.402  0.00  0.00    +0.149 HD
ATOM     33  O   UNK A  1       23.281 -20.468   7.887  0.00  0.00    -0.276 OA
BRANCH  30  34
ATOM     34  C   UNK A  1       22.452 -20.494   5.652  0.00  0.00    +0.098 C 
BRANCH  34  35
ATOM     35  C   UNK A  1       22.994 -19.377   4.711  0.00  0.00    +0.039 C 
BRANCH  35  36
ATOM     36  C   UNK A  1       23.883 -19.822   3.511  0.00  0.00    +0.161 C 
BRANCH  36  37
ATOM     37  N   UNK A  1       23.916 -21.305   3.387  0.00  0.00    -0.318 NA
ATOM     38  H   UNK A  1       23.027 -21.666   3.050  0.00  0.00    +0.119 HD
ATOM     39  H   UNK A  1       24.630 -21.576   2.706  0.00  0.00    +0.119 HD
ENDBRANCH  36  37
BRANCH  36  40
ATOM     40  C   UNK A  1       25.332 -19.321   3.654  0.00  0.00    +0.322 C 
ATOM     41  O   UNK A  1       25.718 -18.190   3.363  0.00  0.00    -0.249 OA
BRANCH  40  42
ATOM     42  O   UNK A  1       26.173 -20.210   4.235  0.00  0.00    -0.479 OA
ATOM     43  H   UNK A  1       25.742 -20.752   4.921  0.00  0.00    +0.295 HD
ENDBRANCH  40  42
ENDBRANCH  36  40
ENDBRANCH  35  36
ENDBRANCH  34  35
ENDBRANCH  30  34
ENDBRANCH  29  31
BRANCH  29  44
ATOM     44  C   UNK A  1       26.657 -21.155   7.589  0.00  0.00    +0.235 C 
ATOM     45  N   GLY A  2       27.611 -20.968   6.601  0.00  0.00    -0.303 N 
ATOM     46  H   GLY A  2       27.501 -21.384   5.691  0.00  0.00    +0.149 HD
ATOM     47  O   UNK A  1       26.615 -20.407   8.567  0.00  0.00    -0.274 OA
BRANCH  45  48
ATOM     48  CA  GLY A  2       28.709 -20.013   6.767  0.00  0.00    +0.224 C 
BRANCH  48  49
ATOM     49  C   GLY A  2       29.723 -20.369   7.843  0.00  0.00    +0.322 C 
ATOM     50  O   GLY A  2       30.001 -19.690   8.827  0.00  0.00    -0.249 OA
BRANCH  49  51
ATOM     51  OXT GLY A  2       30.156 -21.647   7.774  0.00  0.00    -0.479 OA
ATOM     52  HXT GLY A  2       30.257 -21.803   6.809  0.00  0.00    +0.295 HD
ENDBRANCH  49  51
ENDBRANCH  48  49
ENDBRANCH  45  48
ENDBRANCH  29  44
ENDBRANCH  28  29
ENDBRANCH   1  28
TORSDOF 27
ENDMDL
