MODEL 1
REMARK VINA RESULT:       2.5      0.000      0.000
REMARK  Name = *****
REMARK                            x       y       z     vdW  Elec       q    Type
REMARK                         _______ _______ _______ _____ _____    ______ ____
ROOT
ATOM      1  C   LIG    1       23.459 -17.320   4.424  0.00  0.00    +0.064 A 
ATOM      2  C   LIG    1       23.247 -15.963   4.777  0.00  0.00    +0.057 A 
ATOM      3  I   LIG    1       21.721 -15.327   6.218  0.00  0.00    -0.040 I 
ATOM      4  C   LIG    1       24.030 -14.918   4.230  0.00  0.00    +0.053 A 
ATOM      5  C   LIG    1       25.150 -15.261   3.457  0.00  0.00    +0.036 A 
ATOM      6  I   LIG    1       26.475 -13.785   2.752  0.00  0.00    -0.042 I 
ATOM      7  C   LIG    1       25.426 -16.592   3.144  0.00  0.00    +0.032 A 
ATOM      8  C   LIG    1       24.577 -17.614   3.607  0.00  0.00    +0.037 A 
ATOM      9  I   LIG    1       25.189 -19.574   3.128  0.00  0.00    -0.042 I 
ENDROOT
BRANCH   1  12
ATOM     10  C   LIG    1       21.080 -18.027   2.917  0.00  0.00    +0.110 C 
ATOM     11  C   LIG    1       21.602 -18.902   4.039  0.00  0.00    +0.217 C 
ATOM     12  N   LIG    1       22.572 -18.352   4.882  0.00  0.00    -0.269 N 
ATOM     13  O   LIG    1       21.153 -20.039   4.205  0.00  0.00    -0.276 OA
BRANCH  12  14
ATOM     14  C   LIG    1       22.971 -19.101   6.106  0.00  0.00    +0.128 C 
BRANCH  14  15
ATOM     15  C   LIG    1       23.400 -20.569   5.899  0.00  0.00    +0.112 C 
ATOM     16  C   LIG    1       22.758 -21.544   6.889  0.00  0.00    +0.021 C 
BRANCH  15  17
ATOM     17  C   LIG    1       24.884 -20.771   6.141  0.00  0.00    +0.309 C 
ATOM     18  O   LIG    1       25.489 -20.297   7.061  0.00  0.00    -0.251 OA
BRANCH  17  19
ATOM     19  O   LIG    1       25.478 -21.567   5.218  0.00  0.00    -0.480 OA
ATOM     20  H   LIG    1       26.263 -22.000   5.542  0.00  0.00    +0.295 HD
ENDBRANCH  17  19
ENDBRANCH  15  17
ENDBRANCH  14  15
ENDBRANCH  12  14
ENDBRANCH   1  12
BRANCH   4  21
ATOM     21  N   LIG    1       23.813 -13.583   4.640  0.00  0.00    -0.356 N 
ATOM     22  H   LIG    1       23.424 -13.552   5.582  0.00  0.00    +0.142 HD
ATOM     23  H   LIG    1       23.251 -13.055   3.979  0.00  0.00    +0.142 HD
ENDBRANCH   4  21
TORSDOF 6
ENDMDL
MODEL 2
REMARK VINA RESULT:       3.3      1.959      2.652
REMARK  Name = *****
REMARK                            x       y       z     vdW  Elec       q    Type
REMARK                         _______ _______ _______ _____ _____    ______ ____
ROOT
ATOM      1  C   LIG    1       25.390 -18.147   4.210  0.00  0.00    +0.064 A 
ATOM      2  C   LIG    1       24.606 -16.996   3.939  0.00  0.00    +0.057 A 
ATOM      3  I   LIG    1       22.417 -16.984   4.065  0.00  0.00    -0.040 I 
ATOM      4  C   LIG    1       25.195 -15.759   3.582  0.00  0.00    +0.053 A 
ATOM      5  C   LIG    1       26.590 -15.635   3.674  0.00  0.00    +0.036 A 
ATOM      6  I   LIG    1       27.539 -13.786   3.339  0.00  0.00    -0.042 I 
ATOM      7  C   LIG    1       27.388 -16.731   4.002  0.00  0.00    +0.032 A 
ATOM      8  C   LIG    1       26.796 -17.982   4.250  0.00  0.00    +0.037 A 
ATOM      9  I   LIG    1       28.132 -19.508   4.828  0.00  0.00    -0.042 I 
ENDROOT
BRANCH   1  12
ATOM     10  C   LIG    1       24.559 -19.824   1.991  0.00  0.00    +0.110 C 
ATOM     11  C   LIG    1       24.643 -20.359   3.407  0.00  0.00    +0.217 C 
ATOM     12  N   LIG    1       24.777 -19.425   4.438  0.00  0.00    -0.269 N 
ATOM     13  O   LIG    1       24.562 -21.571   3.622  0.00  0.00    -0.276 OA
BRANCH  12  14
ATOM     14  C   LIG    1       24.669 -19.889   5.849  0.00  0.00    +0.128 C 
BRANCH  14  15
ATOM     15  C   LIG    1       23.245 -20.203   6.357  0.00  0.00    +0.112 C 
ATOM     16  C   LIG    1       23.122 -21.569   7.036  0.00  0.00    +0.021 C 
BRANCH  15  17
ATOM     17  C   LIG    1       22.241 -20.297   5.224  0.00  0.00    +0.309 C 
ATOM     18  O   LIG    1       21.769 -19.351   4.659  0.00  0.00    -0.251 OA
BRANCH  17  19
ATOM     19  O   LIG    1       21.930 -21.572   4.884  0.00  0.00    -0.480 OA
ATOM     20  H   LIG    1       21.018 -21.795   5.053  0.00  0.00    +0.295 HD
ENDBRANCH  17  19
ENDBRANCH  15  17
ENDBRANCH  14  15
ENDBRANCH  12  14
ENDBRANCH   1  12
BRANCH   4  21
ATOM     21  N   LIG    1       24.379 -14.627   3.360  0.00  0.00    -0.356 N 
ATOM     22  H   LIG    1       24.863 -13.772   3.633  0.00  0.00    +0.142 HD
ATOM     23  H   LIG    1       23.468 -14.706   3.802  0.00  0.00    +0.142 HD
ENDBRANCH   4  21
TORSDOF 6
ENDMDL
MODEL 3
REMARK VINA RESULT:       5.2      4.076      6.433
REMARK  Name = *****
REMARK                            x       y       z     vdW  Elec       q    Type
REMARK                         _______ _______ _______ _____ _____    ______ ____
ROOT
ATOM      1  C   LIG    1       24.200 -15.240   4.328  0.00  0.00    +0.064 A 
ATOM      2  C   LIG    1       24.939 -16.301   3.744  0.00  0.00    +0.057 A 
ATOM      3  I   LIG    1       26.951 -16.039   2.911  0.00  0.00    -0.040 I 
ATOM      4  C   LIG    1       24.427 -17.619   3.678  0.00  0.00    +0.053 A 
ATOM      5  C   LIG    1       23.237 -17.905   4.363  0.00  0.00    +0.036 A 
ATOM      6  I   LIG    1       22.494 -19.872   4.472  0.00  0.00    -0.042 I 
ATOM      7  C   LIG    1       22.517 -16.897   5.005  0.00  0.00    +0.032 A 
ATOM      8  C   LIG    1       22.984 -15.570   4.972  0.00  0.00    +0.037 A 
ATOM      9  I   LIG    1       21.832 -14.187   6.071  0.00  0.00    -0.042 I 
ENDROOT
BRANCH   1  12
ATOM     10  C   LIG    1       23.480 -13.499   2.119  0.00  0.00    +0.110 C 
ATOM     11  C   LIG    1       24.110 -12.959   3.387  0.00  0.00    +0.217 C 
ATOM     12  N   LIG    1       24.675 -13.885   4.268  0.00  0.00    -0.269 N 
ATOM     13  O   LIG    1       24.143 -11.744   3.599  0.00  0.00    -0.276 OA
BRANCH  12  14
ATOM     14  C   LIG    1       25.471 -13.389   5.424  0.00  0.00    +0.128 C 
BRANCH  14  15
ATOM     15  C   LIG    1       26.964 -13.783   5.444  0.00  0.00    +0.112 C 
ATOM     16  C   LIG    1       27.578 -13.794   6.846  0.00  0.00    +0.021 C 
BRANCH  15  17
ATOM     17  C   LIG    1       27.829 -12.780   4.705  0.00  0.00    +0.309 C 
ATOM     18  O   LIG    1       27.779 -12.586   3.523  0.00  0.00    -0.251 OA
BRANCH  17  19
ATOM     19  O   LIG    1       28.671 -12.093   5.515  0.00  0.00    -0.480 OA
ATOM     20  H   LIG    1       28.227 -11.657   6.238  0.00  0.00    +0.295 HD
ENDBRANCH  17  19
ENDBRANCH  15  17
ENDBRANCH  14  15
ENDBRANCH  12  14
ENDBRANCH   1  12
BRANCH   4  21
ATOM     21  N   LIG    1       25.213 -18.654   3.124  0.00  0.00    -0.356 N 
ATOM     22  H   LIG    1       26.177 -18.348   2.993  0.00  0.00    +0.142 HD
ATOM     23  H   LIG    1       24.816 -19.037   2.271  0.00  0.00    +0.142 HD
ENDBRANCH   4  21
TORSDOF 6
ENDMDL
