MODEL 1
REMARK VINA RESULT:      -5.8      0.000      0.000
REMARK  Name = *****
REMARK                            x       y       z     vdW  Elec       q    Type
REMARK                         _______ _______ _______ _____ _____    ______ ____
ROOT
ATOM      1  C   LIG    1       26.361 -13.870   4.692  0.00  0.00    -0.017 A 
ATOM      2  C   LIG    1       26.470 -15.187   4.173  0.00  0.00    +0.039 A 
ATOM      3  C   LIG    1       25.310 -15.859   3.697  0.00  0.00    +0.043 A 
ATOM      4  C   LIG    1       24.086 -15.176   3.686  0.00  0.00    +0.013 A 
ATOM      5  C   LIG    1       24.012 -13.838   4.076  0.00  0.00    +0.001 A 
ATOM      6  C   LIG    1       25.135 -13.194   4.589  0.00  0.00    +0.006 A 
ENDROOT
BRANCH   2   7
ATOM      7  N   LIG    1       27.756 -15.780   4.140  0.00  0.00    -0.357 N 
ATOM      8  H   LIG    1       27.965 -16.099   3.183  0.00  0.00    +0.142 HD
ATOM      9  H   LIG    1       28.496 -15.136   4.418  0.00  0.00    +0.142 HD
ENDBRANCH   2   7
BRANCH   3  10
ATOM     10  C   LIG    1       25.328 -17.322   3.349  0.00  0.00    +0.195 C 
ATOM     11  O   LIG    1       26.207 -17.746   2.599  0.00  0.00    -0.287 OA
BRANCH  10  12
ATOM     12  C   LIG    1       24.352 -18.315   3.905  0.00  0.00    +0.022 A 
ATOM     13  C   LIG    1       23.005 -18.001   4.120  0.00  0.00    +0.012 A 
ATOM     14  C   LIG    1       22.118 -18.978   4.595  0.00  0.00    +0.001 A 
ATOM     15  C   LIG    1       22.560 -20.279   4.837  0.00  0.00    +0.000 A 
ATOM     16  C   LIG    1       23.894 -20.607   4.609  0.00  0.00    +0.001 A 
ATOM     17  C   LIG    1       24.787 -19.630   4.147  0.00  0.00    +0.012 A 
ENDBRANCH  10  12
ENDBRANCH   3  10
BRANCH   1  18
ATOM     18  C   LIG    1       27.524 -13.163   5.374  0.00  0.00    +0.132 C 
BRANCH  18  22
ATOM     19  N   LIG    1       29.427 -11.691   4.872  0.00  0.00    -0.329 N 
ATOM     20  H   LIG    1       29.440 -11.373   5.830  0.00  0.00    +0.145 HD
ATOM     21  H   LIG    1       30.143 -11.360   4.239  0.00  0.00    +0.145 HD
ATOM     22  C   LIG    1       28.572 -12.640   4.401  0.00  0.00    +0.215 C 
ATOM     23  O   LIG    1       28.683 -13.015   3.224  0.00  0.00    -0.276 OA
ENDBRANCH  18  22
ENDBRANCH   1  18
TORSDOF 5
ENDMDL
MODEL 2
REMARK VINA RESULT:      -5.7      2.446      6.198
REMARK  Name = *****
REMARK                            x       y       z     vdW  Elec       q    Type
REMARK                         _______ _______ _______ _____ _____    ______ ____
ROOT
ATOM      1  C   LIG    1       24.035 -18.426   3.832  0.00  0.00    -0.017 A 
ATOM      2  C   LIG    1       24.604 -17.132   3.693  0.00  0.00    +0.039 A 
ATOM      3  C   LIG    1       23.839 -15.981   4.030  0.00  0.00    +0.043 A 
ATOM      4  C   LIG    1       22.554 -16.154   4.563  0.00  0.00    +0.013 A 
ATOM      5  C   LIG    1       22.052 -17.430   4.820  0.00  0.00    +0.001 A 
ATOM      6  C   LIG    1       22.779 -18.557   4.444  0.00  0.00    +0.006 A 
ENDROOT
BRANCH   2   7
ATOM      7  N   LIG    1       25.938 -17.044   3.226  0.00  0.00    -0.357 N 
ATOM      8  H   LIG    1       26.318 -16.110   3.439  0.00  0.00    +0.142 HD
ATOM      9  H   LIG    1       26.555 -17.732   3.658  0.00  0.00    +0.142 HD
ENDBRANCH   2   7
BRANCH   3  10
ATOM     10  C   LIG    1       24.305 -14.593   3.692  0.00  0.00    +0.195 C 
ATOM     11  O   LIG    1       23.486 -13.772   3.280  0.00  0.00    -0.287 OA
BRANCH  10  12
ATOM     12  C   LIG    1       25.720 -14.130   3.872  0.00  0.00    +0.022 A 
ATOM     13  C   LIG    1       26.595 -13.963   2.793  0.00  0.00    +0.012 A 
ATOM     14  C   LIG    1       27.895 -13.480   3.005  0.00  0.00    +0.001 A 
ATOM     15  C   LIG    1       28.324 -13.138   4.287  0.00  0.00    +0.000 A 
ATOM     16  C   LIG    1       27.455 -13.283   5.366  0.00  0.00    +0.001 A 
ATOM     17  C   LIG    1       26.160 -13.778   5.160  0.00  0.00    +0.012 A 
ENDBRANCH  10  12
ENDBRANCH   3  10
BRANCH   1  18
ATOM     18  C   LIG    1       24.732 -19.682   3.328  0.00  0.00    +0.132 C 
BRANCH  18  22
ATOM     19  N   LIG    1       26.655 -20.133   4.791  0.00  0.00    -0.329 N 
ATOM     20  H   LIG    1       27.138 -19.331   4.412  0.00  0.00    +0.145 HD
ATOM     21  H   LIG    1       27.089 -20.652   5.542  0.00  0.00    +0.145 HD
ATOM     22  C   LIG    1       25.393 -20.496   4.433  0.00  0.00    +0.215 C 
ATOM     23  O   LIG    1       24.860 -21.456   5.008  0.00  0.00    -0.276 OA
ENDBRANCH  18  22
ENDBRANCH   1  18
TORSDOF 5
ENDMDL
MODEL 3
REMARK VINA RESULT:      -5.7      2.363      3.539
REMARK  Name = *****
REMARK                            x       y       z     vdW  Elec       q    Type
REMARK                         _______ _______ _______ _____ _____    ______ ____
ROOT
ATOM      1  C   LIG    1       24.276 -15.685   4.045  0.00  0.00    -0.017 A 
ATOM      2  C   LIG    1       24.849 -16.953   3.762  0.00  0.00    +0.039 A 
ATOM      3  C   LIG    1       24.092 -18.137   3.980  0.00  0.00    +0.043 A 
ATOM      4  C   LIG    1       22.761 -18.022   4.407  0.00  0.00    +0.013 A 
ATOM      5  C   LIG    1       22.165 -16.769   4.557  0.00  0.00    +0.001 A 
ATOM      6  C   LIG    1       22.918 -15.610   4.393  0.00  0.00    +0.006 A 
ENDROOT
BRANCH   2   7
ATOM      7  N   LIG    1       26.171 -16.982   3.255  0.00  0.00    -0.357 N 
ATOM      8  H   LIG    1       26.473 -16.025   3.020  0.00  0.00    +0.142 HD
ATOM      9  H   LIG    1       26.843 -17.361   3.922  0.00  0.00    +0.142 HD
ENDBRANCH   2   7
BRANCH   3  10
ATOM     10  C   LIG    1       24.718 -19.502   3.914  0.00  0.00    +0.195 C 
ATOM     11  O   LIG    1       24.626 -20.151   2.872  0.00  0.00    -0.287 OA
BRANCH  10  12
ATOM     12  C   LIG    1       25.497 -20.109   5.042  0.00  0.00    +0.022 A 
ATOM     13  C   LIG    1       24.917 -20.989   5.963  0.00  0.00    +0.012 A 
ATOM     14  C   LIG    1       25.698 -21.571   6.973  0.00  0.00    +0.001 A 
ATOM     15  C   LIG    1       27.064 -21.300   7.058  0.00  0.00    +0.000 A 
ATOM     16  C   LIG    1       27.655 -20.441   6.136  0.00  0.00    +0.001 A 
ATOM     17  C   LIG    1       26.875 -19.846   5.134  0.00  0.00    +0.012 A 
ENDBRANCH  10  12
ENDBRANCH   3  10
BRANCH   1  18
ATOM     18  C   LIG    1       25.085 -14.396   4.000  0.00  0.00    +0.132 C 
BRANCH  18  22
ATOM     19  N   LIG    1       24.257 -13.005   2.151  0.00  0.00    -0.329 N 
ATOM     20  H   LIG    1       23.474 -12.711   2.716  0.00  0.00    +0.145 HD
ATOM     21  H   LIG    1       24.372 -12.603   1.230  0.00  0.00    +0.145 HD
ATOM     22  C   LIG    1       25.246 -13.827   2.596  0.00  0.00    +0.215 C 
ATOM     23  O   LIG    1       26.203 -14.073   1.848  0.00  0.00    -0.276 OA
ENDBRANCH  18  22
ENDBRANCH   1  18
TORSDOF 5
ENDMDL
MODEL 4
REMARK VINA RESULT:      -5.6      2.897      6.888
REMARK  Name = *****
REMARK                            x       y       z     vdW  Elec       q    Type
REMARK                         _______ _______ _______ _____ _____    ______ ____
ROOT
ATOM      1  C   LIG    1       23.433 -18.365   4.266  0.00  0.00    -0.017 A 
ATOM      2  C   LIG    1       23.470 -16.948   4.196  0.00  0.00    +0.039 A 
ATOM      3  C   LIG    1       24.641 -16.292   3.726  0.00  0.00    +0.043 A 
ATOM      4  C   LIG    1       25.718 -17.068   3.272  0.00  0.00    +0.013 A 
ATOM      5  C   LIG    1       25.624 -18.459   3.222  0.00  0.00    +0.001 A 
ATOM      6  C   LIG    1       24.498 -19.104   3.728  0.00  0.00    +0.006 A 
ENDROOT
BRANCH   2   7
ATOM      7  N   LIG    1       22.312 -16.236   4.594  0.00  0.00    -0.357 N 
ATOM      8  H   LIG    1       22.474 -15.224   4.485  0.00  0.00    +0.142 HD
ATOM      9  H   LIG    1       21.490 -16.476   4.041  0.00  0.00    +0.142 HD
ENDBRANCH   2   7
BRANCH   3  10
ATOM     10  C   LIG    1       24.818 -14.803   3.843  0.00  0.00    +0.195 C 
ATOM     11  O   LIG    1       23.819 -14.083   3.856  0.00  0.00    -0.287 OA
BRANCH  10  12
ATOM     12  C   LIG    1       26.153 -14.139   3.990  0.00  0.00    +0.022 A 
ATOM     13  C   LIG    1       26.991 -13.892   2.896  0.00  0.00    +0.012 A 
ATOM     14  C   LIG    1       28.211 -13.223   3.076  0.00  0.00    +0.001 A 
ATOM     15  C   LIG    1       28.593 -12.774   4.340  0.00  0.00    +0.000 A 
ATOM     16  C   LIG    1       27.759 -12.998   5.432  0.00  0.00    +0.001 A 
ATOM     17  C   LIG    1       26.546 -13.679   5.259  0.00  0.00    +0.012 A 
ENDBRANCH  10  12
ENDBRANCH   3  10
BRANCH   1  18
ATOM     18  C   LIG    1       22.283 -19.120   4.918  0.00  0.00    +0.132 C 
BRANCH  18  22
ATOM     19  N   LIG    1       22.362 -21.571   5.084  0.00  0.00    -0.329 N 
ATOM     20  H   LIG    1       21.887 -21.652   4.197  0.00  0.00    +0.145 HD
ATOM     21  H   LIG    1       22.674 -22.414   5.548  0.00  0.00    +0.145 HD
ATOM     22  C   LIG    1       22.721 -20.384   5.646  0.00  0.00    +0.215 C 
ATOM     23  O   LIG    1       23.366 -20.394   6.705  0.00  0.00    -0.276 OA
ENDBRANCH  18  22
ENDBRANCH   1  18
TORSDOF 5
ENDMDL
MODEL 5
REMARK VINA RESULT:      -5.6      1.877      2.585
REMARK  Name = *****
REMARK                            x       y       z     vdW  Elec       q    Type
REMARK                         _______ _______ _______ _____ _____    ______ ____
ROOT
ATOM      1  C   LIG    1       25.676 -15.579   3.666  0.00  0.00    -0.017 A 
ATOM      2  C   LIG    1       25.204 -16.909   3.510  0.00  0.00    +0.039 A 
ATOM      3  C   LIG    1       23.872 -17.237   3.887  0.00  0.00    +0.043 A 
ATOM      4  C   LIG    1       23.026 -16.217   4.343  0.00  0.00    +0.013 A 
ATOM      5  C   LIG    1       23.456 -14.890   4.370  0.00  0.00    +0.001 A 
ATOM      6  C   LIG    1       24.774 -14.574   4.049  0.00  0.00    +0.006 A 
ENDROOT
BRANCH   2   7
ATOM      7  N   LIG    1       26.094 -17.866   2.964  0.00  0.00    -0.357 N 
ATOM      8  H   LIG    1       26.443 -18.481   3.714  0.00  0.00    +0.142 HD
ATOM      9  H   LIG    1       25.654 -18.460   2.261  0.00  0.00    +0.142 HD
ENDBRANCH   2   7
BRANCH   3  10
ATOM     10  C   LIG    1       23.396 -18.662   3.954  0.00  0.00    +0.195 C 
ATOM     11  O   LIG    1       22.615 -19.071   3.095  0.00  0.00    -0.287 OA
BRANCH  10  12
ATOM     12  C   LIG    1       23.855 -19.638   4.995  0.00  0.00    +0.022 A 
ATOM     13  C   LIG    1       25.175 -20.099   5.058  0.00  0.00    +0.012 A 
ATOM     14  C   LIG    1       25.571 -20.974   6.081  0.00  0.00    +0.001 A 
ATOM     15  C   LIG    1       24.662 -21.378   7.059  0.00  0.00    +0.000 A 
ATOM     16  C   LIG    1       23.351 -20.910   7.017  0.00  0.00    +0.001 A 
ATOM     17  C   LIG    1       22.948 -20.047   5.989  0.00  0.00    +0.012 A 
ENDBRANCH  10  12
ENDBRANCH   3  10
BRANCH   1  18
ATOM     18  C   LIG    1       27.133 -15.200   3.447  0.00  0.00    +0.132 C 
BRANCH  18  22
ATOM     19  N   LIG    1       28.301 -13.038   3.395  0.00  0.00    -0.329 N 
ATOM     20  H   LIG    1       28.563 -13.196   2.433  0.00  0.00    +0.145 HD
ATOM     21  H   LIG    1       28.544 -12.156   3.827  0.00  0.00    +0.145 HD
ATOM     22  C   LIG    1       27.530 -13.893   4.121  0.00  0.00    +0.215 C 
ATOM     23  O   LIG    1       27.203 -13.573   5.274  0.00  0.00    -0.276 OA
ENDBRANCH  18  22
ENDBRANCH   1  18
TORSDOF 5
ENDMDL
MODEL 6
REMARK VINA RESULT:      -5.1      2.678      3.553
REMARK  Name = *****
REMARK                            x       y       z     vdW  Elec       q    Type
REMARK                         _______ _______ _______ _____ _____    ______ ____
ROOT
ATOM      1  C   LIG    1       24.509 -15.069   3.933  0.00  0.00    -0.017 A 
ATOM      2  C   LIG    1       24.011 -16.392   4.077  0.00  0.00    +0.039 A 
ATOM      3  C   LIG    1       24.836 -17.500   3.738  0.00  0.00    +0.043 A 
ATOM      4  C   LIG    1       26.157 -17.263   3.331  0.00  0.00    +0.013 A 
ATOM      5  C   LIG    1       26.679 -15.969   3.318  0.00  0.00    +0.001 A 
ATOM      6  C   LIG    1       25.860 -14.880   3.602  0.00  0.00    +0.006 A 
ENDROOT
BRANCH   2   7
ATOM      7  N   LIG    1       22.694 -16.552   4.573  0.00  0.00    -0.357 N 
ATOM      8  H   LIG    1       22.658 -16.257   5.559  0.00  0.00    +0.142 HD
ATOM      9  H   LIG    1       22.009 -15.997   4.061  0.00  0.00    +0.142 HD
ENDBRANCH   2   7
BRANCH   3  10
ATOM     10  C   LIG    1       24.291 -18.898   3.656  0.00  0.00    +0.195 C 
ATOM     11  O   LIG    1       23.847 -19.304   2.582  0.00  0.00    -0.287 OA
BRANCH  10  12
ATOM     12  C   LIG    1       24.296 -19.856   4.809  0.00  0.00    +0.022 A 
ATOM     13  C   LIG    1       25.468 -20.464   5.272  0.00  0.00    +0.012 A 
ATOM     14  C   LIG    1       25.431 -21.315   6.387  0.00  0.00    +0.001 A 
ATOM     15  C   LIG    1       24.232 -21.547   7.062  0.00  0.00    +0.000 A 
ATOM     16  C   LIG    1       23.063 -20.932   6.621  0.00  0.00    +0.001 A 
ATOM     17  C   LIG    1       23.094 -20.092   5.499  0.00  0.00    +0.012 A 
ENDBRANCH  10  12
ENDBRANCH   3  10
BRANCH   1  18
ATOM     18  C   LIG    1       23.626 -13.843   4.111  0.00  0.00    +0.132 C 
BRANCH  18  22
ATOM     19  N   LIG    1       24.142 -13.143   1.812  0.00  0.00    -0.329 N 
ATOM     20  H   LIG    1       24.091 -14.103   1.503  0.00  0.00    +0.145 HD
ATOM     21  H   LIG    1       24.296 -12.418   1.124  0.00  0.00    +0.145 HD
ATOM     22  C   LIG    1       23.897 -12.745   3.090  0.00  0.00    +0.215 C 
ATOM     23  O   LIG    1       23.915 -11.534   3.354  0.00  0.00    -0.276 OA
ENDBRANCH  18  22
ENDBRANCH   1  18
TORSDOF 5
ENDMDL
MODEL 7
REMARK VINA RESULT:      -4.8      2.870      6.659
REMARK  Name = *****
REMARK                            x       y       z     vdW  Elec       q    Type
REMARK                         _______ _______ _______ _____ _____    ______ ____
ROOT
ATOM      1  C   LIG    1       23.739 -18.186   4.006  0.00  0.00    -0.017 A 
ATOM      2  C   LIG    1       24.101 -16.813   4.023  0.00  0.00    +0.039 A 
ATOM      3  C   LIG    1       25.426 -16.426   3.679  0.00  0.00    +0.043 A 
ATOM      4  C   LIG    1       26.333 -17.409   3.259  0.00  0.00    +0.013 A 
ATOM      5  C   LIG    1       25.931 -18.739   3.119  0.00  0.00    +0.001 A 
ATOM      6  C   LIG    1       24.651 -19.128   3.503  0.00  0.00    +0.006 A 
ENDROOT
BRANCH   2   7
ATOM      7  N   LIG    1       23.105 -15.871   4.378  0.00  0.00    -0.357 N 
ATOM      8  H   LIG    1       23.158 -15.677   5.389  0.00  0.00    +0.142 HD
ATOM      9  H   LIG    1       23.208 -14.983   3.889  0.00  0.00    +0.142 HD
ENDBRANCH   2   7
BRANCH   3  10
ATOM     10  C   LIG    1       25.924 -15.024   3.896  0.00  0.00    +0.195 C 
ATOM     11  O   LIG    1       27.047 -14.856   4.372  0.00  0.00    -0.287 OA
BRANCH  10  12
ATOM     12  C   LIG    1       25.140 -13.802   3.522  0.00  0.00    +0.022 A 
ATOM     13  C   LIG    1       24.417 -13.059   4.462  0.00  0.00    +0.012 A 
ATOM     14  C   LIG    1       23.740 -11.894   4.074  0.00  0.00    +0.001 A 
ATOM     15  C   LIG    1       23.795 -11.449   2.753  0.00  0.00    +0.000 A 
ATOM     16  C   LIG    1       24.527 -12.170   1.813  0.00  0.00    +0.001 A 
ATOM     17  C   LIG    1       25.194 -13.342   2.194  0.00  0.00    +0.012 A 
ENDBRANCH  10  12
ENDBRANCH   3  10
BRANCH   1  18
ATOM     18  C   LIG    1       22.398 -18.682   4.527  0.00  0.00    +0.132 C 
BRANCH  18  22
ATOM     19  N   LIG    1       21.879 -21.067   4.813  0.00  0.00    -0.329 N 
ATOM     20  H   LIG    1       21.423 -21.082   3.912  0.00  0.00    +0.145 HD
ATOM     21  H   LIG    1       21.965 -21.933   5.329  0.00  0.00    +0.145 HD
ATOM     22  C   LIG    1       22.498 -19.972   5.332  0.00  0.00    +0.215 C 
ATOM     23  O   LIG    1       23.091 -20.076   6.415  0.00  0.00    -0.276 OA
ENDBRANCH  18  22
ENDBRANCH   1  18
TORSDOF 5
ENDMDL
MODEL 8
REMARK VINA RESULT:      -4.7      3.432      6.912
REMARK  Name = *****
REMARK                            x       y       z     vdW  Elec       q    Type
REMARK                         _______ _______ _______ _____ _____    ______ ____
ROOT
ATOM      1  C   LIG    1       23.799 -19.591   4.155  0.00  0.00    -0.017 A 
ATOM      2  C   LIG    1       23.317 -18.259   4.257  0.00  0.00    +0.039 A 
ATOM      3  C   LIG    1       24.151 -17.172   3.874  0.00  0.00    +0.043 A 
ATOM      4  C   LIG    1       25.416 -17.446   3.334  0.00  0.00    +0.013 A 
ATOM      5  C   LIG    1       25.831 -18.760   3.115  0.00  0.00    +0.001 A 
ATOM      6  C   LIG    1       25.038 -19.824   3.535  0.00  0.00    +0.006 A 
ENDROOT
BRANCH   2   7
ATOM      7  N   LIG    1       21.998 -18.069   4.734  0.00  0.00    -0.357 N 
ATOM      8  H   LIG    1       22.022 -17.843   5.739  0.00  0.00    +0.142 HD
ATOM      9  H   LIG    1       21.511 -17.308   4.260  0.00  0.00    +0.142 HD
ENDBRANCH   2   7
BRANCH   3  10
ATOM     10  C   LIG    1       23.781 -15.746   4.170  0.00  0.00    +0.195 C 
ATOM     11  O   LIG    1       22.794 -15.518   4.870  0.00  0.00    -0.287 OA
BRANCH  10  12
ATOM     12  C   LIG    1       24.578 -14.569   3.692  0.00  0.00    +0.022 A 
ATOM     13  C   LIG    1       25.960 -14.472   3.890  0.00  0.00    +0.012 A 
ATOM     14  C   LIG    1       26.672 -13.375   3.382  0.00  0.00    +0.001 A 
ATOM     15  C   LIG    1       26.017 -12.381   2.654  0.00  0.00    +0.000 A 
ATOM     16  C   LIG    1       24.645 -12.477   2.435  0.00  0.00    +0.001 A 
ATOM     17  C   LIG    1       23.928 -13.565   2.954  0.00  0.00    +0.012 A 
ENDBRANCH  10  12
ENDBRANCH   3  10
BRANCH   1  18
ATOM     18  C   LIG    1       23.029 -20.781   4.707  0.00  0.00    +0.132 C 
BRANCH  18  22
ATOM     19  N   LIG    1       24.877 -21.572   6.122  0.00  0.00    -0.329 N 
ATOM     20  H   LIG    1       25.527 -21.425   5.363  0.00  0.00    +0.145 HD
ATOM     21  H   LIG    1       25.235 -21.873   7.019  0.00  0.00    +0.145 HD
ATOM     22  C   LIG    1       23.551 -21.273   6.051  0.00  0.00    +0.215 C 
ATOM     23  O   LIG    1       22.849 -21.423   7.062  0.00  0.00    -0.276 OA
ENDBRANCH  18  22
ENDBRANCH   1  18
TORSDOF 5
ENDMDL
MODEL 9
REMARK VINA RESULT:      -4.2      1.795      2.282
REMARK  Name = *****
REMARK                            x       y       z     vdW  Elec       q    Type
REMARK                         _______ _______ _______ _____ _____    ______ ____
ROOT
ATOM      1  C   LIG    1       26.456 -13.465   3.072  0.00  0.00    -0.017 A 
ATOM      2  C   LIG    1       25.728 -14.517   3.687  0.00  0.00    +0.039 A 
ATOM      3  C   LIG    1       24.307 -14.532   3.616  0.00  0.00    +0.043 A 
ATOM      4  C   LIG    1       23.655 -13.536   2.874  0.00  0.00    +0.013 A 
ATOM      5  C   LIG    1       24.384 -12.581   2.164  0.00  0.00    +0.001 A 
ATOM      6  C   LIG    1       25.771 -12.535   2.274  0.00  0.00    +0.006 A 
ENDROOT
BRANCH   2   7
ATOM      7  N   LIG    1       26.463 -15.532   4.347  0.00  0.00    -0.357 N 
ATOM      8  H   LIG    1       26.853 -16.184   3.652  0.00  0.00    +0.142 HD
ATOM      9  H   LIG    1       27.241 -15.165   4.894  0.00  0.00    +0.142 HD
ENDBRANCH   2   7
BRANCH   3  10
ATOM     10  C   LIG    1       23.482 -15.487   4.432  0.00  0.00    +0.195 C 
ATOM     11  O   LIG    1       22.750 -15.041   5.315  0.00  0.00    -0.287 OA
BRANCH  10  12
ATOM     12  C   LIG    1       23.464 -16.968   4.200  0.00  0.00    +0.022 A 
ATOM     13  C   LIG    1       24.559 -17.655   3.663  0.00  0.00    +0.012 A 
ATOM     14  C   LIG    1       24.514 -19.049   3.511  0.00  0.00    +0.001 A 
ATOM     15  C   LIG    1       23.389 -19.770   3.913  0.00  0.00    +0.000 A 
ATOM     16  C   LIG    1       22.302 -19.099   4.466  0.00  0.00    +0.001 A 
ATOM     17  C   LIG    1       22.337 -17.705   4.607  0.00  0.00    +0.012 A 
ENDBRANCH  10  12
ENDBRANCH   3  10
BRANCH   1  18
ATOM     18  C   LIG    1       27.957 -13.295   3.258  0.00  0.00    +0.132 C 
BRANCH  18  22
ATOM     19  N   LIG    1       29.386 -11.871   4.661  0.00  0.00    -0.329 N 
ATOM     20  H   LIG    1       29.864 -11.531   3.840  0.00  0.00    +0.145 HD
ATOM     21  H   LIG    1       29.629 -11.481   5.562  0.00  0.00    +0.145 HD
ATOM     22  C   LIG    1       28.343 -12.744   4.625  0.00  0.00    +0.215 C 
ATOM     23  O   LIG    1       27.776 -13.046   5.685  0.00  0.00    -0.276 OA
ENDBRANCH  18  22
ENDBRANCH   1  18
TORSDOF 5
ENDMDL
