MODEL 1
REMARK VINA RESULT:      -8.5      0.000      0.000
REMARK  Name = *****
REMARK                            x       y       z     vdW  Elec       q    Type
REMARK                         _______ _______ _______ _____ _____    ______ ____
ROOT
ATOM      1  O   LIG    1       28.357 -20.849   8.158  0.00  0.00    -0.461 OA
ENDROOT
BRANCH   1   6
ATOM      2  N   LIG    1       24.848 -21.915   6.535  0.00  0.00    +0.247 N 
ATOM      3  C   LIG    1       25.151 -22.341   5.089  0.00  0.00    +0.193 C 
ATOM      4  C   LIG    1       25.357 -20.486   6.893  0.00  0.00    +0.070 C 
ATOM      5  C   LIG    1       26.791 -20.298   6.378  0.00  0.00    +0.099 C 
ATOM      6  C   LIG    1       27.786 -21.340   6.923  0.00  0.00    +0.187 C 
ATOM      7  C   LIG    1       27.173 -22.725   7.205  0.00  0.00    +0.099 C 
ATOM      8  C   LIG    1       25.314 -20.452   8.430  0.00  0.00    +0.060 C 
ATOM      9  C   LIG    1       25.485 -21.899   8.883  0.00  0.00    +0.060 C 
ATOM     10  C   LIG    1       25.681 -22.705   7.595  0.00  0.00    +0.070 C 
BRANCH   2  12
ATOM     11  C   LIG    1       22.775 -23.473   6.778  0.00  0.00    +0.063 C 
ATOM     12  C   LIG    1       23.270 -22.023   6.773  0.00  0.00    +0.060 C 
ATOM     13  C   LIG    1       22.480 -21.219   5.728  0.00  0.00    +0.063 C 
ENDBRANCH   2  12
ENDBRANCH   1   6
BRANCH   1  14
ATOM     14  C   LIG    1       29.673 -20.471   8.106  0.00  0.00    +0.317 C 
ATOM     15  O   LIG    1       30.613 -21.232   8.341  0.00  0.00    -0.250 OA
BRANCH  14  16
ATOM     16  C   LIG    1       29.804 -19.025   7.679  0.00  0.00    +0.153 C 
BRANCH  16  17
ATOM     17  C   LIG    1       30.484 -18.185   8.745  0.00  0.00    -0.032 A 
ATOM     18  C   LIG    1       31.800 -17.739   8.544  0.00  0.00    +0.004 A 
ATOM     19  C   LIG    1       32.455 -16.990   9.522  0.00  0.00    +0.000 A 
ATOM     20  C   LIG    1       31.804 -16.673  10.711  0.00  0.00    +0.000 A 
ATOM     21  C   LIG    1       30.493 -17.098  10.920  0.00  0.00    +0.000 A 
ATOM     22  C   LIG    1       29.834 -17.844   9.942  0.00  0.00    +0.004 A 
ENDBRANCH  16  17
BRANCH  16  23
ATOM     23  C   LIG    1       30.500 -18.964   6.310  0.00  0.00    +0.175 C 
BRANCH  23  24
ATOM     24  O   LIG    1       29.750 -18.150   5.412  0.00  0.00    -0.394 OA
ATOM     25  H   LIG    1       28.944 -17.865   5.877  0.00  0.00    +0.209 HD
ENDBRANCH  23  24
ENDBRANCH  16  23
ENDBRANCH  14  16
ENDBRANCH   1  14
TORSDOF 7
ENDMDL
MODEL 2
REMARK VINA RESULT:      -7.8      0.754      1.598
REMARK  Name = *****
REMARK                            x       y       z     vdW  Elec       q    Type
REMARK                         _______ _______ _______ _____ _____    ______ ____
ROOT
ATOM      1  O   LIG    1       28.675 -20.494   7.670  0.00  0.00    -0.461 OA
ENDROOT
BRANCH   1   6
ATOM      2  N   LIG    1       25.111 -22.009   6.627  0.00  0.00    +0.247 N 
ATOM      3  C   LIG    1       25.279 -22.575   5.207  0.00  0.00    +0.193 C 
ATOM      4  C   LIG    1       25.526 -20.514   6.765  0.00  0.00    +0.070 C 
ATOM      5  C   LIG    1       26.866 -20.276   6.055  0.00  0.00    +0.099 C 
ATOM      6  C   LIG    1       28.009 -21.167   6.576  0.00  0.00    +0.187 C 
ATOM      7  C   LIG    1       27.562 -22.554   7.078  0.00  0.00    +0.099 C 
ATOM      8  C   LIG    1       25.661 -20.304   8.283  0.00  0.00    +0.060 C 
ATOM      9  C   LIG    1       26.015 -21.672   8.860  0.00  0.00    +0.060 C 
ATOM     10  C   LIG    1       26.130 -22.604   7.650  0.00  0.00    +0.070 C 
BRANCH   2  12
ATOM     11  C   LIG    1       23.093 -23.643   6.843  0.00  0.00    +0.063 C 
ATOM     12  C   LIG    1       23.588 -22.210   7.073  0.00  0.00    +0.060 C 
ATOM     13  C   LIG    1       22.649 -21.227   6.356  0.00  0.00    +0.063 C 
ENDBRANCH   2  12
ENDBRANCH   1   6
BRANCH   1  14
ATOM     14  C   LIG    1       29.573 -19.520   7.322  0.00  0.00    +0.317 C 
ATOM     15  O   LIG    1       29.329 -18.624   6.511  0.00  0.00    -0.250 OA
BRANCH  14  16
ATOM     16  C   LIG    1       30.864 -19.672   8.097  0.00  0.00    +0.153 C 
BRANCH  16  17
ATOM     17  C   LIG    1       31.100 -18.497   9.030  0.00  0.00    -0.032 A 
ATOM     18  C   LIG    1       32.202 -17.653   8.819  0.00  0.00    +0.004 A 
ATOM     19  C   LIG    1       32.454 -16.584   9.679  0.00  0.00    +0.000 A 
ATOM     20  C   LIG    1       31.609 -16.343  10.759  0.00  0.00    +0.000 A 
ATOM     21  C   LIG    1       30.504 -17.165  10.974  0.00  0.00    +0.000 A 
ATOM     22  C   LIG    1       30.247 -18.232  10.113  0.00  0.00    +0.004 A 
ENDBRANCH  16  17
BRANCH  16  23
ATOM     23  C   LIG    1       30.867 -21.034   8.810  0.00  0.00    +0.175 C 
BRANCH  23  24
ATOM     24  O   LIG    1       32.142 -21.280   9.397  0.00  0.00    -0.394 OA
ATOM     25  H   LIG    1       32.807 -20.817   8.858  0.00  0.00    +0.209 HD
ENDBRANCH  23  24
ENDBRANCH  16  23
ENDBRANCH  14  16
ENDBRANCH   1  14
TORSDOF 7
ENDMDL
MODEL 3
REMARK VINA RESULT:      -7.0      1.103      2.407
REMARK  Name = *****
REMARK                            x       y       z     vdW  Elec       q    Type
REMARK                         _______ _______ _______ _____ _____    ______ ____
ROOT
ATOM      1  O   LIG    1       27.820 -21.671   6.926  0.00  0.00    -0.461 OA
ENDROOT
BRANCH   1   6
ATOM      2  N   LIG    1       23.895 -21.356   6.169  0.00  0.00    +0.247 N 
ATOM      3  C   LIG    1       23.169 -21.984   7.371  0.00  0.00    +0.193 C 
ATOM      4  C   LIG    1       24.939 -22.298   5.498  0.00  0.00    +0.070 C 
ATOM      5  C   LIG    1       25.797 -22.978   6.574  0.00  0.00    +0.099 C 
ATOM      6  C   LIG    1       26.530 -21.988   7.498  0.00  0.00    +0.187 C 
ATOM      7  C   LIG    1       25.783 -20.662   7.738  0.00  0.00    +0.099 C 
ATOM      8  C   LIG    1       25.789 -21.352   4.632  0.00  0.00    +0.060 C 
ATOM      9  C   LIG    1       25.714 -19.988   5.312  0.00  0.00    +0.060 C 
ATOM     10  C   LIG    1       24.876 -20.210   6.574  0.00  0.00    +0.070 C 
BRANCH   2  12
ATOM     11  C   LIG    1       22.386 -19.424   5.287  0.00  0.00    +0.063 C 
ATOM     12  C   LIG    1       22.796 -20.890   5.104  0.00  0.00    +0.060 C 
ATOM     13  C   LIG    1       21.542 -21.778   5.153  0.00  0.00    +0.063 C 
ENDBRANCH   2  12
ENDBRANCH   1   6
BRANCH   1  14
ATOM     14  C   LIG    1       28.687 -20.984   7.735  0.00  0.00    +0.317 C 
ATOM     15  O   LIG    1       29.222 -21.473   8.733  0.00  0.00    -0.250 OA
BRANCH  14  16
ATOM     16  C   LIG    1       28.924 -19.585   7.211  0.00  0.00    +0.153 C 
BRANCH  16  17
ATOM     17  C   LIG    1       29.947 -18.838   8.048  0.00  0.00    -0.032 A 
ATOM     18  C   LIG    1       29.527 -18.122   9.181  0.00  0.00    +0.004 A 
ATOM     19  C   LIG    1       30.445 -17.405   9.950  0.00  0.00    +0.000 A 
ATOM     20  C   LIG    1       31.792 -17.396   9.600  0.00  0.00    +0.000 A 
ATOM     21  C   LIG    1       32.225 -18.112   8.485  0.00  0.00    +0.000 A 
ATOM     22  C   LIG    1       31.311 -18.833   7.716  0.00  0.00    +0.004 A 
ENDBRANCH  16  17
BRANCH  16  23
ATOM     23  C   LIG    1       29.287 -19.660   5.719  0.00  0.00    +0.175 C 
BRANCH  23  24
ATOM     24  O   LIG    1       28.977 -18.428   5.073  0.00  0.00    -0.394 OA
ATOM     25  H   LIG    1       28.685 -18.636   4.168  0.00  0.00    +0.209 HD
ENDBRANCH  23  24
ENDBRANCH  16  23
ENDBRANCH  14  16
ENDBRANCH   1  14
TORSDOF 7
ENDMDL
MODEL 4
REMARK VINA RESULT:      -6.7      4.134      6.280
REMARK  Name = *****
REMARK                            x       y       z     vdW  Elec       q    Type
REMARK                         _______ _______ _______ _____ _____    ______ ____
ROOT
ATOM      1  O   LIG    1       25.555 -24.051   5.703  0.00  0.00    -0.461 OA
ENDROOT
BRANCH   1   6
ATOM      2  N   LIG    1       24.978 -28.019   5.723  0.00  0.00    +0.247 N 
ATOM      3  C   LIG    1       23.734 -28.281   4.858  0.00  0.00    +0.193 C 
ATOM      4  C   LIG    1       24.744 -27.000   6.877  0.00  0.00    +0.070 C 
ATOM      5  C   LIG    1       23.971 -25.783   6.351  0.00  0.00    +0.099 C 
ATOM      6  C   LIG    1       24.669 -25.066   5.179  0.00  0.00    +0.187 C 
ATOM      7  C   LIG    1       25.498 -25.990   4.267  0.00  0.00    +0.099 C 
ATOM      8  C   LIG    1       26.164 -26.604   7.317  0.00  0.00    +0.060 C 
ATOM      9  C   LIG    1       27.046 -26.791   6.086  0.00  0.00    +0.060 C 
ATOM     10  C   LIG    1       26.094 -27.228   4.968  0.00  0.00    +0.070 C 
BRANCH   2  12
ATOM     11  C   LIG    1       25.553 -30.513   5.235  0.00  0.00    +0.063 C 
ATOM     12  C   LIG    1       25.490 -29.418   6.306  0.00  0.00    +0.060 C 
ATOM     13  C   LIG    1       24.618 -29.901   7.476  0.00  0.00    +0.063 C 
ENDBRANCH   2  12
ENDBRANCH   1   6
BRANCH   1  14
ATOM     14  C   LIG    1       25.054 -22.777   5.747  0.00  0.00    +0.317 C 
ATOM     15  O   LIG    1       24.344 -22.291   4.864  0.00  0.00    -0.250 OA
BRANCH  14  16
ATOM     16  C   LIG    1       25.449 -22.083   7.032  0.00  0.00    +0.153 C 
BRANCH  16  17
ATOM     17  C   LIG    1       26.787 -21.377   6.900  0.00  0.00    -0.032 A 
ATOM     18  C   LIG    1       26.956 -20.385   5.920  0.00  0.00    +0.004 A 
ATOM     19  C   LIG    1       28.184 -19.744   5.762  0.00  0.00    +0.000 A 
ATOM     20  C   LIG    1       29.259 -20.081   6.580  0.00  0.00    +0.000 A 
ATOM     21  C   LIG    1       29.103 -21.054   7.565  0.00  0.00    +0.000 A 
ATOM     22  C   LIG    1       27.874 -21.695   7.728  0.00  0.00    +0.004 A 
ENDBRANCH  16  17
BRANCH  16  23
ATOM     23  C   LIG    1       24.306 -21.156   7.478  0.00  0.00    +0.175 C 
BRANCH  23  24
ATOM     24  O   LIG    1       23.112 -21.909   7.678  0.00  0.00    -0.394 OA
ATOM     25  H   LIG    1       23.369 -22.840   7.799  0.00  0.00    +0.209 HD
ENDBRANCH  23  24
ENDBRANCH  16  23
ENDBRANCH  14  16
ENDBRANCH   1  14
TORSDOF 7
ENDMDL
MODEL 5
REMARK VINA RESULT:      -6.7      4.490      7.279
REMARK  Name = *****
REMARK                            x       y       z     vdW  Elec       q    Type
REMARK                         _______ _______ _______ _____ _____    ______ ____
ROOT
ATOM      1  O   LIG    1       25.414 -24.191   5.678  0.00  0.00    -0.461 OA
ENDROOT
BRANCH   1   6
ATOM      2  N   LIG    1       25.048 -28.184   5.662  0.00  0.00    +0.247 N 
ATOM      3  C   LIG    1       23.820 -28.504   4.795  0.00  0.00    +0.193 C 
ATOM      4  C   LIG    1       24.760 -27.189   6.825  0.00  0.00    +0.070 C 
ATOM      5  C   LIG    1       23.924 -26.010   6.309  0.00  0.00    +0.099 C 
ATOM      6  C   LIG    1       24.582 -25.247   5.144  0.00  0.00    +0.187 C 
ATOM      7  C   LIG    1       25.460 -26.118   4.224  0.00  0.00    +0.099 C 
ATOM      8  C   LIG    1       26.157 -26.722   7.269  0.00  0.00    +0.060 C 
ATOM      9  C   LIG    1       27.048 -26.850   6.037  0.00  0.00    +0.060 C 
ATOM     10  C   LIG    1       26.121 -27.328   4.915  0.00  0.00    +0.070 C 
BRANCH   2  12
ATOM     11  C   LIG    1       25.661 -30.669   5.178  0.00  0.00    +0.063 C 
ATOM     12  C   LIG    1       25.633 -29.559   6.234  0.00  0.00    +0.060 C 
ATOM     13  C   LIG    1       24.849 -30.046   7.463  0.00  0.00    +0.063 C 
ENDBRANCH   2  12
ENDBRANCH   1   6
BRANCH   1  14
ATOM     14  C   LIG    1       24.753 -23.129   6.238  0.00  0.00    +0.317 C 
ATOM     15  O   LIG    1       23.727 -23.240   6.911  0.00  0.00    -0.250 OA
BRANCH  14  16
ATOM     16  C   LIG    1       25.479 -21.831   5.956  0.00  0.00    +0.153 C 
BRANCH  16  17
ATOM     17  C   LIG    1       24.559 -20.800   5.327  0.00  0.00    -0.032 A 
ATOM     18  C   LIG    1       24.957 -20.137   4.154  0.00  0.00    +0.004 A 
ATOM     19  C   LIG    1       24.141 -19.166   3.574  0.00  0.00    +0.000 A 
ATOM     20  C   LIG    1       22.917 -18.845   4.155  0.00  0.00    +0.000 A 
ATOM     21  C   LIG    1       22.503 -19.502   5.312  0.00  0.00    +0.000 A 
ATOM     22  C   LIG    1       23.315 -20.477   5.892  0.00  0.00    +0.004 A 
ENDBRANCH  16  17
BRANCH  16  23
ATOM     23  C   LIG    1       26.160 -21.343   7.246  0.00  0.00    +0.175 C 
BRANCH  23  24
ATOM     24  O   LIG    1       26.123 -22.366   8.238  0.00  0.00    -0.394 OA
ATOM     25  H   LIG    1       25.534 -22.062   8.951  0.00  0.00    +0.209 HD
ENDBRANCH  23  24
ENDBRANCH  16  23
ENDBRANCH  14  16
ENDBRANCH   1  14
TORSDOF 7
ENDMDL
MODEL 6
REMARK VINA RESULT:      -6.3      6.997      9.801
REMARK  Name = *****
REMARK                            x       y       z     vdW  Elec       q    Type
REMARK                         _______ _______ _______ _____ _____    ______ ____
ROOT
ATOM      1  O   LIG    1       25.555 -28.891   6.778  0.00  0.00    -0.461 OA
ENDROOT
BRANCH   1   6
ATOM      2  N   LIG    1       24.424 -31.665   9.444  0.00  0.00    +0.247 N 
ATOM      3  C   LIG    1       22.888 -31.708   9.400  0.00  0.00    +0.193 C 
ATOM      4  C   LIG    1       25.010 -30.246   9.711  0.00  0.00    +0.070 C 
ATOM      5  C   LIG    1       24.291 -29.211   8.834  0.00  0.00    +0.099 C 
ATOM      6  C   LIG    1       24.371 -29.515   7.326  0.00  0.00    +0.187 C 
ATOM      7  C   LIG    1       24.424 -31.015   6.977  0.00  0.00    +0.099 C 
ATOM      8  C   LIG    1       26.490 -30.374   9.311  0.00  0.00    +0.060 C 
ATOM      9  C   LIG    1       26.541 -31.480   8.261  0.00  0.00    +0.060 C 
ATOM     10  C   LIG    1       25.085 -31.905   8.049  0.00  0.00    +0.070 C 
BRANCH   2  12
ATOM     11  C   LIG    1       23.917 -33.822  10.814  0.00  0.00    +0.063 C 
ATOM     12  C   LIG    1       24.926 -32.696  10.559  0.00  0.00    +0.060 C 
ATOM     13  C   LIG    1       25.245 -31.990  11.887  0.00  0.00    +0.063 C 
ENDBRANCH   2  12
ENDBRANCH   1   6
BRANCH   1  14
ATOM     14  C   LIG    1       25.702 -27.552   7.030  0.00  0.00    +0.317 C 
ATOM     15  O   LIG    1       26.318 -27.102   7.999  0.00  0.00    -0.250 OA
BRANCH  14  16
ATOM     16  C   LIG    1       25.055 -26.722   5.943  0.00  0.00    +0.153 C 
BRANCH  16  17
ATOM     17  C   LIG    1       24.830 -25.289   6.390  0.00  0.00    -0.032 A 
ATOM     18  C   LIG    1       23.525 -24.773   6.438  0.00  0.00    +0.004 A 
ATOM     19  C   LIG    1       23.296 -23.450   6.819  0.00  0.00    +0.000 A 
ATOM     20  C   LIG    1       24.366 -22.627   7.159  0.00  0.00    +0.000 A 
ATOM     21  C   LIG    1       25.666 -23.128   7.127  0.00  0.00    +0.000 A 
ATOM     22  C   LIG    1       25.898 -24.452   6.750  0.00  0.00    +0.004 A 
ENDBRANCH  16  17
BRANCH  16  23
ATOM     23  C   LIG    1       25.885 -26.842   4.654  0.00  0.00    +0.175 C 
BRANCH  23  24
ATOM     24  O   LIG    1       27.233 -27.185   4.967  0.00  0.00    -0.394 OA
ATOM     25  H   LIG    1       27.698 -27.342   4.127  0.00  0.00    +0.209 HD
ENDBRANCH  23  24
ENDBRANCH  16  23
ENDBRANCH  14  16
ENDBRANCH   1  14
TORSDOF 7
ENDMDL
MODEL 7
REMARK VINA RESULT:      -5.8      2.544      7.139
REMARK  Name = *****
REMARK                            x       y       z     vdW  Elec       q    Type
REMARK                         _______ _______ _______ _____ _____    ______ ____
ROOT
ATOM      1  O   LIG    1       26.083 -22.329   6.451  0.00  0.00    -0.461 OA
ENDROOT
BRANCH   1   6
ATOM      2  N   LIG    1       29.191 -20.223   7.862  0.00  0.00    +0.247 N 
ATOM      3  C   LIG    1       29.781 -21.045   9.021  0.00  0.00    +0.193 C 
ATOM      4  C   LIG    1       27.669 -19.923   8.010  0.00  0.00    +0.070 C 
ATOM      5  C   LIG    1       26.924 -21.196   8.435  0.00  0.00    +0.099 C 
ATOM      6  C   LIG    1       27.114 -22.377   7.464  0.00  0.00    +0.187 C 
ATOM      7  C   LIG    1       28.478 -22.405   6.748  0.00  0.00    +0.099 C 
ATOM      8  C   LIG    1       27.240 -19.477   6.602  0.00  0.00    +0.060 C 
ATOM      9  C   LIG    1       28.207 -20.160   5.639  0.00  0.00    +0.060 C 
ATOM     10  C   LIG    1       29.118 -21.020   6.520  0.00  0.00    +0.070 C 
BRANCH   2  12
ATOM     11  C   LIG    1       31.454 -19.090   7.244  0.00  0.00    +0.063 C 
ATOM     12  C   LIG    1       30.020 -18.862   7.736  0.00  0.00    +0.060 C 
ATOM     13  C   LIG    1       30.057 -18.090   9.066  0.00  0.00    +0.063 C 
ENDBRANCH   2  12
ENDBRANCH   1   6
BRANCH   1  14
ATOM     14  C   LIG    1       24.903 -22.952   6.760  0.00  0.00    +0.317 C 
ATOM     15  O   LIG    1       24.788 -24.173   6.889  0.00  0.00    -0.250 OA
BRANCH  14  16
ATOM     16  C   LIG    1       23.794 -21.942   6.963  0.00  0.00    +0.153 C 
BRANCH  16  17
ATOM     17  C   LIG    1       23.697 -20.975   5.797  0.00  0.00    -0.032 A 
ATOM     18  C   LIG    1       22.730 -19.957   5.818  0.00  0.00    +0.004 A 
ATOM     19  C   LIG    1       22.603 -19.073   4.745  0.00  0.00    +0.000 A 
ATOM     20  C   LIG    1       23.441 -19.193   3.640  0.00  0.00    +0.000 A 
ATOM     21  C   LIG    1       24.414 -20.190   3.610  0.00  0.00    +0.000 A 
ATOM     22  C   LIG    1       24.546 -21.073   4.683  0.00  0.00    +0.004 A 
ENDBRANCH  16  17
BRANCH  16  23
ATOM     23  C   LIG    1       22.482 -22.687   7.256  0.00  0.00    +0.175 C 
BRANCH  23  24
ATOM     24  O   LIG    1       22.217 -23.641   6.231  0.00  0.00    -0.394 OA
ATOM     25  H   LIG    1       22.620 -24.484   6.503  0.00  0.00    +0.209 HD
ENDBRANCH  23  24
ENDBRANCH  16  23
ENDBRANCH  14  16
ENDBRANCH   1  14
TORSDOF 7
ENDMDL
MODEL 8
REMARK VINA RESULT:      -5.7     10.518     12.787
REMARK  Name = *****
REMARK                            x       y       z     vdW  Elec       q    Type
REMARK                         _______ _______ _______ _____ _____    ______ ____
ROOT
ATOM      1  O   LIG    1       23.652 -30.335   8.263  0.00  0.00    -0.461 OA
ENDROOT
BRANCH   1   6
ATOM      2  N   LIG    1       24.925 -31.036  12.000  0.00  0.00    +0.247 N 
ATOM      3  C   LIG    1       23.900 -31.990  12.636  0.00  0.00    +0.193 C 
ATOM      4  C   LIG    1       24.300 -29.733  11.418  0.00  0.00    +0.070 C 
ATOM      5  C   LIG    1       23.043 -30.075  10.605  0.00  0.00    +0.099 C 
ATOM      6  C   LIG    1       23.299 -31.070   9.457  0.00  0.00    +0.187 C 
ATOM      7  C   LIG    1       24.421 -32.089   9.732  0.00  0.00    +0.099 C 
ATOM      8  C   LIG    1       25.404 -29.165  10.510  0.00  0.00    +0.060 C 
ATOM      9  C   LIG    1       26.229 -30.367  10.059  0.00  0.00    +0.060 C 
ATOM     10  C   LIG    1       25.536 -31.587  10.673  0.00  0.00    +0.070 C 
BRANCH   2  12
ATOM     11  C   LIG    1       26.274 -31.833  14.082  0.00  0.00    +0.063 C 
ATOM     12  C   LIG    1       26.033 -30.682  13.098  0.00  0.00    +0.060 C 
ATOM     13  C   LIG    1       25.672 -29.410  13.883  0.00  0.00    +0.063 C 
ENDBRANCH   2  12
ENDBRANCH   1   6
BRANCH   1  14
ATOM     14  C   LIG    1       23.943 -31.088   7.156  0.00  0.00    +0.317 C 
ATOM     15  O   LIG    1       23.271 -32.055   6.792  0.00  0.00    -0.250 OA
BRANCH  14  16
ATOM     16  C   LIG    1       25.155 -30.542   6.433  0.00  0.00    +0.153 C 
BRANCH  16  17
ATOM     17  C   LIG    1       26.003 -31.653   5.841  0.00  0.00    -0.032 A 
ATOM     18  C   LIG    1       26.932 -32.325   6.651  0.00  0.00    +0.004 A 
ATOM     19  C   LIG    1       27.742 -33.330   6.122  0.00  0.00    +0.000 A 
ATOM     20  C   LIG    1       27.633 -33.680   4.779  0.00  0.00    +0.000 A 
ATOM     21  C   LIG    1       26.706 -33.031   3.965  0.00  0.00    +0.000 A 
ATOM     22  C   LIG    1       25.892 -32.027   4.492  0.00  0.00    +0.004 A 
ENDBRANCH  16  17
BRANCH  16  23
ATOM     23  C   LIG    1       24.698 -29.499   5.400  0.00  0.00    +0.175 C 
BRANCH  23  24
ATOM     24  O   LIG    1       23.275 -29.420   5.375  0.00  0.00    -0.394 OA
ATOM     25  H   LIG    1       22.988 -29.588   4.460  0.00  0.00    +0.209 HD
ENDBRANCH  23  24
ENDBRANCH  16  23
ENDBRANCH  14  16
ENDBRANCH   1  14
TORSDOF 7
ENDMDL
MODEL 9
REMARK VINA RESULT:      -5.5      7.217      9.955
REMARK  Name = *****
REMARK                            x       y       z     vdW  Elec       q    Type
REMARK                         _______ _______ _______ _____ _____    ______ ____
ROOT
ATOM      1  O   LIG    1       25.433 -28.338   8.168  0.00  0.00    -0.461 OA
ENDROOT
BRANCH   1   6
ATOM      2  N   LIG    1       24.665 -31.858   9.931  0.00  0.00    +0.247 N 
ATOM      3  C   LIG    1       25.060 -32.945   8.918  0.00  0.00    +0.193 C 
ATOM      4  C   LIG    1       23.654 -30.812   9.374  0.00  0.00    +0.070 C 
ATOM      5  C   LIG    1       24.089 -30.359   7.973  0.00  0.00    +0.099 C 
ATOM      6  C   LIG    1       25.508 -29.763   7.927  0.00  0.00    +0.187 C 
ATOM      7  C   LIG    1       26.488 -30.363   8.955  0.00  0.00    +0.099 C 
ATOM      8  C   LIG    1       23.733 -29.648  10.378  0.00  0.00    +0.060 C 
ATOM      9  C   LIG    1       25.134 -29.713  10.978  0.00  0.00    +0.060 C 
ATOM     10  C   LIG    1       25.831 -30.870  10.255  0.00  0.00    +0.070 C 
BRANCH   2  12
ATOM     11  C   LIG    1       25.156 -33.253  12.075  0.00  0.00    +0.063 C 
ATOM     12  C   LIG    1       24.071 -32.572  11.232  0.00  0.00    +0.060 C 
ATOM     13  C   LIG    1       22.986 -33.600  10.874  0.00  0.00    +0.063 C 
ENDBRANCH   2  12
ENDBRANCH   1   6
BRANCH   1  14
ATOM     14  C   LIG    1       25.785 -27.531   7.118  0.00  0.00    +0.317 C 
ATOM     15  O   LIG    1       26.945 -27.382   6.730  0.00  0.00    -0.250 OA
BRANCH  14  16
ATOM     16  C   LIG    1       24.563 -26.897   6.489  0.00  0.00    +0.153 C 
BRANCH  16  17
ATOM     17  C   LIG    1       24.581 -25.385   6.627  0.00  0.00    -0.032 A 
ATOM     18  C   LIG    1       25.803 -24.719   6.818  0.00  0.00    +0.004 A 
ATOM     19  C   LIG    1       25.841 -23.334   6.975  0.00  0.00    +0.000 A 
ATOM     20  C   LIG    1       24.661 -22.595   6.941  0.00  0.00    +0.000 A 
ATOM     21  C   LIG    1       23.443 -23.240   6.739  0.00  0.00    +0.000 A 
ATOM     22  C   LIG    1       23.402 -24.626   6.578  0.00  0.00    +0.004 A 
ENDBRANCH  16  17
BRANCH  16  23
ATOM     23  C   LIG    1       24.436 -27.382   5.036  0.00  0.00    +0.175 C 
BRANCH  23  24
ATOM     24  O   LIG    1       23.728 -28.618   4.989  0.00  0.00    -0.394 OA
ATOM     25  H   LIG    1       23.793 -28.959   4.079  0.00  0.00    +0.209 HD
ENDBRANCH  23  24
ENDBRANCH  16  23
ENDBRANCH  14  16
ENDBRANCH   1  14
TORSDOF 7
ENDMDL
