REMARK  6 active torsions:
REMARK  status: ('A' for Active; 'I' for Inactive)
REMARK    1  A    between atoms: O1_1  and  C1_2 
REMARK    2  A    between atoms: C1_2  and  C2_3 
REMARK    3  A    between atoms: C1_2  and  C8_11 
REMARK    4  A    between atoms: C2_3  and  O2_4 
REMARK    5  A    between atoms: O2_4  and  C3_5 
REMARK    6  A    between atoms: C12_15  and  C13_16 
ROOT
ATOM      1  C1  MOL d   1       0.816   2.867   0.667  0.00  0.00     0.348 C 
ATOM      2  H2  MOL d   1       1.264   3.593   0.022  0.00  0.00     0.024 H 
ENDROOT
BRANCH   1   3
ATOM      3  O1  MOL d   1       0.567   3.452   1.946  0.00  0.00    -0.748 OA
ATOM      4  H1  MOL d   1       1.394   3.752   2.328  0.00  0.00     0.443 HD
ENDBRANCH   1   3
BRANCH   1   5
ATOM      5  C2  MOL d   1       1.769   1.668   0.828  0.00  0.00     0.223 C 
ATOM      6  H3  MOL d   1       2.693   2.002   1.254  0.00  0.00    -0.023 H 
ATOM      7  H4  MOL d   1       1.322   0.941   1.472  0.00  0.00    -0.023 H 
BRANCH   5   8
ATOM      8  O2  MOL d   1       2.019   1.082  -0.452  0.00  0.00    -0.707 OA
BRANCH   8   9
ATOM      9  C3  MOL d   1       2.906  -0.030  -0.303  0.00  0.00     0.492 C 
ATOM     10  C4  MOL d   1       3.211  -0.724  -1.583  0.00  0.00    -0.073 C 
ATOM     11  C5  MOL d   1       4.397  -1.673  -1.258  0.00  0.00    -0.214 C 
ATOM     12  H6  MOL d   1       3.494  -0.072  -2.383  0.00  0.00     0.047 H 
ATOM     13  H7  MOL d   1       2.329  -1.260  -1.867  0.00  0.00     0.047 H 
ATOM     14  C6  MOL d   1       4.258  -2.203   0.204  0.00  0.00     0.444 C 
ATOM     15  H8  MOL d   1       5.339  -1.168  -1.302  0.00  0.00     0.039 H 
ATOM     16  H9  MOL d   1       4.376  -2.458  -1.985  0.00  0.00     0.039 H 
ATOM     17  N1  MOL d   1       2.873  -2.449   0.435  0.00  0.00    -0.958 N 
ATOM     18  H10 MOL d   1       4.568  -1.466   0.915  0.00  0.00    -0.040 H 
ATOM     19  H11 MOL d   1       4.863  -3.078   0.315  0.00  0.00    -0.040 H 
ATOM     20  C7  MOL d   1       2.222  -1.108   0.605  0.00  0.00     0.069 C 
ATOM     21  H12 MOL d   1       2.528  -2.944  -0.363  0.00  0.00     0.424 HD
ATOM     22  H13 MOL d   1       2.299  -0.758   1.614  0.00  0.00     0.081 H 
ATOM     23  H14 MOL d   1       1.193  -1.237   0.345  0.00  0.00     0.081 H 
ATOM     24  H5  MOL d   1       3.832   0.318   0.107  0.00  0.00     0.004 H 
ENDBRANCH   8   9
ENDBRANCH   5   8
ENDBRANCH   1   5
BRANCH   1  25
ATOM     25  C8  MOL d   1      -0.513   2.387   0.053  0.00  0.00     0.091 A 
ATOM     26  C9  MOL d   1      -1.266   3.253  -0.751  0.00  0.00    -0.190 A 
ATOM     27  C10 MOL d   1      -2.476   2.817  -1.308  0.00  0.00    -0.126 A 
ATOM     28  H15 MOL d   1      -0.917   4.247  -0.941  0.00  0.00     0.132 H 
ATOM     29  C11 MOL d   1      -2.933   1.516  -1.061  0.00  0.00    -0.171 A 
ATOM     30  H16 MOL d   1      -3.051   3.479  -1.923  0.00  0.00     0.133 H 
ATOM     31  C12 MOL d   1      -2.180   0.649  -0.257  0.00  0.00     0.001 A 
ATOM     32  H17 MOL d   1      -3.857   1.183  -1.486  0.00  0.00     0.140 H 
ATOM     33  C19 MOL d   1      -0.970   1.086   0.300  0.00  0.00    -0.110 A 
ATOM     34  H23 MOL d   1      -0.395   0.424   0.914  0.00  0.00     0.108 H 
BRANCH  31  35
ATOM     35  C13 MOL d   1      -2.682  -0.780   0.014  0.00  0.00     0.068 A 
ATOM     36  C14 MOL d   1      -1.929  -1.647   0.819  0.00  0.00    -0.138 A 
ATOM     37  C15 MOL d   1      -2.386  -2.949   1.066  0.00  0.00    -0.140 A 
ATOM     38  H18 MOL d   1      -1.005  -1.315   1.244  0.00  0.00     0.122 H 
ATOM     39  C16 MOL d   1      -3.597  -3.384   0.508  0.00  0.00    -0.130 A 
ATOM     40  H19 MOL d   1      -1.811  -3.610   1.679  0.00  0.00     0.130 H 
ATOM     41  C17 MOL d   1      -4.349  -2.517  -0.295  0.00  0.00    -0.140 A 
ATOM     42  H20 MOL d   1      -3.946  -4.377   0.697  0.00  0.00     0.128 H 
ATOM     43  C18 MOL d   1      -3.892  -1.216  -0.543  0.00  0.00    -0.138 A 
ATOM     44  H21 MOL d   1      -5.273  -2.849  -0.721  0.00  0.00     0.130 H 
ATOM     45  H22 MOL d   1      -4.467  -0.554  -1.157  0.00  0.00     0.122 H 
ENDBRANCH  31  35
ENDBRANCH   1  25
TORSDOF 6
