MODEL 1
REMARK VINA RESULT:      -8.7      0.000      0.000
REMARK  Name = *****
REMARK                            x       y       z     vdW  Elec       q    Type
REMARK                         _______ _______ _______ _____ _____    ______ ____
ROOT
ATOM      1  C   LIG    1       29.080 -18.826   7.800  0.00  0.00    +0.065 C 
ATOM      2  C   LIG    1       28.599 -20.287   7.575  0.00  0.00    -0.019 C 
ATOM      3  C   LIG    1       29.776 -21.296   7.474  0.00  0.00    +0.012 C 
ATOM      4  C   LIG    1       27.934 -20.219   6.169  0.00  0.00    -0.001 C 
ATOM      5  C   LIG    1       26.431 -19.844   6.136  0.00  0.00    -0.003 C 
ATOM      6  C   LIG    1       25.570 -20.543   7.214  0.00  0.00    +0.002 C 
ATOM      7  C   LIG    1       26.211 -20.281   8.586  0.00  0.00    +0.005 C 
ATOM      8  C   LIG    1       25.094 -22.026   6.921  0.00  0.00    -0.007 C 
ATOM      9  C   LIG    1       23.880 -22.310   7.856  0.00  0.00    +0.016 C 
ATOM     10  C   LIG    1       24.697 -22.199   5.446  0.00  0.00    -0.060 C 
ATOM     11  C   LIG    1       24.074 -23.330   5.050  0.00  0.00    +0.046 C 
ATOM     12  C   LIG    1       25.016 -24.487   5.293  0.00  0.00    +0.156 C 
ATOM     13  O   LIG    1       25.053 -25.418   4.493  0.00  0.00    -0.293 OA
ATOM     14  C   LIG    1       25.759 -24.521   6.622  0.00  0.00    +0.080 C 
ATOM     15  C   LIG    1       25.578 -21.519   4.421  0.00  0.00    +0.032 C 
ATOM     16  C   LIG    1       26.149 -23.135   7.164  0.00  0.00    +0.019 C 
ATOM     17  C   LIG    1       25.797 -20.050   4.748  0.00  0.00    +0.008 C 
ATOM     18  C   LIG    1       28.792 -19.186   5.399  0.00  0.00    +0.005 C 
ATOM     19  C   LIG    1       27.659 -20.741   8.711  0.00  0.00    +0.008 C 
ATOM     20  C   LIG    1       29.591 -18.387   6.431  0.00  0.00    +0.012 C 
ENDROOT
BRANCH   1  21
ATOM     21  C   LIG    1       30.117 -18.610   8.909  0.00  0.00    +0.174 C 
ATOM     22  O   LIG    1       29.810 -18.494  10.099  0.00  0.00    -0.293 OA
BRANCH  21  23
ATOM     23  C   LIG    1       31.576 -18.466   8.477  0.00  0.00    +0.306 C 
BRANCH  23  24
ATOM     24  O   LIG    1       32.414 -18.156   9.595  0.00  0.00    -0.457 OA
BRANCH  24  26
ATOM     25  C   LIG    1       32.788 -16.510  11.252  0.00  0.00    +0.136 C 
ATOM     26  C   LIG    1       32.570 -16.823   9.799  0.00  0.00    +0.304 C 
ATOM     27  O   LIG    1       32.479 -15.964   8.918  0.00  0.00    -0.251 OA
ENDBRANCH  24  26
ENDBRANCH  23  24
ENDBRANCH  21  23
ENDBRANCH   1  21
TORSDOF 4
ENDMDL
MODEL 2
REMARK VINA RESULT:      -7.6      1.529      7.544
REMARK  Name = *****
REMARK                            x       y       z     vdW  Elec       q    Type
REMARK                         _______ _______ _______ _____ _____    ______ ____
ROOT
ATOM      1  C   LIG    1       25.534 -21.981   5.973  0.00  0.00    +0.065 C 
ATOM      2  C   LIG    1       26.191 -21.099   7.071  0.00  0.00    -0.019 C 
ATOM      3  C   LIG    1       25.144 -20.362   7.952  0.00  0.00    +0.012 C 
ATOM      4  C   LIG    1       26.934 -20.012   6.240  0.00  0.00    -0.001 C 
ATOM      5  C   LIG    1       28.384 -20.347   5.809  0.00  0.00    -0.003 C 
ATOM      6  C   LIG    1       29.247 -21.006   6.910  0.00  0.00    +0.002 C 
ATOM      7  C   LIG    1       28.492 -22.236   7.441  0.00  0.00    +0.005 C 
ATOM      8  C   LIG    1       29.905 -20.053   7.992  0.00  0.00    -0.007 C 
ATOM      9  C   LIG    1       31.080 -20.843   8.643  0.00  0.00    +0.016 C 
ATOM     10  C   LIG    1       30.415 -18.754   7.348  0.00  0.00    -0.060 C 
ATOM     11  C   LIG    1       31.186 -17.910   8.067  0.00  0.00    +0.046 C 
ATOM     12  C   LIG    1       30.368 -17.418   9.239  0.00  0.00    +0.156 C 
ATOM     13  O   LIG    1       30.488 -16.257   9.618  0.00  0.00    -0.293 OA
ATOM     14  C   LIG    1       29.548 -18.448  10.004  0.00  0.00    +0.080 C 
ATOM     15  C   LIG    1       29.532 -18.127   6.291  0.00  0.00    +0.032 C 
ATOM     16  C   LIG    1       28.969 -19.574   9.130  0.00  0.00    +0.019 C 
ATOM     17  C   LIG    1       29.127 -19.132   5.223  0.00  0.00    +0.008 C 
ATOM     18  C   LIG    1       26.017 -19.785   5.015  0.00  0.00    +0.005 C 
ATOM     19  C   LIG    1       27.100 -21.941   7.988  0.00  0.00    +0.008 C 
ATOM     20  C   LIG    1       25.068 -20.981   4.920  0.00  0.00    +0.012 C 
ENDROOT
BRANCH   1  21
ATOM     21  C   LIG    1       24.409 -22.918   6.430  0.00  0.00    +0.174 C 
ATOM     22  O   LIG    1       23.241 -22.545   6.566  0.00  0.00    -0.293 OA
BRANCH  21  23
ATOM     23  C   LIG    1       24.801 -24.350   6.791  0.00  0.00    +0.306 C 
BRANCH  23  24
ATOM     24  O   LIG    1       25.907 -24.795   6.000  0.00  0.00    -0.457 OA
BRANCH  24  26
ATOM     25  C   LIG    1       24.401 -26.613   5.846  0.00  0.00    +0.136 C 
ATOM     26  C   LIG    1       25.768 -26.067   5.546  0.00  0.00    +0.304 C 
ATOM     27  O   LIG    1       26.667 -26.723   5.012  0.00  0.00    -0.251 OA
ENDBRANCH  24  26
ENDBRANCH  23  24
ENDBRANCH  21  23
ENDBRANCH   1  21
TORSDOF 4
ENDMDL
MODEL 3
REMARK VINA RESULT:      -6.6      1.517      2.118
REMARK  Name = *****
REMARK                            x       y       z     vdW  Elec       q    Type
REMARK                         _______ _______ _______ _____ _____    ______ ____
ROOT
ATOM      1  C   LIG    1       28.829 -19.183   7.512  0.00  0.00    +0.065 C 
ATOM      2  C   LIG    1       28.241 -20.619   7.415  0.00  0.00    -0.019 C 
ATOM      3  C   LIG    1       29.340 -21.706   7.253  0.00  0.00    +0.012 C 
ATOM      4  C   LIG    1       27.442 -20.575   6.080  0.00  0.00    -0.001 C 
ATOM      5  C   LIG    1       25.968 -20.106   6.174  0.00  0.00    -0.003 C 
ATOM      6  C   LIG    1       25.181 -20.694   7.368  0.00  0.00    +0.002 C 
ATOM      7  C   LIG    1       25.973 -20.409   8.655  0.00  0.00    +0.005 C 
ATOM      8  C   LIG    1       24.590 -22.157   7.205  0.00  0.00    -0.007 C 
ATOM      9  C   LIG    1       23.463 -22.316   8.269  0.00  0.00    +0.016 C 
ATOM     10  C   LIG    1       24.036 -22.374   5.788  0.00  0.00    -0.060 C 
ATOM     11  C   LIG    1       23.309 -23.480   5.517  0.00  0.00    +0.046 C 
ATOM     12  C   LIG    1       24.200 -24.683   5.729  0.00  0.00    +0.156 C 
ATOM     13  O   LIG    1       24.101 -25.651   4.981  0.00  0.00    -0.293 OA
ATOM     14  C   LIG    1       25.071 -24.700   6.978  0.00  0.00    +0.080 C 
ATOM     15  C   LIG    1       24.847 -21.803   4.645  0.00  0.00    +0.032 C 
ATOM     16  C   LIG    1       25.596 -23.318   7.403  0.00  0.00    +0.019 C 
ATOM     17  C   LIG    1       25.185 -20.336   4.869  0.00  0.00    +0.008 C 
ATOM     18  C   LIG    1       28.277 -19.639   5.174  0.00  0.00    +0.005 C 
ATOM     19  C   LIG    1       27.396 -20.955   8.661  0.00  0.00    +0.008 C 
ATOM     20  C   LIG    1       29.223 -18.844   6.077  0.00  0.00    +0.012 C 
ENDROOT
BRANCH   1  21
ATOM     21  C   LIG    1       29.984 -18.981   8.500  0.00  0.00    +0.174 C 
ATOM     22  O   LIG    1       29.879 -18.298   9.522  0.00  0.00    -0.293 OA
BRANCH  21  23
ATOM     23  C   LIG    1       31.328 -19.609   8.135  0.00  0.00    +0.306 C 
BRANCH  23  24
ATOM     24  O   LIG    1       31.951 -20.195   9.282  0.00  0.00    -0.457 OA
BRANCH  24  26
ATOM     25  C   LIG    1       32.061 -22.415   8.472  0.00  0.00    +0.136 C 
ATOM     26  C   LIG    1       31.548 -21.470   9.521  0.00  0.00    +0.304 C 
ATOM     27  O   LIG    1       30.802 -21.807  10.444  0.00  0.00    -0.251 OA
ENDBRANCH  24  26
ENDBRANCH  23  24
ENDBRANCH  21  23
ENDBRANCH   1  21
TORSDOF 4
ENDMDL
MODEL 4
REMARK VINA RESULT:      -6.4      2.088      7.534
REMARK  Name = *****
REMARK                            x       y       z     vdW  Elec       q    Type
REMARK                         _______ _______ _______ _____ _____    ______ ____
ROOT
ATOM      1  C   LIG    1       25.915 -21.930   6.049  0.00  0.00    +0.065 C 
ATOM      2  C   LIG    1       26.515 -21.018   7.156  0.00  0.00    -0.019 C 
ATOM      3  C   LIG    1       25.423 -20.277   7.977  0.00  0.00    +0.012 C 
ATOM      4  C   LIG    1       27.279 -19.938   6.335  0.00  0.00    -0.001 C 
ATOM      5  C   LIG    1       28.750 -20.263   5.972  0.00  0.00    -0.003 C 
ATOM      6  C   LIG    1       29.573 -20.890   7.121  0.00  0.00    +0.002 C 
ATOM      7  C   LIG    1       28.811 -22.118   7.644  0.00  0.00    +0.005 C 
ATOM      8  C   LIG    1       30.174 -19.908   8.211  0.00  0.00    -0.007 C 
ATOM      9  C   LIG    1       31.330 -20.670   8.926  0.00  0.00    +0.016 C 
ATOM     10  C   LIG    1       30.695 -18.615   7.563  0.00  0.00    -0.060 C 
ATOM     11  C   LIG    1       31.426 -17.747   8.296  0.00  0.00    +0.046 C 
ATOM     12  C   LIG    1       30.553 -17.243   9.422  0.00  0.00    +0.156 C 
ATOM     13  O   LIG    1       30.643 -16.073   9.783  0.00  0.00    -0.293 OA
ATOM     14  C   LIG    1       29.714 -18.268  10.173  0.00  0.00    +0.080 C 
ATOM     15  C   LIG    1       29.850 -18.020   6.457  0.00  0.00    +0.032 C 
ATOM     16  C   LIG    1       29.185 -19.418   9.298  0.00  0.00    +0.019 C 
ATOM     17  C   LIG    1       29.503 -19.051   5.393  0.00  0.00    +0.008 C 
ATOM     18  C   LIG    1       26.412 -19.747   5.068  0.00  0.00    +0.005 C 
ATOM     19  C   LIG    1       27.394 -21.831   8.127  0.00  0.00    +0.008 C 
ATOM     20  C   LIG    1       25.482 -20.956   4.958  0.00  0.00    +0.012 C 
ENDROOT
BRANCH   1  21
ATOM     21  C   LIG    1       24.783 -22.872   6.477  0.00  0.00    +0.174 C 
ATOM     22  O   LIG    1       24.955 -23.817   7.252  0.00  0.00    -0.293 OA
BRANCH  21  23
ATOM     23  C   LIG    1       23.412 -22.643   5.843  0.00  0.00    +0.306 C 
BRANCH  23  24
ATOM     24  O   LIG    1       22.860 -21.387   6.253  0.00  0.00    -0.457 OA
BRANCH  24  26
ATOM     25  C   LIG    1       22.490 -19.323   5.158  0.00  0.00    +0.136 C 
ATOM     26  C   LIG    1       22.132 -20.777   5.283  0.00  0.00    +0.304 C 
ATOM     27  O   LIG    1       21.240 -21.324   4.627  0.00  0.00    -0.251 OA
ENDBRANCH  24  26
ENDBRANCH  23  24
ENDBRANCH  21  23
ENDBRANCH   1  21
TORSDOF 4
ENDMDL
MODEL 5
REMARK VINA RESULT:      -6.1      4.559      8.787
REMARK  Name = *****
REMARK                            x       y       z     vdW  Elec       q    Type
REMARK                         _______ _______ _______ _____ _____    ______ ____
ROOT
ATOM      1  C   LIG    1       25.075 -27.050   6.624  0.00  0.00    +0.065 C 
ATOM      2  C   LIG    1       24.965 -25.850   5.643  0.00  0.00    -0.019 C 
ATOM      3  C   LIG    1       25.426 -26.209   4.203  0.00  0.00    +0.012 C 
ATOM      4  C   LIG    1       26.001 -24.840   6.215  0.00  0.00    -0.001 C 
ATOM      5  C   LIG    1       25.480 -23.854   7.292  0.00  0.00    -0.003 C 
ATOM      6  C   LIG    1       24.095 -23.240   6.985  0.00  0.00    +0.002 C 
ATOM      7  C   LIG    1       23.109 -24.387   6.711  0.00  0.00    +0.005 C 
ATOM      8  C   LIG    1       24.047 -22.006   5.990  0.00  0.00    -0.007 C 
ATOM      9  C   LIG    1       22.692 -21.275   6.233  0.00  0.00    +0.016 C 
ATOM     10  C   LIG    1       25.229 -21.055   6.231  0.00  0.00    -0.060 C 
ATOM     11  C   LIG    1       25.250 -19.847   5.625  0.00  0.00    +0.046 C 
ATOM     12  C   LIG    1       25.290 -20.079   4.132  0.00  0.00    +0.156 C 
ATOM     13  O   LIG    1       25.956 -19.333   3.420  0.00  0.00    -0.293 OA
ATOM     14  C   LIG    1       24.358 -21.139   3.561  0.00  0.00    +0.080 C 
ATOM     15  C   LIG    1       26.573 -21.695   6.506  0.00  0.00    +0.032 C 
ATOM     16  C   LIG    1       24.136 -22.351   4.482  0.00  0.00    +0.019 C 
ATOM     17  C   LIG    1       26.488 -22.735   7.613  0.00  0.00    +0.008 C 
ATOM     18  C   LIG    1       27.133 -25.738   6.770  0.00  0.00    +0.005 C 
ATOM     19  C   LIG    1       23.518 -25.320   5.577  0.00  0.00    +0.008 C 
ATOM     20  C   LIG    1       26.569 -27.152   6.922  0.00  0.00    +0.012 C 
ENDROOT
BRANCH   1  21
ATOM     21  C   LIG    1       24.481 -28.382   6.148  0.00  0.00    +0.174 C 
ATOM     22  O   LIG    1       23.700 -28.463   5.196  0.00  0.00    -0.293 OA
BRANCH  21  23
ATOM     23  C   LIG    1       24.838 -29.629   6.954  0.00  0.00    +0.306 C 
BRANCH  23  24
ATOM     24  O   LIG    1       23.675 -30.197   7.565  0.00  0.00    -0.457 OA
BRANCH  24  26
ATOM     25  C   LIG    1       25.080 -29.857   9.438  0.00  0.00    +0.136 C 
ATOM     26  C   LIG    1       23.699 -30.144   8.921  0.00  0.00    +0.304 C 
ATOM     27  O   LIG    1       22.726 -30.367   9.648  0.00  0.00    -0.251 OA
ENDBRANCH  24  26
ENDBRANCH  23  24
ENDBRANCH  21  23
ENDBRANCH   1  21
TORSDOF 4
ENDMDL
MODEL 6
REMARK VINA RESULT:      -5.8      9.477     12.616
REMARK  Name = *****
REMARK                            x       y       z     vdW  Elec       q    Type
REMARK                         _______ _______ _______ _____ _____    ______ ____
ROOT
ATOM      1  C   LIG    1       25.374 -31.979   9.757  0.00  0.00    +0.065 C 
ATOM      2  C   LIG    1       24.736 -30.692  10.351  0.00  0.00    -0.019 C 
ATOM      3  C   LIG    1       23.872 -29.920   9.316  0.00  0.00    +0.012 C 
ATOM      4  C   LIG    1       25.976 -29.805  10.664  0.00  0.00    -0.001 C 
ATOM      5  C   LIG    1       26.619 -29.988  12.061  0.00  0.00    -0.003 C 
ATOM      6  C   LIG    1       25.608 -30.101  13.225  0.00  0.00    +0.002 C 
ATOM      7  C   LIG    1       24.607 -31.218  12.887  0.00  0.00    +0.005 C 
ATOM      8  C   LIG    1       25.003 -28.753  13.802  0.00  0.00    -0.007 C 
ATOM      9  C   LIG    1       24.448 -29.072  15.223  0.00  0.00    +0.016 C 
ATOM     10  C   LIG    1       26.073 -27.652  13.870  0.00  0.00    -0.060 C 
ATOM     11  C   LIG    1       25.805 -26.499  14.522  0.00  0.00    +0.046 C 
ATOM     12  C   LIG    1       24.655 -25.822  13.811  0.00  0.00    +0.156 C 
ATOM     13  O   LIG    1       24.642 -24.599  13.707  0.00  0.00    -0.293 OA
ATOM     14  C   LIG    1       23.474 -26.692  13.400  0.00  0.00    +0.080 C 
ATOM     15  C   LIG    1       27.030 -27.560  12.701  0.00  0.00    +0.032 C 
ATOM     16  C   LIG    1       23.856 -28.120  12.976  0.00  0.00    +0.019 C 
ATOM     17  C   LIG    1       27.665 -28.905  12.383  0.00  0.00    +0.008 C 
ATOM     18  C   LIG    1       26.975 -30.145   9.532  0.00  0.00    +0.005 C 
ATOM     19  C   LIG    1       23.857 -31.025  11.574  0.00  0.00    +0.008 C 
ATOM     20  C   LIG    1       26.524 -31.462   8.897  0.00  0.00    +0.012 C 
ENDROOT
BRANCH   1  21
ATOM     21  C   LIG    1       24.437 -32.914   8.982  0.00  0.00    +0.174 C 
ATOM     22  O   LIG    1       23.577 -33.606   9.532  0.00  0.00    -0.293 OA
BRANCH  21  23
ATOM     23  C   LIG    1       24.654 -33.019   7.473  0.00  0.00    +0.306 C 
BRANCH  23  24
ATOM     24  O   LIG    1       23.591 -32.385   6.756  0.00  0.00    -0.457 OA
BRANCH  24  26
ATOM     25  C   LIG    1       25.358 -31.499   5.456  0.00  0.00    +0.136 C 
ATOM     26  C   LIG    1       23.991 -31.298   6.047  0.00  0.00    +0.304 C 
ATOM     27  O   LIG    1       23.348 -30.249   5.949  0.00  0.00    -0.251 OA
ENDBRANCH  24  26
ENDBRANCH  23  24
ENDBRANCH  21  23
ENDBRANCH   1  21
TORSDOF 4
ENDMDL
MODEL 7
REMARK VINA RESULT:      -5.8      7.796     11.742
REMARK  Name = *****
REMARK                            x       y       z     vdW  Elec       q    Type
REMARK                         _______ _______ _______ _____ _____    ______ ____
ROOT
ATOM      1  C   LIG    1       24.740 -30.477   8.190  0.00  0.00    +0.065 C 
ATOM      2  C   LIG    1       25.960 -30.504   9.152  0.00  0.00    -0.019 C 
ATOM      3  C   LIG    1       27.000 -31.595   8.771  0.00  0.00    +0.012 C 
ATOM      4  C   LIG    1       25.322 -30.936  10.505  0.00  0.00    -0.001 C 
ATOM      5  C   LIG    1       24.786 -29.796  11.408  0.00  0.00    -0.003 C 
ATOM      6  C   LIG    1       25.713 -28.562  11.506  0.00  0.00    +0.002 C 
ATOM      7  C   LIG    1       26.031 -28.084  10.080  0.00  0.00    +0.005 C 
ATOM      8  C   LIG    1       26.931 -28.642  12.518  0.00  0.00    -0.007 C 
ATOM      9  C   LIG    1       27.382 -27.178  12.807  0.00  0.00    +0.016 C 
ATOM     10  C   LIG    1       26.524 -29.353  13.818  0.00  0.00    -0.060 C 
ATOM     11  C   LIG    1       27.362 -29.337  14.879  0.00  0.00    +0.046 C 
ATOM     12  C   LIG    1       28.632 -30.050  14.477  0.00  0.00    +0.156 C 
ATOM     13  O   LIG    1       29.218 -30.754  15.294  0.00  0.00    -0.293 OA
ATOM     14  C   LIG    1       29.219 -29.722  13.110  0.00  0.00    +0.080 C 
ATOM     15  C   LIG    1       25.635 -30.570  13.679  0.00  0.00    +0.032 C 
ATOM     16  C   LIG    1       28.170 -29.430  12.023  0.00  0.00    +0.019 C 
ATOM     17  C   LIG    1       24.412 -30.281  12.821  0.00  0.00    +0.008 C 
ATOM     18  C   LIG    1       24.193 -31.911  10.093  0.00  0.00    +0.005 C 
ATOM     19  C   LIG    1       26.671 -29.136   9.183  0.00  0.00    +0.008 C 
ATOM     20  C   LIG    1       23.910 -31.687   8.607  0.00  0.00    +0.012 C 
ENDROOT
BRANCH   1  21
ATOM     21  C   LIG    1       25.053 -30.470   6.688  0.00  0.00    +0.174 C 
ATOM     22  O   LIG    1       25.224 -31.503   6.036  0.00  0.00    -0.293 OA
BRANCH  21  23
ATOM     23  C   LIG    1       25.220 -29.106   6.020  0.00  0.00    +0.306 C 
BRANCH  23  24
ATOM     24  O   LIG    1       24.237 -28.179   6.491  0.00  0.00    -0.457 OA
BRANCH  24  26
ATOM     25  C   LIG    1       26.090 -26.712   6.393  0.00  0.00    +0.136 C 
ATOM     26  C   LIG    1       24.599 -26.881   6.328  0.00  0.00    +0.304 C 
ATOM     27  O   LIG    1       23.806 -25.942   6.208  0.00  0.00    -0.251 OA
ENDBRANCH  24  26
ENDBRANCH  23  24
ENDBRANCH  21  23
ENDBRANCH   1  21
TORSDOF 4
ENDMDL
MODEL 8
REMARK VINA RESULT:      -5.7     10.174     12.449
REMARK  Name = *****
REMARK                            x       y       z     vdW  Elec       q    Type
REMARK                         _______ _______ _______ _____ _____    ______ ____
ROOT
ATOM      1  C   LIG    1       26.216 -31.299   9.877  0.00  0.00    +0.065 C 
ATOM      2  C   LIG    1       24.812 -30.723  10.211  0.00  0.00    -0.019 C 
ATOM      3  C   LIG    1       23.962 -30.441   8.941  0.00  0.00    +0.012 C 
ATOM      4  C   LIG    1       25.149 -29.344  10.850  0.00  0.00    -0.001 C 
ATOM      5  C   LIG    1       25.386 -29.334  12.381  0.00  0.00    -0.003 C 
ATOM      6  C   LIG    1       24.383 -30.184  13.194  0.00  0.00    +0.002 C 
ATOM      7  C   LIG    1       24.371 -31.606  12.609  0.00  0.00    +0.005 C 
ATOM      8  C   LIG    1       22.973 -29.537  13.520  0.00  0.00    -0.007 C 
ATOM      9  C   LIG    1       22.372 -30.329  14.721  0.00  0.00    +0.016 C 
ATOM     10  C   LIG    1       23.115 -28.047  13.868  0.00  0.00    -0.060 C 
ATOM     11  C   LIG    1       22.058 -27.374  14.372  0.00  0.00    +0.046 C 
ATOM     12  C   LIG    1       20.963 -27.383  13.330  0.00  0.00    +0.156 C 
ATOM     13  O   LIG    1       20.253 -26.392  13.187  0.00  0.00    -0.293 OA
ATOM     14  C   LIG    1       20.686 -28.698  12.614  0.00  0.00    +0.080 C 
ATOM     15  C   LIG    1       24.091 -27.244  13.035  0.00  0.00    +0.032 C 
ATOM     16  C   LIG    1       21.935 -29.562  12.369  0.00  0.00    +0.019 C 
ATOM     17  C   LIG    1       25.457 -27.911  12.965  0.00  0.00    +0.008 C 
ATOM     18  C   LIG    1       26.404 -28.870  10.079  0.00  0.00    +0.005 C 
ATOM     19  C   LIG    1       24.024 -31.682  11.127  0.00  0.00    +0.008 C 
ATOM     20  C   LIG    1       27.006 -30.091   9.382  0.00  0.00    +0.012 C 
ENDROOT
BRANCH   1  21
ATOM     21  C   LIG    1       26.258 -32.471   8.888  0.00  0.00    +0.174 C 
ATOM     22  O   LIG    1       25.994 -33.631   9.214  0.00  0.00    -0.293 OA
BRANCH  21  23
ATOM     23  C   LIG    1       26.718 -32.162   7.464  0.00  0.00    +0.306 C 
BRANCH  23  24
ATOM     24  O   LIG    1       25.663 -32.383   6.523  0.00  0.00    -0.457 OA
BRANCH  24  26
ATOM     25  C   LIG    1       25.412 -30.246   5.538  0.00  0.00    +0.136 C 
ATOM     26  C   LIG    1       25.815 -31.684   5.369  0.00  0.00    +0.304 C 
ATOM     27  O   LIG    1       26.176 -32.174   4.295  0.00  0.00    -0.251 OA
ENDBRANCH  24  26
ENDBRANCH  23  24
ENDBRANCH  21  23
ENDBRANCH   1  21
TORSDOF 4
ENDMDL
