MODEL 1
REMARK VINA RESULT:      -5.3      0.000      0.000
REMARK  Name = *****
REMARK                            x       y       z     vdW  Elec       q    Type
REMARK                         _______ _______ _______ _____ _____    ______ ____
ROOT
ATOM      1  C   LIG    1       31.167 -19.555   7.378  0.00  0.00    +0.044 C 
ENDROOT
BRANCH   1   2
ATOM      2  C   LIG    1       29.780 -19.653   6.738  0.00  0.00    +0.003 C 
BRANCH   2   4
ATOM      3  C   LIG    1       27.566 -20.359   7.732  0.00  0.00    +0.004 C 
ATOM      4  C   LIG    1       28.961 -20.809   7.319  0.00  0.00    -0.003 C 
ENDBRANCH   2   4
ENDBRANCH   1   2
BRANCH   1   5
ATOM      5  C   LIG    1       31.118 -19.708   8.900  0.00  0.00    +0.266 C 
BRANCH   5   6
ATOM      6  O   LIG    1       32.233 -20.505   9.305  0.00  0.00    -0.363 OA
BRANCH   6   7
ATOM      7  N   LIG    1       31.862 -21.846   9.296  0.00  0.00    +0.155 NA
ATOM      8  O   LIG    1       30.975 -22.068  10.131  0.00  0.00    -0.105 OA
ENDBRANCH   6   7
ENDBRANCH   5   6
ENDBRANCH   1   5
TORSDOF 5
ENDMDL
MODEL 2
REMARK VINA RESULT:      -5.2      1.705      2.767
REMARK  Name = *****
REMARK                            x       y       z     vdW  Elec       q    Type
REMARK                         _______ _______ _______ _____ _____    ______ ____
ROOT
ATOM      1  C   LIG    1       30.911 -18.736   7.710  0.00  0.00    +0.044 C 
ENDROOT
BRANCH   1   2
ATOM      2  C   LIG    1       31.438 -17.746   8.753  0.00  0.00    +0.003 C 
BRANCH   2   4
ATOM      3  C   LIG    1       30.592 -17.511  11.123  0.00  0.00    +0.004 C 
ATOM      4  C   LIG    1       30.321 -17.214   9.654  0.00  0.00    -0.003 C 
ENDBRANCH   2   4
ENDBRANCH   1   2
BRANCH   1   5
ATOM      5  C   LIG    1       30.904 -20.176   8.226  0.00  0.00    +0.266 C 
BRANCH   5   6
ATOM      6  O   LIG    1       32.017 -20.340   9.108  0.00  0.00    -0.363 OA
BRANCH   6   7
ATOM      7  N   LIG    1       32.077 -21.667   9.524  0.00  0.00    +0.155 NA
ATOM      8  O   LIG    1       31.016 -22.014  10.059  0.00  0.00    -0.105 OA
ENDBRANCH   6   7
ENDBRANCH   5   6
ENDBRANCH   1   5
TORSDOF 5
ENDMDL
MODEL 3
REMARK VINA RESULT:      -5.0      2.699      4.024
REMARK  Name = *****
REMARK                            x       y       z     vdW  Elec       q    Type
REMARK                         _______ _______ _______ _____ _____    ______ ____
ROOT
ATOM      1  C   LIG    1       30.179 -18.038   9.306  0.00  0.00    +0.044 C 
ENDROOT
BRANCH   1   2
ATOM      2  C   LIG    1       30.282 -17.498  10.735  0.00  0.00    +0.003 C 
BRANCH   2   4
ATOM      3  C   LIG    1       31.816 -16.235  12.297  0.00  0.00    +0.004 C 
ATOM      4  C   LIG    1       31.348 -16.406  10.858  0.00  0.00    -0.003 C 
ENDBRANCH   2   4
ENDBRANCH   1   2
BRANCH   1   5
ATOM      5  C   LIG    1       31.551 -18.257   8.665  0.00  0.00    +0.266 C 
BRANCH   5   6
ATOM      6  O   LIG    1       32.215 -19.303   9.379  0.00  0.00    -0.363 OA
BRANCH   6   7
ATOM      7  N   LIG    1       31.642 -20.524   9.034  0.00  0.00    +0.155 NA
ATOM      8  O   LIG    1       32.287 -21.468   9.508  0.00  0.00    -0.105 OA
ENDBRANCH   6   7
ENDBRANCH   5   6
ENDBRANCH   1   5
TORSDOF 5
ENDMDL
MODEL 4
REMARK VINA RESULT:      -5.0      1.250      1.870
REMARK  Name = *****
REMARK                            x       y       z     vdW  Elec       q    Type
REMARK                         _______ _______ _______ _____ _____    ______ ____
ROOT
ATOM      1  C   LIG    1       29.383 -20.619   6.928  0.00  0.00    +0.044 C 
ENDROOT
BRANCH   1   2
ATOM      2  C   LIG    1       28.191 -21.244   7.659  0.00  0.00    +0.003 C 
BRANCH   2   4
ATOM      3  C   LIG    1       25.917 -20.696   8.614  0.00  0.00    +0.004 C 
ATOM      4  C   LIG    1       26.922 -20.401   7.510  0.00  0.00    -0.003 C 
ENDBRANCH   2   4
ENDBRANCH   1   2
BRANCH   1   5
ATOM      5  C   LIG    1       30.191 -19.681   7.828  0.00  0.00    +0.266 C 
BRANCH   5   6
ATOM      6  O   LIG    1       31.538 -20.159   7.876  0.00  0.00    -0.363 OA
BRANCH   6   7
ATOM      7  N   LIG    1       31.922 -20.304   9.205  0.00  0.00    +0.155 NA
ATOM      8  O   LIG    1       32.279 -21.466   9.441  0.00  0.00    -0.105 OA
ENDBRANCH   6   7
ENDBRANCH   5   6
ENDBRANCH   1   5
TORSDOF 5
ENDMDL
MODEL 5
REMARK VINA RESULT:      -4.8      1.195      2.213
REMARK  Name = *****
REMARK                            x       y       z     vdW  Elec       q    Type
REMARK                         _______ _______ _______ _____ _____    ______ ____
ROOT
ATOM      1  C   LIG    1       28.875 -21.312   7.488  0.00  0.00    +0.044 C 
ENDROOT
BRANCH   1   2
ATOM      2  C   LIG    1       27.973 -20.145   7.079  0.00  0.00    +0.003 C 
BRANCH   2   4
ATOM      3  C   LIG    1       29.237 -18.524   5.609  0.00  0.00    +0.004 C 
ATOM      4  C   LIG    1       28.249 -19.682   5.646  0.00  0.00    -0.003 C 
ENDBRANCH   2   4
ENDBRANCH   1   2
BRANCH   1   5
ATOM      5  C   LIG    1       30.092 -20.853   8.295  0.00  0.00    +0.266 C 
BRANCH   5   6
ATOM      6  O   LIG    1       30.414 -21.877   9.239  0.00  0.00    -0.363 OA
BRANCH   6   7
ATOM      7  N   LIG    1       31.790 -21.887   9.448  0.00  0.00    +0.155 NA
ATOM      8  O   LIG    1       32.262 -20.746   9.359  0.00  0.00    -0.105 OA
ENDBRANCH   6   7
ENDBRANCH   5   6
ENDBRANCH   1   5
TORSDOF 5
ENDMDL
MODEL 6
REMARK VINA RESULT:      -4.7      5.508      6.700
REMARK  Name = *****
REMARK                            x       y       z     vdW  Elec       q    Type
REMARK                         _______ _______ _______ _____ _____    ______ ____
ROOT
ATOM      1  C   LIG    1       23.353 -20.572   6.854  0.00  0.00    +0.044 C 
ENDROOT
BRANCH   1   2
ATOM      2  C   LIG    1       23.136 -20.924   5.380  0.00  0.00    +0.003 C 
BRANCH   2   4
ATOM      3  C   LIG    1       22.251 -18.681   4.620  0.00  0.00    +0.004 C 
ATOM      4  C   LIG    1       23.356 -19.717   4.464  0.00  0.00    -0.003 C 
ENDBRANCH   2   4
ENDBRANCH   1   2
BRANCH   1   5
ATOM      5  C   LIG    1       24.789 -20.839   7.311  0.00  0.00    +0.266 C 
BRANCH   5   6
ATOM      6  O   LIG    1       24.751 -21.814   8.355  0.00  0.00    -0.363 OA
BRANCH   6   7
ATOM      7  N   LIG    1       25.808 -21.586   9.230  0.00  0.00    +0.155 NA
ATOM      8  O   LIG    1       25.971 -20.374   9.426  0.00  0.00    -0.105 OA
ENDBRANCH   6   7
ENDBRANCH   5   6
ENDBRANCH   1   5
TORSDOF 5
ENDMDL
MODEL 7
REMARK VINA RESULT:      -4.4      2.024      2.141
REMARK  Name = *****
REMARK                            x       y       z     vdW  Elec       q    Type
REMARK                         _______ _______ _______ _____ _____    ______ ____
ROOT
ATOM      1  C   LIG    1       31.092 -19.395   7.152  0.00  0.00    +0.044 C 
ENDROOT
BRANCH   1   2
ATOM      2  C   LIG    1       30.123 -20.378   7.813  0.00  0.00    +0.003 C 
BRANCH   2   4
ATOM      3  C   LIG    1       28.013 -20.251   6.428  0.00  0.00    +0.004 C 
ATOM      4  C   LIG    1       28.675 -19.886   7.750  0.00  0.00    -0.003 C 
ENDBRANCH   2   4
ENDBRANCH   1   2
BRANCH   1   5
ATOM      5  C   LIG    1       31.753 -18.458   8.165  0.00  0.00    +0.266 C 
BRANCH   5   6
ATOM      6  O   LIG    1       31.893 -19.164   9.400  0.00  0.00    -0.363 OA
BRANCH   6   7
ATOM      7  N   LIG    1       31.670 -18.285  10.455  0.00  0.00    +0.155 NA
ATOM      8  O   LIG    1       30.622 -18.563  11.053  0.00  0.00    -0.105 OA
ENDBRANCH   6   7
ENDBRANCH   5   6
ENDBRANCH   1   5
TORSDOF 5
ENDMDL
MODEL 8
REMARK VINA RESULT:      -4.4      5.010      6.387
REMARK  Name = *****
REMARK                            x       y       z     vdW  Elec       q    Type
REMARK                         _______ _______ _______ _____ _____    ______ ____
ROOT
ATOM      1  C   LIG    1       23.867 -21.030   6.623  0.00  0.00    +0.044 C 
ENDROOT
BRANCH   1   2
ATOM      2  C   LIG    1       23.099 -22.070   7.444  0.00  0.00    +0.003 C 
BRANCH   2   4
ATOM      3  C   LIG    1       23.759 -24.367   6.621  0.00  0.00    +0.004 C 
ATOM      4  C   LIG    1       22.692 -23.280   6.599  0.00  0.00    -0.003 C 
ENDBRANCH   2   4
ENDBRANCH   1   2
BRANCH   1   5
ATOM      5  C   LIG    1       25.266 -20.764   7.184  0.00  0.00    +0.266 C 
BRANCH   5   6
ATOM      6  O   LIG    1       25.142 -20.495   8.583  0.00  0.00    -0.363 OA
BRANCH   6   7
ATOM      7  N   LIG    1       25.970 -21.364   9.288  0.00  0.00    +0.155 NA
ATOM      8  O   LIG    1       27.073 -21.473   8.736  0.00  0.00    -0.105 OA
ENDBRANCH   6   7
ENDBRANCH   5   6
ENDBRANCH   1   5
TORSDOF 5
ENDMDL
MODEL 9
REMARK VINA RESULT:      -4.4      5.480      6.258
REMARK  Name = *****
REMARK                            x       y       z     vdW  Elec       q    Type
REMARK                         _______ _______ _______ _____ _____    ______ ____
ROOT
ATOM      1  C   LIG    1       24.481 -22.955   7.040  0.00  0.00    +0.044 C 
ENDROOT
BRANCH   1   2
ATOM      2  C   LIG    1       25.779 -23.764   7.108  0.00  0.00    +0.003 C 
BRANCH   2   4
ATOM      3  C   LIG    1       24.159 -25.453   6.154  0.00  0.00    +0.004 C 
ATOM      4  C   LIG    1       25.576 -25.213   6.657  0.00  0.00    -0.003 C 
ENDBRANCH   2   4
ENDBRANCH   1   2
BRANCH   1   5
ATOM      5  C   LIG    1       24.593 -21.612   7.766  0.00  0.00    +0.266 C 
BRANCH   5   6
ATOM      6  O   LIG    1       25.453 -21.786   8.895  0.00  0.00    -0.363 OA
BRANCH   6   7
ATOM      7  N   LIG    1       25.966 -20.548   9.270  0.00  0.00    +0.155 NA
ATOM      8  O   LIG    1       27.024 -20.306   8.674  0.00  0.00    -0.105 OA
ENDBRANCH   6   7
ENDBRANCH   5   6
ENDBRANCH   1   5
TORSDOF 5
ENDMDL
