MODEL 1
REMARK VINA RESULT:      -3.1      0.000      0.000
REMARK  Name = *****
REMARK                            x       y       z     vdW  Elec       q    Type
REMARK                         _______ _______ _______ _____ _____    ______ ____
ROOT
ATOM      1  C   LIG    1       25.800 -14.182   4.232  0.00  0.00    +0.140 C 
ATOM      2  C   LIG    1       26.628 -13.310   5.174  0.00  0.00    +0.239 C 
ATOM      3  O   LIG    1       26.163 -12.860   6.224  0.00  0.00    -0.274 OA
ATOM      4  N   LIG    1       27.955 -13.107   4.814  0.00  0.00    -0.228 N 
ATOM      5  C   LIG    1       28.817 -12.454   5.782  0.00  0.00    +0.143 C 
ATOM      6  C   LIG    1       28.405 -13.169   3.512  0.00  0.00    +0.315 C 
ATOM      7  O   LIG    1       29.475 -12.702   3.130  0.00  0.00    -0.252 OA
ATOM      8  N   LIG    1       27.555 -13.708   2.595  0.00  0.00    -0.239 N 
ATOM      9  H   LIG    1       27.837 -13.577   1.633  0.00  0.00    +0.159 HD
ATOM     10  C   LIG    1       26.221 -13.923   2.791  0.00  0.00    +0.237 C 
ATOM     11  O   LIG    1       25.480 -13.951   1.812  0.00  0.00    -0.274 OA
ENDROOT
BRANCH   1  12
ATOM     12  C   LIG    1       24.273 -13.917   4.453  0.00  0.00    +0.085 C 
ATOM     13  C   LIG    1       23.680 -12.895   3.468  0.00  0.00    +0.023 C 
BRANCH  12  14
ATOM     14  C   LIG    1       23.468 -15.161   4.386  0.00  0.00    -0.098 C 
ATOM     15  C   LIG    1       22.802 -16.157   4.428  0.00  0.00    -0.102 C 
BRANCH  15  16
ATOM     16  C   LIG    1       21.964 -17.353   4.589  0.00  0.00    +0.085 C 
ATOM     17  C   LIG    1       22.767 -18.613   4.307  0.00  0.00    +0.017 C 
ENDBRANCH  15  16
ENDBRANCH  12  14
ENDBRANCH   1  12
BRANCH   1  18
ATOM     18  C   LIG    1       26.194 -15.665   4.542  0.00  0.00    +0.053 C 
BRANCH  18  20
ATOM     19  C   LIG    1       26.072 -17.837   3.279  0.00  0.00    +0.004 C 
ATOM     20  C   LIG    1       26.417 -16.544   3.335  0.00  0.00    -0.033 C 
ENDBRANCH  18  20
ENDBRANCH   1  18
TORSDOF 5
ENDMDL
MODEL 2
REMARK VINA RESULT:      -2.2      2.094      4.377
REMARK  Name = *****
REMARK                            x       y       z     vdW  Elec       q    Type
REMARK                         _______ _______ _______ _____ _____    ______ ____
ROOT
ATOM      1  C   LIG    1       26.146 -14.378   3.972  0.00  0.00    +0.140 C 
ATOM      2  C   LIG    1       25.579 -13.386   2.958  0.00  0.00    +0.239 C 
ATOM      3  O   LIG    1       26.025 -13.297   1.812  0.00  0.00    -0.274 OA
ATOM      4  N   LIG    1       24.488 -12.634   3.380  0.00  0.00    -0.228 N 
ATOM      5  C   LIG    1       23.805 -11.831   2.383  0.00  0.00    +0.143 C 
ATOM      6  C   LIG    1       24.236 -12.342   4.704  0.00  0.00    +0.315 C 
ATOM      7  O   LIG    1       23.483 -11.447   5.081  0.00  0.00    -0.252 OA
ATOM      8  N   LIG    1       24.944 -13.043   5.632  0.00  0.00    -0.239 N 
ATOM      9  H   LIG    1       24.869 -12.685   6.575  0.00  0.00    +0.159 HD
ATOM     10  C   LIG    1       26.060 -13.786   5.373  0.00  0.00    +0.237 C 
ATOM     11  O   LIG    1       26.867 -13.971   6.279  0.00  0.00    -0.274 OA
ENDROOT
BRANCH   1  12
ATOM     12  C   LIG    1       27.614 -14.762   3.587  0.00  0.00    +0.085 C 
ATOM     13  C   LIG    1       28.632 -13.641   3.860  0.00  0.00    +0.023 C 
BRANCH  12  14
ATOM     14  C   LIG    1       28.073 -15.995   4.273  0.00  0.00    -0.098 C 
ATOM     15  C   LIG    1       28.529 -16.982   4.778  0.00  0.00    -0.102 C 
BRANCH  15  16
ATOM     16  C   LIG    1       29.186 -18.168   5.345  0.00  0.00    +0.085 C 
ATOM     17  C   LIG    1       28.167 -19.257   5.640  0.00  0.00    +0.017 C 
ENDBRANCH  15  16
ENDBRANCH  12  14
ENDBRANCH   1  12
BRANCH   1  18
ATOM     18  C   LIG    1       25.189 -15.616   3.961  0.00  0.00    +0.053 C 
BRANCH  18  20
ATOM     19  C   LIG    1       25.386 -18.039   3.314  0.00  0.00    +0.004 C 
ATOM     20  C   LIG    1       25.594 -16.744   3.043  0.00  0.00    -0.033 C 
ENDBRANCH  18  20
ENDBRANCH   1  18
TORSDOF 5
ENDMDL
MODEL 3
REMARK VINA RESULT:      -0.7      1.880      3.851
REMARK  Name = *****
REMARK                            x       y       z     vdW  Elec       q    Type
REMARK                         _______ _______ _______ _____ _____    ______ ____
ROOT
ATOM      1  C   LIG    1       26.340 -14.978   3.707  0.00  0.00    +0.140 C 
ATOM      2  C   LIG    1       24.824 -15.053   3.878  0.00  0.00    +0.239 C 
ATOM      3  O   LIG    1       24.256 -16.093   4.218  0.00  0.00    -0.274 OA
ATOM      4  N   LIG    1       24.127 -13.864   3.691  0.00  0.00    -0.228 N 
ATOM      5  C   LIG    1       22.717 -13.855   4.039  0.00  0.00    +0.143 C 
ATOM      6  C   LIG    1       24.587 -12.832   2.901  0.00  0.00    +0.315 C 
ATOM      7  O   LIG    1       23.878 -11.924   2.473  0.00  0.00    -0.252 OA
ATOM      8  N   LIG    1       25.889 -12.893   2.510  0.00  0.00    -0.239 N 
ATOM      9  H   LIG    1       26.145 -12.227   1.794  0.00  0.00    +0.159 HD
ATOM     10  C   LIG    1       26.683 -14.002   2.589  0.00  0.00    +0.237 C 
ATOM     11  O   LIG    1       27.630 -14.104   1.814  0.00  0.00    -0.274 OA
ENDROOT
BRANCH   1  12
ATOM     12  C   LIG    1       26.923 -16.406   3.437  0.00  0.00    +0.085 C 
ATOM     13  C   LIG    1       27.991 -16.835   4.457  0.00  0.00    +0.023 C 
BRANCH  12  14
ATOM     14  C   LIG    1       25.867 -17.448   3.392  0.00  0.00    -0.098 C 
ATOM     15  C   LIG    1       25.081 -18.353   3.389  0.00  0.00    -0.102 C 
BRANCH  15  16
ATOM     16  C   LIG    1       24.199 -19.527   3.435  0.00  0.00    +0.085 C 
ATOM     17  C   LIG    1       23.194 -19.399   4.571  0.00  0.00    +0.017 C 
ENDBRANCH  15  16
ENDBRANCH  12  14
ENDBRANCH   1  12
BRANCH   1  18
ATOM     18  C   LIG    1       26.902 -14.350   5.025  0.00  0.00    +0.053 C 
BRANCH  18  20
ATOM     19  C   LIG    1       28.702 -12.603   4.827  0.00  0.00    +0.004 C 
ATOM     20  C   LIG    1       27.406 -12.931   4.906  0.00  0.00    -0.033 C 
ENDBRANCH  18  20
ENDBRANCH   1  18
TORSDOF 5
ENDMDL
MODEL 4
REMARK VINA RESULT:      -0.6      1.767      3.314
REMARK  Name = *****
REMARK                            x       y       z     vdW  Elec       q    Type
REMARK                         _______ _______ _______ _____ _____    ______ ____
ROOT
ATOM      1  C   LIG    1       25.686 -14.910   3.403  0.00  0.00    +0.140 C 
ATOM      2  C   LIG    1       26.874 -14.459   4.251  0.00  0.00    +0.239 C 
ATOM      3  O   LIG    1       27.931 -15.093   4.284  0.00  0.00    -0.274 OA
ATOM      4  N   LIG    1       26.719 -13.257   4.932  0.00  0.00    -0.228 N 
ATOM      5  C   LIG    1       27.892 -12.702   5.583  0.00  0.00    +0.143 C 
ATOM      6  C   LIG    1       25.493 -12.752   5.309  0.00  0.00    +0.315 C 
ATOM      7  O   LIG    1       25.339 -11.879   6.160  0.00  0.00    -0.252 OA
ATOM      8  N   LIG    1       24.393 -13.335   4.756  0.00  0.00    -0.239 N 
ATOM      9  H   LIG    1       23.517 -13.068   5.183  0.00  0.00    +0.159 HD
ATOM     10  C   LIG    1       24.385 -14.532   4.099  0.00  0.00    +0.237 C 
ATOM     11  O   LIG    1       23.341 -15.177   4.065  0.00  0.00    -0.274 OA
ENDROOT
BRANCH   1  12
ATOM     12  C   LIG    1       25.776 -16.448   3.124  0.00  0.00    +0.085 C 
ATOM     13  C   LIG    1       27.051 -17.100   3.688  0.00  0.00    +0.023 C 
BRANCH  12  14
ATOM     14  C   LIG    1       24.599 -17.186   3.644  0.00  0.00    -0.098 C 
ATOM     15  C   LIG    1       23.661 -17.847   3.992  0.00  0.00    -0.102 C 
BRANCH  15  16
ATOM     16  C   LIG    1       22.541 -18.733   4.337  0.00  0.00    +0.085 C 
ATOM     17  C   LIG    1       23.024 -19.908   5.173  0.00  0.00    +0.017 C 
ENDBRANCH  15  16
ENDBRANCH  12  14
ENDBRANCH   1  12
BRANCH   1  18
ATOM     18  C   LIG    1       25.738 -14.066   2.086  0.00  0.00    +0.053 C 
BRANCH  18  20
ATOM     19  C   LIG    1       24.689 -11.796   1.813  0.00  0.00    +0.004 C 
ATOM     20  C   LIG    1       24.575 -13.129   1.868  0.00  0.00    -0.033 C 
ENDBRANCH  18  20
ENDBRANCH   1  18
TORSDOF 5
ENDMDL
