MODEL 1
REMARK VINA RESULT:      -8.5      0.000      0.000
REMARK  Name = *****
REMARK                            x       y       z     vdW  Elec       q    Type
REMARK                         _______ _______ _______ _____ _____    ______ ____
ROOT
ATOM      1  N   LIG    1       25.042 -23.875   6.134  0.00  0.00    -0.303 NA
ENDROOT
BRANCH   1   3
ATOM      2  C   LIG    1       24.237 -26.237   5.664  0.00  0.00    +0.020 C 
ATOM      3  C   LIG    1       25.229 -25.119   5.358  0.00  0.00    +0.081 C 
ENDBRANCH   1   3
BRANCH   1   4
ATOM      4  C   LIG    1       26.153 -23.577   7.057  0.00  0.00    +0.085 C 
BRANCH   4   5
ATOM      5  C   LIG    1       26.369 -22.102   7.439  0.00  0.00    +0.020 C 
BRANCH   5   6
ATOM      6  C   LIG    1       27.810 -21.842   7.868  0.00  0.00    +0.036 C 
BRANCH   6   7
ATOM      7  C   LIG    1       28.488 -20.670   7.208  0.00  0.00    -0.047 A 
ATOM      8  C   LIG    1       27.940 -20.077   6.065  0.00  0.00    +0.003 A 
ATOM      9  C   LIG    1       28.592 -19.008   5.444  0.00  0.00    +0.000 A 
ATOM     10  C   LIG    1       29.796 -18.524   5.960  0.00  0.00    +0.000 A 
ATOM     11  C   LIG    1       30.345 -19.106   7.096  0.00  0.00    +0.000 A 
ATOM     12  C   LIG    1       29.699 -20.176   7.715  0.00  0.00    +0.003 A 
ENDBRANCH   6   7
ENDBRANCH   5   6
ENDBRANCH   4   5
ENDBRANCH   1   4
BRANCH   1  13
ATOM     13  C   LIG    1       23.721 -23.928   6.796  0.00  0.00    +0.085 C 
BRANCH  13  14
ATOM     14  C   LIG    1       22.708 -22.844   6.384  0.00  0.00    +0.020 C 
BRANCH  14  15
ATOM     15  C   LIG    1       23.120 -21.438   6.839  0.00  0.00    +0.036 C 
BRANCH  15  16
ATOM     16  C   LIG    1       23.382 -20.483   5.696  0.00  0.00    -0.047 A 
ATOM     17  C   LIG    1       24.574 -20.574   4.963  0.00  0.00    +0.003 A 
ATOM     18  C   LIG    1       24.810 -19.711   3.888  0.00  0.00    +0.000 A 
ATOM     19  C   LIG    1       23.867 -18.751   3.549  0.00  0.00    +0.000 A 
ATOM     20  C   LIG    1       22.675 -18.653   4.269  0.00  0.00    +0.000 A 
ATOM     21  C   LIG    1       22.431 -19.524   5.334  0.00  0.00    +0.003 A 
ENDBRANCH  15  16
ENDBRANCH  14  15
ENDBRANCH  13  14
ENDBRANCH   1  13
TORSDOF 9
ENDMDL
MODEL 2
REMARK VINA RESULT:      -8.4      1.322      4.459
REMARK  Name = *****
REMARK                            x       y       z     vdW  Elec       q    Type
REMARK                         _______ _______ _______ _____ _____    ______ ____
ROOT
ATOM      1  N   LIG    1       23.831 -19.956   5.135  0.00  0.00    -0.303 NA
ENDROOT
BRANCH   1   3
ATOM      2  C   LIG    1       22.006 -18.374   4.353  0.00  0.00    +0.020 C 
ATOM      3  C   LIG    1       23.284 -19.142   4.029  0.00  0.00    +0.081 C 
ENDBRANCH   1   3
BRANCH   1   4
ATOM      4  C   LIG    1       25.060 -20.691   4.779  0.00  0.00    +0.085 C 
BRANCH   4   5
ATOM      5  C   LIG    1       26.400 -20.047   5.179  0.00  0.00    +0.020 C 
BRANCH   5   6
ATOM      6  C   LIG    1       26.970 -20.685   6.442  0.00  0.00    +0.036 C 
BRANCH   6   7
ATOM      7  C   LIG    1       28.383 -20.295   6.793  0.00  0.00    -0.047 A 
ATOM      8  C   LIG    1       29.025 -19.251   6.116  0.00  0.00    +0.003 A 
ATOM      9  C   LIG    1       30.345 -18.916   6.430  0.00  0.00    +0.000 A 
ATOM     10  C   LIG    1       31.032 -19.620   7.422  0.00  0.00    +0.000 A 
ATOM     11  C   LIG    1       30.400 -20.654   8.100  0.00  0.00    +0.000 A 
ATOM     12  C   LIG    1       29.084 -20.994   7.785  0.00  0.00    +0.003 A 
ENDBRANCH   6   7
ENDBRANCH   5   6
ENDBRANCH   4   5
ENDBRANCH   1   4
BRANCH   1  13
ATOM     13  C   LIG    1       22.755 -20.822   5.660  0.00  0.00    +0.085 C 
BRANCH  13  14
ATOM     14  C   LIG    1       23.093 -21.644   6.916  0.00  0.00    +0.020 C 
BRANCH  14  15
ATOM     15  C   LIG    1       22.674 -23.116   6.798  0.00  0.00    +0.036 C 
BRANCH  15  16
ATOM     16  C   LIG    1       23.840 -24.068   6.651  0.00  0.00    -0.047 A 
ATOM     17  C   LIG    1       23.634 -25.361   6.149  0.00  0.00    +0.003 A 
ATOM     18  C   LIG    1       24.712 -26.237   5.986  0.00  0.00    +0.000 A 
ATOM     19  C   LIG    1       25.993 -25.830   6.332  0.00  0.00    +0.000 A 
ATOM     20  C   LIG    1       26.212 -24.545   6.829  0.00  0.00    +0.000 A 
ATOM     21  C   LIG    1       25.137 -23.664   6.979  0.00  0.00    +0.003 A 
ENDBRANCH  15  16
ENDBRANCH  14  15
ENDBRANCH  13  14
ENDBRANCH   1  13
TORSDOF 9
ENDMDL
MODEL 3
REMARK VINA RESULT:      -8.4      0.767      5.127
REMARK  Name = *****
REMARK                            x       y       z     vdW  Elec       q    Type
REMARK                         _______ _______ _______ _____ _____    ______ ____
ROOT
ATOM      1  N   LIG    1       25.313 -23.870   7.036  0.00  0.00    -0.303 NA
ENDROOT
BRANCH   1   3
ATOM      2  C   LIG    1       25.557 -25.758   5.356  0.00  0.00    +0.020 C 
ATOM      3  C   LIG    1       25.840 -25.222   6.756  0.00  0.00    +0.081 C 
ENDBRANCH   1   3
BRANCH   1   4
ATOM      4  C   LIG    1       24.192 -23.477   6.162  0.00  0.00    +0.085 C 
BRANCH   4   5
ATOM      5  C   LIG    1       23.010 -22.748   6.826  0.00  0.00    +0.020 C 
BRANCH   5   6
ATOM      6  C   LIG    1       23.326 -21.274   7.064  0.00  0.00    +0.036 C 
BRANCH   6   7
ATOM      7  C   LIG    1       23.475 -20.428   5.827  0.00  0.00    -0.047 A 
ATOM      8  C   LIG    1       24.662 -20.449   5.085  0.00  0.00    +0.003 A 
ATOM      9  C   LIG    1       24.800 -19.639   3.954  0.00  0.00    +0.000 A 
ATOM     10  C   LIG    1       23.753 -18.803   3.557  0.00  0.00    +0.000 A 
ATOM     11  C   LIG    1       22.572 -18.779   4.286  0.00  0.00    +0.000 A 
ATOM     12  C   LIG    1       22.433 -19.583   5.418  0.00  0.00    +0.003 A 
ENDBRANCH   6   7
ENDBRANCH   5   6
ENDBRANCH   4   5
ENDBRANCH   1   4
BRANCH   1  13
ATOM     13  C   LIG    1       26.440 -22.913   7.019  0.00  0.00    +0.085 C 
BRANCH  13  14
ATOM     14  C   LIG    1       26.660 -22.096   8.305  0.00  0.00    +0.020 C 
BRANCH  14  15
ATOM     15  C   LIG    1       26.712 -20.583   8.050  0.00  0.00    +0.036 C 
BRANCH  15  16
ATOM     16  C   LIG    1       28.021 -20.114   7.455  0.00  0.00    -0.047 A 
ATOM     17  C   LIG    1       28.055 -19.587   6.156  0.00  0.00    +0.003 A 
ATOM     18  C   LIG    1       29.257 -19.127   5.611  0.00  0.00    +0.000 A 
ATOM     19  C   LIG    1       30.428 -19.201   6.353  0.00  0.00    +0.000 A 
ATOM     20  C   LIG    1       30.407 -19.721   7.648  0.00  0.00    +0.000 A 
ATOM     21  C   LIG    1       29.203 -20.167   8.199  0.00  0.00    +0.003 A 
ENDBRANCH  15  16
ENDBRANCH  14  15
ENDBRANCH  13  14
ENDBRANCH   1  13
TORSDOF 9
ENDMDL
MODEL 4
REMARK VINA RESULT:      -8.3      1.239      6.318
REMARK  Name = *****
REMARK                            x       y       z     vdW  Elec       q    Type
REMARK                         _______ _______ _______ _____ _____    ______ ____
ROOT
ATOM      1  N   LIG    1       24.062 -20.900   5.384  0.00  0.00    -0.303 NA
ENDROOT
BRANCH   1   3
ATOM      2  C   LIG    1       22.401 -19.061   4.832  0.00  0.00    +0.020 C 
ATOM      3  C   LIG    1       23.421 -20.080   4.334  0.00  0.00    +0.081 C 
ENDBRANCH   1   3
BRANCH   1   4
ATOM      4  C   LIG    1       23.452 -20.740   6.717  0.00  0.00    +0.085 C 
BRANCH   4   5
ATOM      5  C   LIG    1       23.211 -22.022   7.534  0.00  0.00    +0.020 C 
BRANCH   5   6
ATOM      6  C   LIG    1       22.880 -23.206   6.631  0.00  0.00    +0.036 C 
BRANCH   6   7
ATOM      7  C   LIG    1       23.932 -24.281   6.550  0.00  0.00    -0.047 A 
ATOM      8  C   LIG    1       25.261 -24.010   6.896  0.00  0.00    +0.003 A 
ATOM      9  C   LIG    1       26.233 -25.008   6.791  0.00  0.00    +0.000 A 
ATOM     10  C   LIG    1       25.886 -26.284   6.339  0.00  0.00    +0.000 A 
ATOM     11  C   LIG    1       24.569 -26.561   5.996  0.00  0.00    +0.000 A 
ATOM     12  C   LIG    1       23.596 -25.565   6.096  0.00  0.00    +0.003 A 
ENDBRANCH   6   7
ENDBRANCH   5   6
ENDBRANCH   4   5
ENDBRANCH   1   4
BRANCH   1  13
ATOM     13  C   LIG    1       25.516 -20.637   5.363  0.00  0.00    +0.085 C 
BRANCH  13  14
ATOM     14  C   LIG    1       26.184 -20.390   6.727  0.00  0.00    +0.020 C 
BRANCH  14  15
ATOM     15  C   LIG    1       27.373 -21.324   6.990  0.00  0.00    +0.036 C 
BRANCH  15  16
ATOM     16  C   LIG    1       28.701 -20.606   7.075  0.00  0.00    -0.047 A 
ATOM     17  C   LIG    1       28.955 -19.495   6.258  0.00  0.00    +0.003 A 
ATOM     18  C   LIG    1       30.171 -18.811   6.351  0.00  0.00    +0.000 A 
ATOM     19  C   LIG    1       31.139 -19.238   7.250  0.00  0.00    +0.000 A 
ATOM     20  C   LIG    1       30.897 -20.340   8.072  0.00  0.00    +0.000 A 
ATOM     21  C   LIG    1       29.676 -21.016   7.989  0.00  0.00    +0.003 A 
ENDBRANCH  15  16
ENDBRANCH  14  15
ENDBRANCH  13  14
ENDBRANCH   1  13
TORSDOF 9
ENDMDL
MODEL 5
REMARK VINA RESULT:      -8.1      1.312      6.405
REMARK  Name = *****
REMARK                            x       y       z     vdW  Elec       q    Type
REMARK                         _______ _______ _______ _____ _____    ______ ____
ROOT
ATOM      1  N   LIG    1       24.189 -20.820   5.256  0.00  0.00    -0.303 NA
ENDROOT
BRANCH   1   3
ATOM      2  C   LIG    1       22.387 -19.118   4.708  0.00  0.00    +0.020 C 
ATOM      3  C   LIG    1       23.201 -20.332   4.271  0.00  0.00    +0.081 C 
ENDBRANCH   1   3
BRANCH   1   4
ATOM      4  C   LIG    1       23.783 -20.609   6.658  0.00  0.00    +0.085 C 
BRANCH   4   5
ATOM      5  C   LIG    1       23.696 -21.857   7.556  0.00  0.00    +0.020 C 
BRANCH   5   6
ATOM      6  C   LIG    1       23.106 -23.045   6.804  0.00  0.00    +0.036 C 
BRANCH   6   7
ATOM      7  C   LIG    1       24.046 -24.195   6.555  0.00  0.00    -0.047 A 
ATOM      8  C   LIG    1       23.570 -25.413   6.054  0.00  0.00    +0.003 A 
ATOM      9  C   LIG    1       24.447 -26.482   5.852  0.00  0.00    +0.000 A 
ATOM     10  C   LIG    1       25.805 -26.343   6.149  0.00  0.00    +0.000 A 
ATOM     11  C   LIG    1       26.285 -25.138   6.643  0.00  0.00    +0.000 A 
ATOM     12  C   LIG    1       25.411 -24.070   6.851  0.00  0.00    +0.003 A 
ENDBRANCH   6   7
ENDBRANCH   5   6
ENDBRANCH   4   5
ENDBRANCH   1   4
BRANCH   1  13
ATOM     13  C   LIG    1       25.507 -20.238   4.927  0.00  0.00    +0.085 C 
BRANCH  13  14
ATOM     14  C   LIG    1       26.600 -20.375   6.003  0.00  0.00    +0.020 C 
BRANCH  14  15
ATOM     15  C   LIG    1       27.962 -19.837   5.543  0.00  0.00    +0.036 C 
BRANCH  15  16
ATOM     16  C   LIG    1       29.063 -20.023   6.564  0.00  0.00    -0.047 A 
ATOM     17  C   LIG    1       29.011 -21.094   7.468  0.00  0.00    +0.003 A 
ATOM     18  C   LIG    1       30.039 -21.286   8.396  0.00  0.00    +0.000 A 
ATOM     19  C   LIG    1       31.113 -20.407   8.433  0.00  0.00    +0.000 A 
ATOM     20  C   LIG    1       31.177 -19.339   7.537  0.00  0.00    +0.000 A 
ATOM     21  C   LIG    1       30.158 -19.155   6.598  0.00  0.00    +0.003 A 
ENDBRANCH  15  16
ENDBRANCH  14  15
ENDBRANCH  13  14
ENDBRANCH   1  13
TORSDOF 9
ENDMDL
MODEL 6
REMARK VINA RESULT:      -8.0      2.952      4.858
REMARK  Name = *****
REMARK                            x       y       z     vdW  Elec       q    Type
REMARK                         _______ _______ _______ _____ _____    ______ ____
ROOT
ATOM      1  N   LIG    1       28.717 -20.256   7.498  0.00  0.00    -0.303 NA
ENDROOT
BRANCH   1   3
ATOM      2  C   LIG    1       28.821 -18.785   5.431  0.00  0.00    +0.020 C 
ATOM      3  C   LIG    1       28.688 -20.186   6.022  0.00  0.00    +0.081 C 
ENDBRANCH   1   3
BRANCH   1   4
ATOM      4  C   LIG    1       30.038 -20.610   8.050  0.00  0.00    +0.085 C 
BRANCH   4   5
ATOM      5  C   LIG    1       31.056 -19.466   8.217  0.00  0.00    +0.020 C 
BRANCH   5   6
ATOM      6  C   LIG    1       30.400 -18.216   8.795  0.00  0.00    +0.036 C 
BRANCH   6   7
ATOM      7  C   LIG    1       31.215 -17.460   9.812  0.00  0.00    -0.047 A 
ATOM      8  C   LIG    1       30.906 -17.535  11.175  0.00  0.00    +0.003 A 
ATOM      9  C   LIG    1       31.651 -16.808  12.107  0.00  0.00    +0.000 A 
ATOM     10  C   LIG    1       32.710 -16.000  11.684  0.00  0.00    +0.000 A 
ATOM     11  C   LIG    1       33.025 -15.924  10.334  0.00  0.00    +0.000 A 
ATOM     12  C   LIG    1       32.279 -16.645   9.400  0.00  0.00    +0.003 A 
ENDBRANCH   6   7
ENDBRANCH   5   6
ENDBRANCH   4   5
ENDBRANCH   1   4
BRANCH   1  13
ATOM     13  C   LIG    1       27.629 -21.149   7.948  0.00  0.00    +0.085 C 
BRANCH  13  14
ATOM     14  C   LIG    1       26.194 -20.682   7.645  0.00  0.00    +0.020 C 
BRANCH  14  15
ATOM     15  C   LIG    1       25.561 -21.424   6.460  0.00  0.00    +0.036 C 
BRANCH  15  16
ATOM     16  C   LIG    1       24.647 -20.558   5.622  0.00  0.00    -0.047 A 
ATOM     17  C   LIG    1       25.133 -19.939   4.461  0.00  0.00    +0.003 A 
ATOM     18  C   LIG    1       24.285 -19.159   3.668  0.00  0.00    +0.000 A 
ATOM     19  C   LIG    1       22.958 -18.986   4.035  0.00  0.00    +0.000 A 
ATOM     20  C   LIG    1       22.461 -19.599   5.185  0.00  0.00    +0.000 A 
ATOM     21  C   LIG    1       23.304 -20.391   5.971  0.00  0.00    +0.003 A 
ENDBRANCH  15  16
ENDBRANCH  14  15
ENDBRANCH  13  14
ENDBRANCH   1  13
TORSDOF 9
ENDMDL
MODEL 7
REMARK VINA RESULT:      -7.9      1.986      6.849
REMARK  Name = *****
REMARK                            x       y       z     vdW  Elec       q    Type
REMARK                         _______ _______ _______ _____ _____    ______ ____
ROOT
ATOM      1  N   LIG    1       27.091 -21.420   6.935  0.00  0.00    -0.303 NA
ENDROOT
BRANCH   1   3
ATOM      2  C   LIG    1       25.767 -20.578   8.931  0.00  0.00    +0.020 C 
ATOM      3  C   LIG    1       26.474 -20.262   7.616  0.00  0.00    +0.081 C 
ENDBRANCH   1   3
BRANCH   1   4
ATOM      4  C   LIG    1       26.520 -22.719   7.336  0.00  0.00    +0.085 C 
BRANCH   4   5
ATOM      5  C   LIG    1       25.544 -23.388   6.352  0.00  0.00    +0.020 C 
BRANCH   5   6
ATOM      6  C   LIG    1       24.135 -22.820   6.490  0.00  0.00    +0.036 C 
BRANCH   6   7
ATOM      7  C   LIG    1       23.827 -21.616   5.638  0.00  0.00    -0.047 A 
ATOM      8  C   LIG    1       24.479 -21.420   4.415  0.00  0.00    +0.003 A 
ATOM      9  C   LIG    1       24.206 -20.286   3.646  0.00  0.00    +0.000 A 
ATOM     10  C   LIG    1       23.279 -19.340   4.092  0.00  0.00    +0.000 A 
ATOM     11  C   LIG    1       22.626 -19.530   5.302  0.00  0.00    +0.000 A 
ATOM     12  C   LIG    1       22.900 -20.658   6.075  0.00  0.00    +0.003 A 
ENDBRANCH   6   7
ENDBRANCH   5   6
ENDBRANCH   4   5
ENDBRANCH   1   4
BRANCH   1  13
ATOM     13  C   LIG    1       28.557 -21.339   7.105  0.00  0.00    +0.085 C 
BRANCH  13  14
ATOM     14  C   LIG    1       29.205 -19.977   6.799  0.00  0.00    +0.020 C 
BRANCH  14  15
ATOM     15  C   LIG    1       30.645 -19.870   7.319  0.00  0.00    +0.036 C 
BRANCH  15  16
ATOM     16  C   LIG    1       30.850 -18.744   8.309  0.00  0.00    -0.047 A 
ATOM     17  C   LIG    1       29.827 -18.399   9.203  0.00  0.00    +0.003 A 
ATOM     18  C   LIG    1       30.019 -17.377  10.138  0.00  0.00    +0.000 A 
ATOM     19  C   LIG    1       31.226 -16.691  10.176  0.00  0.00    +0.000 A 
ATOM     20  C   LIG    1       32.253 -17.028   9.293  0.00  0.00    +0.000 A 
ATOM     21  C   LIG    1       32.066 -18.059   8.368  0.00  0.00    +0.003 A 
ENDBRANCH  15  16
ENDBRANCH  14  15
ENDBRANCH  13  14
ENDBRANCH   1  13
TORSDOF 9
ENDMDL
MODEL 8
REMARK VINA RESULT:      -7.9      2.965      8.001
REMARK  Name = *****
REMARK                            x       y       z     vdW  Elec       q    Type
REMARK                         _______ _______ _______ _____ _____    ______ ____
ROOT
ATOM      1  N   LIG    1       29.203 -20.426   6.613  0.00  0.00    -0.303 NA
ENDROOT
BRANCH   1   3
ATOM      2  C   LIG    1       29.027 -18.266   5.290  0.00  0.00    +0.020 C 
ATOM      3  C   LIG    1       29.917 -19.341   5.909  0.00  0.00    +0.081 C 
ENDBRANCH   1   3
BRANCH   1   4
ATOM      4  C   LIG    1       27.754 -20.189   6.756  0.00  0.00    +0.085 C 
BRANCH   4   5
ATOM      5  C   LIG    1       27.079 -20.727   8.030  0.00  0.00    +0.020 C 
BRANCH   5   6
ATOM      6  C   LIG    1       25.559 -20.729   7.898  0.00  0.00    +0.036 C 
BRANCH   6   7
ATOM      7  C   LIG    1       24.941 -22.032   7.461  0.00  0.00    -0.047 A 
ATOM      8  C   LIG    1       25.735 -23.167   7.256  0.00  0.00    +0.003 A 
ATOM      9  C   LIG    1       25.156 -24.363   6.824  0.00  0.00    +0.000 A 
ATOM     10  C   LIG    1       23.780 -24.434   6.593  0.00  0.00    +0.000 A 
ATOM     11  C   LIG    1       22.985 -23.313   6.797  0.00  0.00    +0.000 A 
ATOM     12  C   LIG    1       23.562 -22.116   7.223  0.00  0.00    +0.003 A 
ENDBRANCH   6   7
ENDBRANCH   5   6
ENDBRANCH   4   5
ENDBRANCH   1   4
BRANCH   1  13
ATOM     13  C   LIG    1       29.889 -20.685   7.896  0.00  0.00    +0.085 C 
BRANCH  13  14
ATOM     14  C   LIG    1       30.862 -19.595   8.382  0.00  0.00    +0.020 C 
BRANCH  14  15
ATOM     15  C   LIG    1       30.150 -18.416   9.058  0.00  0.00    +0.036 C 
BRANCH  15  16
ATOM     16  C   LIG    1       31.070 -17.546   9.885  0.00  0.00    -0.047 A 
ATOM     17  C   LIG    1       32.175 -16.924   9.287  0.00  0.00    +0.003 A 
ATOM     18  C   LIG    1       33.015 -16.097  10.040  0.00  0.00    +0.000 A 
ATOM     19  C   LIG    1       32.761 -15.897  11.390  0.00  0.00    +0.000 A 
ATOM     20  C   LIG    1       31.662 -16.508  11.996  0.00  0.00    +0.000 A 
ATOM     21  C   LIG    1       30.814 -17.323  11.241  0.00  0.00    +0.003 A 
ENDBRANCH  15  16
ENDBRANCH  14  15
ENDBRANCH  13  14
ENDBRANCH   1  13
TORSDOF 9
ENDMDL
MODEL 9
REMARK VINA RESULT:      -7.9      1.364      6.366
REMARK  Name = *****
REMARK                            x       y       z     vdW  Elec       q    Type
REMARK                         _______ _______ _______ _____ _____    ______ ____
ROOT
ATOM      1  N   LIG    1       24.403 -21.277   6.551  0.00  0.00    -0.303 NA
ENDROOT
BRANCH   1   3
ATOM      2  C   LIG    1       25.111 -20.413   4.271  0.00  0.00    +0.020 C 
ATOM      3  C   LIG    1       24.227 -20.248   5.505  0.00  0.00    +0.081 C 
ENDBRANCH   1   3
BRANCH   1   4
ATOM      4  C   LIG    1       23.164 -22.006   6.880  0.00  0.00    +0.085 C 
BRANCH   4   5
ATOM      5  C   LIG    1       23.200 -23.540   6.751  0.00  0.00    +0.020 C 
BRANCH   5   6
ATOM      6  C   LIG    1       24.472 -24.011   6.053  0.00  0.00    +0.036 C 
BRANCH   6   7
ATOM      7  C   LIG    1       24.801 -25.473   6.208  0.00  0.00    -0.047 A 
ATOM      8  C   LIG    1       24.070 -26.448   5.518  0.00  0.00    +0.003 A 
ATOM      9  C   LIG    1       24.366 -27.803   5.690  0.00  0.00    +0.000 A 
ATOM     10  C   LIG    1       25.393 -28.194   6.552  0.00  0.00    +0.000 A 
ATOM     11  C   LIG    1       26.124 -27.233   7.238  0.00  0.00    +0.000 A 
ATOM     12  C   LIG    1       25.828 -25.880   7.072  0.00  0.00    +0.003 A 
ENDBRANCH   6   7
ENDBRANCH   5   6
ENDBRANCH   4   5
ENDBRANCH   1   4
BRANCH   1  13
ATOM     13  C   LIG    1       25.050 -20.650   7.723  0.00  0.00    +0.085 C 
BRANCH  13  14
ATOM     14  C   LIG    1       26.231 -21.419   8.342  0.00  0.00    +0.020 C 
BRANCH  14  15
ATOM     15  C   LIG    1       27.254 -21.885   7.297  0.00  0.00    +0.036 C 
BRANCH  15  16
ATOM     16  C   LIG    1       28.388 -20.907   7.081  0.00  0.00    -0.047 A 
ATOM     17  C   LIG    1       28.275 -19.904   6.108  0.00  0.00    +0.003 A 
ATOM     18  C   LIG    1       29.309 -18.981   5.921  0.00  0.00    +0.000 A 
ATOM     19  C   LIG    1       30.459 -19.063   6.694  0.00  0.00    +0.000 A 
ATOM     20  C   LIG    1       30.582 -20.055   7.668  0.00  0.00    +0.000 A 
ATOM     21  C   LIG    1       29.543 -20.969   7.865  0.00  0.00    +0.003 A 
ENDBRANCH  15  16
ENDBRANCH  14  15
ENDBRANCH  13  14
ENDBRANCH   1  13
TORSDOF 9
ENDMDL
