MODEL 1
REMARK VINA RESULT:      -5.9      0.000      0.000
REMARK  Name = *****
REMARK                            x       y       z     vdW  Elec       q    Type
REMARK                         _______ _______ _______ _____ _____    ______ ____
ROOT
ATOM      1  C   LIG    1       24.954 -18.534   3.440  0.00  0.00    +0.161 C 
ATOM      2  C   LIG    1       23.578 -19.100   3.769  0.00  0.00    +0.179 C 
ATOM      3  O   LIG    1       22.528 -18.886   3.198  0.00  0.00    -0.291 OA
ATOM      4  C   LIG    1       23.708 -20.007   4.912  0.00  0.00    +0.029 A 
ATOM      5  C   LIG    1       25.042 -20.127   5.268  0.00  0.00    +0.029 A 
ATOM      6  C   LIG    1       25.446 -20.900   6.340  0.00  0.00    +0.012 A 
ATOM      7  C   LIG    1       24.453 -21.571   7.062  0.00  0.00    +0.001 A 
ATOM      8  C   LIG    1       23.097 -21.460   6.695  0.00  0.00    +0.001 A 
ATOM      9  C   LIG    1       22.711 -20.671   5.605  0.00  0.00    +0.012 A 
ATOM     10  C   LIG    1       25.866 -19.313   4.377  0.00  0.00    +0.179 C 
ATOM     11  O   LIG    1       27.082 -19.285   4.430  0.00  0.00    -0.291 OA
ENDROOT
BRANCH   1  15
ATOM     12  C   LIG    1       25.219 -14.223   3.899  0.00  0.00    +0.120 A 
ATOM     13  C   LIG    1       24.031 -14.885   4.202  0.00  0.00    +0.046 A 
ATOM     14  C   LIG    1       23.931 -16.272   4.060  0.00  0.00    +0.008 A 
ATOM     15  C   LIG    1       25.028 -17.031   3.621  0.00  0.00    -0.029 A 
ATOM     16  C   LIG    1       26.216 -16.355   3.311  0.00  0.00    +0.008 A 
ATOM     17  C   LIG    1       26.310 -14.964   3.450  0.00  0.00    +0.046 A 
BRANCH  12  19
ATOM     18  C   LIG    1       23.969 -12.212   3.761  0.00  0.00    +0.277 C 
ATOM     19  O   LIG    1       25.193 -12.866   4.080  0.00  0.00    -0.495 OA
ENDBRANCH  12  19
ENDBRANCH   1  15
TORSDOF 2
ENDMDL
MODEL 2
REMARK VINA RESULT:      -5.8      0.563      1.237
REMARK  Name = *****
REMARK                            x       y       z     vdW  Elec       q    Type
REMARK                         _______ _______ _______ _____ _____    ______ ____
ROOT
ATOM      1  C   LIG    1       24.288 -18.434   3.484  0.00  0.00    +0.161 C 
ATOM      2  C   LIG    1       23.053 -18.993   4.182  0.00  0.00    +0.179 C 
ATOM      3  O   LIG    1       21.888 -18.749   3.945  0.00  0.00    -0.291 OA
ATOM      4  C   LIG    1       23.489 -19.935   5.216  0.00  0.00    +0.029 A 
ATOM      5  C   LIG    1       24.867 -20.082   5.167  0.00  0.00    +0.029 A 
ATOM      6  C   LIG    1       25.548 -20.891   6.058  0.00  0.00    +0.012 A 
ATOM      7  C   LIG    1       24.792 -21.572   7.018  0.00  0.00    +0.001 A 
ATOM      8  C   LIG    1       23.391 -21.433   7.062  0.00  0.00    +0.001 A 
ATOM      9  C   LIG    1       22.722 -20.607   6.150  0.00  0.00    +0.012 A 
ATOM     10  C   LIG    1       25.415 -19.252   4.097  0.00  0.00    +0.179 C 
ATOM     11  O   LIG    1       26.595 -19.239   3.797  0.00  0.00    -0.291 OA
ENDROOT
BRANCH   1  15
ATOM     12  C   LIG    1       24.676 -14.150   4.089  0.00  0.00    +0.120 A 
ATOM     13  C   LIG    1       25.730 -14.875   3.537  0.00  0.00    +0.046 A 
ATOM     14  C   LIG    1       25.619 -16.254   3.335  0.00  0.00    +0.008 A 
ATOM     15  C   LIG    1       24.440 -16.938   3.673  0.00  0.00    -0.029 A 
ATOM     16  C   LIG    1       23.389 -16.201   4.236  0.00  0.00    +0.008 A 
ATOM     17  C   LIG    1       23.506 -14.820   4.441  0.00  0.00    +0.046 A 
BRANCH  12  19
ATOM     18  C   LIG    1       23.851 -11.943   3.827  0.00  0.00    +0.277 C 
ATOM     19  O   LIG    1       24.905 -12.808   4.234  0.00  0.00    -0.495 OA
ENDBRANCH  12  19
ENDBRANCH   1  15
TORSDOF 2
ENDMDL
MODEL 3
REMARK VINA RESULT:      -4.3      1.640      2.159
REMARK  Name = *****
REMARK                            x       y       z     vdW  Elec       q    Type
REMARK                         _______ _______ _______ _____ _____    ______ ____
ROOT
ATOM      1  C   LIG    1       26.561 -19.293   3.941  0.00  0.00    +0.161 C 
ATOM      2  C   LIG    1       25.171 -19.745   3.511  0.00  0.00    +0.179 C 
ATOM      3  O   LIG    1       24.656 -19.634   2.417  0.00  0.00    -0.291 OA
ATOM      4  C   LIG    1       24.518 -20.391   4.652  0.00  0.00    +0.029 A 
ATOM      5  C   LIG    1       25.399 -20.462   5.720  0.00  0.00    +0.029 A 
ATOM      6  C   LIG    1       25.028 -20.999   6.939  0.00  0.00    +0.012 A 
ATOM      7  C   LIG    1       23.720 -21.479   7.062  0.00  0.00    +0.001 A 
ATOM      8  C   LIG    1       22.826 -21.418   5.974  0.00  0.00    +0.001 A 
ATOM      9  C   LIG    1       23.223 -20.870   4.749  0.00  0.00    +0.012 A 
ATOM     10  C   LIG    1       26.682 -19.875   5.342  0.00  0.00    +0.179 C 
ATOM     11  O   LIG    1       27.655 -19.862   6.074  0.00  0.00    -0.291 OA
ENDROOT
BRANCH   1  15
ATOM     12  C   LIG    1       26.968 -14.971   3.784  0.00  0.00    +0.120 A 
ATOM     13  C   LIG    1       27.980 -15.746   4.346  0.00  0.00    +0.046 A 
ATOM     14  C   LIG    1       27.864 -17.138   4.402  0.00  0.00    +0.008 A 
ATOM     15  C   LIG    1       26.731 -17.787   3.885  0.00  0.00    -0.029 A 
ATOM     16  C   LIG    1       25.714 -16.997   3.330  0.00  0.00    +0.008 A 
ATOM     17  C   LIG    1       25.833 -15.602   3.279  0.00  0.00    +0.046 A 
BRANCH  12  19
ATOM     18  C   LIG    1       28.438 -13.195   3.229  0.00  0.00    +0.277 C 
ATOM     19  O   LIG    1       27.199 -13.622   3.785  0.00  0.00    -0.495 OA
ENDBRANCH  12  19
ENDBRANCH   1  15
TORSDOF 2
ENDMDL
MODEL 4
REMARK VINA RESULT:      -3.9      1.273      1.529
REMARK  Name = *****
REMARK                            x       y       z     vdW  Elec       q    Type
REMARK                         _______ _______ _______ _____ _____    ______ ____
ROOT
ATOM      1  C   LIG    1       23.859 -17.914   3.463  0.00  0.00    +0.161 C 
ATOM      2  C   LIG    1       22.878 -18.136   4.607  0.00  0.00    +0.179 C 
ATOM      3  O   LIG    1       21.891 -17.483   4.882  0.00  0.00    -0.291 OA
ATOM      4  C   LIG    1       23.296 -19.325   5.356  0.00  0.00    +0.029 A 
ATOM      5  C   LIG    1       24.387 -19.911   4.734  0.00  0.00    +0.029 A 
ATOM      6  C   LIG    1       25.006 -21.035   5.251  0.00  0.00    +0.012 A 
ATOM      7  C   LIG    1       24.485 -21.572   6.433  0.00  0.00    +0.001 A 
ATOM      8  C   LIG    1       23.368 -20.984   7.060  0.00  0.00    +0.001 A 
ATOM      9  C   LIG    1       22.758 -19.846   6.519  0.00  0.00    +0.012 A 
ATOM     10  C   LIG    1       24.746 -19.148   3.542  0.00  0.00    +0.179 C 
ATOM     11  O   LIG    1       25.633 -19.480   2.775  0.00  0.00    -0.291 OA
ENDROOT
BRANCH   1  15
ATOM     12  C   LIG    1       26.080 -14.193   3.764  0.00  0.00    +0.120 A 
ATOM     13  C   LIG    1       24.696 -14.194   3.923  0.00  0.00    +0.046 A 
ATOM     14  C   LIG    1       23.968 -15.383   3.830  0.00  0.00    +0.008 A 
ATOM     15  C   LIG    1       24.615 -16.606   3.586  0.00  0.00    -0.029 A 
ATOM     16  C   LIG    1       26.007 -16.593   3.418  0.00  0.00    +0.008 A 
ATOM     17  C   LIG    1       26.732 -15.397   3.508  0.00  0.00    +0.046 A 
BRANCH  12  19
ATOM     18  C   LIG    1       28.074 -12.973   4.158  0.00  0.00    +0.277 C 
ATOM     19  O   LIG    1       26.679 -12.967   3.879  0.00  0.00    -0.495 OA
ENDBRANCH  12  19
ENDBRANCH   1  15
TORSDOF 2
ENDMDL
