MODEL 1
REMARK VINA RESULT:      -7.5      0.000      0.000
REMARK  Name = *****
REMARK                            x       y       z     vdW  Elec       q    Type
REMARK                         _______ _______ _______ _____ _____    ______ ____
ROOT
ATOM      1  C   LIG    1       24.589 -20.446   4.912  0.00  0.00    +0.066 C 
ATOM      2  C   LIG    1       23.329 -20.524   5.775  0.00  0.00    +0.045 C 
ATOM      3  C   LIG    1       22.646 -19.209   6.089  0.00  0.00    +0.063 C 
ATOM      4  N   LIG    1       22.877 -21.576   6.360  0.00  0.00    -0.158 NA
ATOM      5  N   LIG    1       23.432 -22.820   6.082  0.00  0.00    -0.149 NA
ATOM      6  C   LIG    1       24.694 -23.051   6.251  0.00  0.00    +0.101 C 
ATOM      7  C   LIG    1       25.729 -22.018   6.547  0.00  0.00    +0.010 A 
ATOM      8  C   LIG    1       26.734 -22.261   7.490  0.00  0.00    +0.059 A 
ATOM      9  C   LIG    1       27.839 -21.404   7.598  0.00  0.00    +0.162 A 
ATOM     10  C   LIG    1       27.926 -20.277   6.765  0.00  0.00    +0.162 A 
ATOM     11  C   LIG    1       26.878 -20.011   5.872  0.00  0.00    +0.054 A 
ATOM     12  C   LIG    1       25.761 -20.853   5.779  0.00  0.00    -0.026 A 
ENDROOT
BRANCH   6  13
ATOM     13  C   LIG    1       25.161 -24.475   6.061  0.00  0.00    +0.006 A 
ATOM     14  C   LIG    1       25.674 -25.252   7.109  0.00  0.00    +0.059 A 
ATOM     15  C   LIG    1       26.036 -26.597   6.904  0.00  0.00    +0.162 A 
ATOM     16  C   LIG    1       25.883 -27.162   5.629  0.00  0.00    +0.162 A 
ATOM     17  C   LIG    1       25.464 -26.350   4.564  0.00  0.00    +0.050 A 
ATOM     18  C   LIG    1       25.101 -25.023   4.778  0.00  0.00    +0.014 A 
BRANCH  15  19
ATOM     19  O   LIG    1       26.499 -27.204   8.046  0.00  0.00    -0.491 OA
ATOM     20  C   LIG    1       25.854 -28.396   8.480  0.00  0.00    +0.277 C 
ENDBRANCH  15  19
BRANCH  16  21
ATOM     21  O   LIG    1       26.186 -28.481   5.418  0.00  0.00    -0.491 OA
ATOM     22  C   LIG    1       25.060 -29.329   5.203  0.00  0.00    +0.277 C 
ENDBRANCH  16  21
ENDBRANCH   6  13
BRANCH   1  24
ATOM     23  C   LIG    1       24.456 -20.174   2.392  0.00  0.00    +0.005 C 
ATOM     24  C   LIG    1       24.467 -21.156   3.559  0.00  0.00    +0.011 C 
ENDBRANCH   1  24
BRANCH   9  25
ATOM     25  O   LIG    1       28.764 -21.854   8.505  0.00  0.00    -0.491 OA
ATOM     26  C   LIG    1       30.116 -21.459   8.327  0.00  0.00    +0.277 C 
ENDBRANCH   9  25
BRANCH  10  27
ATOM     27  O   LIG    1       29.059 -19.508   6.779  0.00  0.00    -0.491 OA
ATOM     28  C   LIG    1       29.268 -18.690   5.631  0.00  0.00    +0.277 C 
ENDBRANCH  10  27
TORSDOF 6
ENDMDL
MODEL 2
REMARK VINA RESULT:      -6.9      6.934     10.280
REMARK  Name = *****
REMARK                            x       y       z     vdW  Elec       q    Type
REMARK                         _______ _______ _______ _____ _____    ______ ____
ROOT
ATOM      1  C   LIG    1       26.955 -27.993  12.007  0.00  0.00    +0.066 C 
ATOM      2  C   LIG    1       27.280 -29.010  13.101  0.00  0.00    +0.045 C 
ATOM      3  C   LIG    1       28.692 -29.559  13.113  0.00  0.00    +0.063 C 
ATOM      4  N   LIG    1       26.439 -29.534  13.921  0.00  0.00    -0.158 NA
ATOM      5  N   LIG    1       25.139 -29.047  13.991  0.00  0.00    -0.149 NA
ATOM      6  C   LIG    1       24.373 -29.011  12.948  0.00  0.00    +0.101 C 
ATOM      7  C   LIG    1       24.810 -29.271  11.546  0.00  0.00    +0.010 A 
ATOM      8  C   LIG    1       24.019 -30.032  10.678  0.00  0.00    +0.059 A 
ATOM      9  C   LIG    1       24.300 -30.078   9.304  0.00  0.00    +0.162 A 
ATOM     10  C   LIG    1       25.401 -29.369   8.799  0.00  0.00    +0.162 A 
ATOM     11  C   LIG    1       26.224 -28.666   9.691  0.00  0.00    +0.054 A 
ATOM     12  C   LIG    1       25.959 -28.638  11.067  0.00  0.00    -0.026 A 
ENDROOT
BRANCH   6  13
ATOM     13  C   LIG    1       22.935 -28.603  13.168  0.00  0.00    +0.006 A 
ATOM     14  C   LIG    1       21.907 -29.531  13.386  0.00  0.00    +0.059 A 
ATOM     15  C   LIG    1       20.592 -29.107  13.654  0.00  0.00    +0.162 A 
ATOM     16  C   LIG    1       20.311 -27.732  13.698  0.00  0.00    +0.162 A 
ATOM     17  C   LIG    1       21.322 -26.813  13.381  0.00  0.00    +0.050 A 
ATOM     18  C   LIG    1       22.621 -27.243  13.125  0.00  0.00    +0.014 A 
BRANCH  15  19
ATOM     19  O   LIG    1       19.726 -30.153  13.860  0.00  0.00    -0.491 OA
ATOM     20  C   LIG    1       19.284 -30.890  12.726  0.00  0.00    +0.277 C 
ENDBRANCH  15  19
BRANCH  16  21
ATOM     21  O   LIG    1       19.048 -27.296  14.002  0.00  0.00    -0.491 OA
ATOM     22  C   LIG    1       18.770 -25.950  13.625  0.00  0.00    +0.277 C 
ENDBRANCH  16  21
ENDBRANCH   6  13
BRANCH   1  24
ATOM     23  C   LIG    1       27.398 -26.221  13.769  0.00  0.00    +0.005 C 
ATOM     24  C   LIG    1       26.589 -26.601  12.533  0.00  0.00    +0.011 C 
ENDBRANCH   1  24
BRANCH   9  25
ATOM     25  O   LIG    1       23.364 -30.792   8.602  0.00  0.00    -0.491 OA
ATOM     26  C   LIG    1       23.642 -32.155   8.319  0.00  0.00    +0.277 C 
ENDBRANCH   9  25
BRANCH  10  27
ATOM     27  O   LIG    1       25.607 -29.309   7.446  0.00  0.00    -0.491 OA
ATOM     28  C   LIG    1       25.016 -28.197   6.778  0.00  0.00    +0.277 C 
ENDBRANCH  10  27
TORSDOF 6
ENDMDL
MODEL 3
REMARK VINA RESULT:      -6.6      6.527      9.947
REMARK  Name = *****
REMARK                            x       y       z     vdW  Elec       q    Type
REMARK                         _______ _______ _______ _____ _____    ______ ____
ROOT
ATOM      1  C   LIG    1       27.027 -28.192  11.288  0.00  0.00    +0.066 C 
ATOM      2  C   LIG    1       27.663 -29.375  12.017  0.00  0.00    +0.045 C 
ATOM      3  C   LIG    1       29.152 -29.569  11.814  0.00  0.00    +0.063 C 
ATOM      4  N   LIG    1       27.036 -30.286  12.672  0.00  0.00    -0.158 NA
ATOM      5  N   LIG    1       25.677 -30.147  12.930  0.00  0.00    -0.149 NA
ATOM      6  C   LIG    1       24.819 -29.993  11.974  0.00  0.00    +0.101 C 
ATOM      7  C   LIG    1       25.157 -29.738  10.544  0.00  0.00    +0.010 A 
ATOM      8  C   LIG    1       24.457 -30.381   9.516  0.00  0.00    +0.059 A 
ATOM      9  C   LIG    1       24.601 -29.971   8.183  0.00  0.00    +0.162 A 
ATOM     10  C   LIG    1       25.475 -28.918   7.873  0.00  0.00    +0.162 A 
ATOM     11  C   LIG    1       26.220 -28.328   8.905  0.00  0.00    +0.054 A 
ATOM     12  C   LIG    1       26.096 -28.752  10.235  0.00  0.00    -0.026 A 
ENDROOT
BRANCH   6  13
ATOM     13  C   LIG    1       23.357 -30.001  12.357  0.00  0.00    +0.006 A 
ATOM     14  C   LIG    1       22.579 -28.835  12.404  0.00  0.00    +0.059 A 
ATOM     15  C   LIG    1       21.204 -28.894  12.700  0.00  0.00    +0.162 A 
ATOM     16  C   LIG    1       20.610 -30.140  12.956  0.00  0.00    +0.162 A 
ATOM     17  C   LIG    1       21.415 -31.288  13.006  0.00  0.00    +0.050 A 
ATOM     18  C   LIG    1       22.772 -31.220  12.703  0.00  0.00    +0.014 A 
BRANCH  15  19
ATOM     19  O   LIG    1       20.602 -27.660  12.681  0.00  0.00    -0.491 OA
ATOM     20  C   LIG    1       21.271 -26.578  13.318  0.00  0.00    +0.277 C 
ENDBRANCH  15  19
BRANCH  16  21
ATOM     21  O   LIG    1       19.265 -30.225  13.202  0.00  0.00    -0.491 OA
ATOM     22  C   LIG    1       18.581 -31.231  12.459  0.00  0.00    +0.277 C 
ENDBRANCH  16  21
ENDBRANCH   6  13
BRANCH   1  24
ATOM     23  C   LIG    1       27.300 -26.897  13.455  0.00  0.00    +0.005 C 
ATOM     24  C   LIG    1       26.436 -27.127  12.219  0.00  0.00    +0.011 C 
ENDBRANCH   1  24
BRANCH   9  25
ATOM     25  O   LIG    1       23.766 -30.650   7.333  0.00  0.00    -0.491 OA
ATOM     26  C   LIG    1       23.987 -32.041   7.154  0.00  0.00    +0.277 C 
ENDBRANCH   9  25
BRANCH  10  27
ATOM     27  O   LIG    1       25.527 -28.431   6.594  0.00  0.00    -0.491 OA
ATOM     28  C   LIG    1       24.484 -27.529   6.230  0.00  0.00    +0.277 C 
ENDBRANCH  10  27
TORSDOF 6
ENDMDL
MODEL 4
REMARK VINA RESULT:      -6.2      6.200     10.703
REMARK  Name = *****
REMARK                            x       y       z     vdW  Elec       q    Type
REMARK                         _______ _______ _______ _____ _____    ______ ____
ROOT
ATOM      1  C   LIG    1       23.432 -32.647  12.619  0.00  0.00    +0.066 C 
ATOM      2  C   LIG    1       24.850 -32.718  13.186  0.00  0.00    +0.045 C 
ATOM      3  C   LIG    1       25.002 -33.372  14.543  0.00  0.00    +0.063 C 
ATOM      4  N   LIG    1       25.895 -32.163  12.681  0.00  0.00    -0.158 NA
ATOM      5  N   LIG    1       25.834 -31.582  11.419  0.00  0.00    -0.149 NA
ATOM      6  C   LIG    1       24.985 -30.645  11.146  0.00  0.00    +0.101 C 
ATOM      7  C   LIG    1       23.859 -30.216  12.026  0.00  0.00    +0.010 A 
ATOM      8  C   LIG    1       23.556 -28.860  12.191  0.00  0.00    +0.059 A 
ATOM      9  C   LIG    1       22.364 -28.462  12.814  0.00  0.00    +0.162 A 
ATOM     10  C   LIG    1       21.476 -29.435  13.298  0.00  0.00    +0.162 A 
ATOM     11  C   LIG    1       21.827 -30.789  13.185  0.00  0.00    +0.054 A 
ATOM     12  C   LIG    1       23.028 -31.189  12.584  0.00  0.00    -0.026 A 
ENDROOT
BRANCH   6  13
ATOM     13  C   LIG    1       25.105 -29.985   9.792  0.00  0.00    +0.006 A 
ATOM     14  C   LIG    1       24.350 -30.388   8.681  0.00  0.00    +0.059 A 
ATOM     15  C   LIG    1       24.443 -29.703   7.455  0.00  0.00    +0.162 A 
ATOM     16  C   LIG    1       25.310 -28.605   7.347  0.00  0.00    +0.162 A 
ATOM     17  C   LIG    1       26.135 -28.271   8.431  0.00  0.00    +0.050 A 
ATOM     18  C   LIG    1       26.030 -28.949   9.643  0.00  0.00    +0.014 A 
BRANCH  15  19
ATOM     19  O   LIG    1       23.618 -30.225   6.489  0.00  0.00    -0.491 OA
ATOM     20  C   LIG    1       23.781 -31.594   6.137  0.00  0.00    +0.277 C 
ENDBRANCH  15  19
BRANCH  16  21
ATOM     21  O   LIG    1       25.383 -27.896   6.176  0.00  0.00    -0.491 OA
ATOM     22  C   LIG    1       24.414 -26.859   6.041  0.00  0.00    +0.277 C 
ENDBRANCH  16  21
ENDBRANCH   6  13
BRANCH   1  24
ATOM     23  C   LIG    1       22.029 -32.950  10.526  0.00  0.00    +0.005 C 
ATOM     24  C   LIG    1       23.236 -33.438  11.321  0.00  0.00    +0.011 C 
ENDBRANCH   1  24
BRANCH   9  25
ATOM     25  O   LIG    1       22.193 -27.101  12.797  0.00  0.00    -0.491 OA
ATOM     26  C   LIG    1       23.048 -26.314  13.613  0.00  0.00    +0.277 C 
ENDBRANCH   9  25
BRANCH  10  27
ATOM     27  O   LIG    1       20.257 -29.057  13.794  0.00  0.00    -0.491 OA
ATOM     28  C   LIG    1       19.247 -30.063  13.790  0.00  0.00    +0.277 C 
ENDBRANCH  10  27
TORSDOF 6
ENDMDL
MODEL 5
REMARK VINA RESULT:      -6.2      7.090      9.799
REMARK  Name = *****
REMARK                            x       y       z     vdW  Elec       q    Type
REMARK                         _______ _______ _______ _____ _____    ______ ____
ROOT
ATOM      1  C   LIG    1       21.240 -30.800  11.907  0.00  0.00    +0.066 C 
ATOM      2  C   LIG    1       21.530 -32.231  12.359  0.00  0.00    +0.045 C 
ATOM      3  C   LIG    1       20.975 -32.637  13.709  0.00  0.00    +0.063 C 
ATOM      4  N   LIG    1       22.303 -33.070  11.766  0.00  0.00    -0.158 NA
ATOM      5  N   LIG    1       22.812 -32.777  10.505  0.00  0.00    -0.149 NA
ATOM      6  C   LIG    1       23.508 -31.708  10.288  0.00  0.00    +0.101 C 
ATOM      7  C   LIG    1       23.682 -30.581  11.249  0.00  0.00    +0.010 A 
ATOM      8  C   LIG    1       24.930 -29.971  11.421  0.00  0.00    +0.059 A 
ATOM      9  C   LIG    1       25.050 -28.767  12.132  0.00  0.00    +0.162 A 
ATOM     10  C   LIG    1       23.907 -28.180  12.697  0.00  0.00    +0.162 A 
ATOM     11  C   LIG    1       22.675 -28.839  12.575  0.00  0.00    +0.054 A 
ATOM     12  C   LIG    1       22.556 -30.053  11.885  0.00  0.00    -0.026 A 
ENDROOT
BRANCH   6  13
ATOM     13  C   LIG    1       24.135 -31.564   8.921  0.00  0.00    +0.006 A 
ATOM     14  C   LIG    1       23.698 -30.619   7.981  0.00  0.00    +0.059 A 
ATOM     15  C   LIG    1       24.352 -30.472   6.743  0.00  0.00    +0.162 A 
ATOM     16  C   LIG    1       25.454 -31.290   6.449  0.00  0.00    +0.162 A 
ATOM     17  C   LIG    1       25.821 -32.299   7.351  0.00  0.00    +0.050 A 
ATOM     18  C   LIG    1       25.173 -32.431   8.576  0.00  0.00    +0.014 A 
BRANCH  15  19
ATOM     19  O   LIG    1       23.799 -29.486   5.963  0.00  0.00    -0.491 OA
ATOM     20  C   LIG    1       24.359 -28.180   6.038  0.00  0.00    +0.277 C 
ENDBRANCH  15  19
BRANCH  16  21
ATOM     21  O   LIG    1       26.133 -31.133   5.269  0.00  0.00    -0.491 OA
ATOM     22  C   LIG    1       25.884 -32.142   4.294  0.00  0.00    +0.277 C 
ENDBRANCH  16  21
ENDBRANCH   6  13
BRANCH   1  24
ATOM     23  C   LIG    1       19.109 -31.536  10.740  0.00  0.00    +0.005 C 
ATOM     24  C   LIG    1       20.384 -30.705  10.639  0.00  0.00    +0.011 C 
ENDBRANCH   1  24
BRANCH   9  25
ATOM     25  O   LIG    1       26.328 -28.272  12.111  0.00  0.00    -0.491 OA
ATOM     26  C   LIG    1       27.002 -28.222  10.863  0.00  0.00    +0.277 C 
ENDBRANCH   9  25
BRANCH  10  27
ATOM     27  O   LIG    1       23.997 -26.946  13.284  0.00  0.00    -0.491 OA
ATOM     28  C   LIG    1       22.758 -26.290  13.541  0.00  0.00    +0.277 C 
ENDBRANCH  10  27
TORSDOF 6
ENDMDL
MODEL 6
REMARK VINA RESULT:      -6.2      5.395      8.987
REMARK  Name = *****
REMARK                            x       y       z     vdW  Elec       q    Type
REMARK                         _______ _______ _______ _____ _____    ______ ____
ROOT
ATOM      1  C   LIG    1       25.602 -31.992   6.045  0.00  0.00    +0.066 C 
ATOM      2  C   LIG    1       24.288 -32.769   5.972  0.00  0.00    +0.045 C 
ATOM      3  C   LIG    1       23.995 -33.477   4.666  0.00  0.00    +0.063 C 
ATOM      4  N   LIG    1       23.359 -32.768   6.861  0.00  0.00    -0.158 NA
ATOM      5  N   LIG    1       23.579 -32.173   8.099  0.00  0.00    -0.149 NA
ATOM      6  C   LIG    1       23.923 -30.929   8.199  0.00  0.00    +0.101 C 
ATOM      7  C   LIG    1       24.324 -30.050   7.064  0.00  0.00    +0.010 A 
ATOM      8  C   LIG    1       23.876 -28.726   6.990  0.00  0.00    +0.059 A 
ATOM      9  C   LIG    1       24.435 -27.829   6.068  0.00  0.00    +0.162 A 
ATOM     10  C   LIG    1       25.441 -28.270   5.194  0.00  0.00    +0.162 A 
ATOM     11  C   LIG    1       25.832 -29.617   5.235  0.00  0.00    +0.054 A 
ATOM     12  C   LIG    1       25.258 -30.521   6.139  0.00  0.00    -0.026 A 
ENDROOT
BRANCH   6  13
ATOM     13  C   LIG    1       23.992 -30.349   9.592  0.00  0.00    +0.006 A 
ATOM     14  C   LIG    1       25.194 -29.933  10.183  0.00  0.00    +0.059 A 
ATOM     15  C   LIG    1       25.206 -29.335  11.458  0.00  0.00    +0.162 A 
ATOM     16  C   LIG    1       23.994 -29.159  12.144  0.00  0.00    +0.162 A 
ATOM     17  C   LIG    1       22.810 -29.668  11.590  0.00  0.00    +0.050 A 
ATOM     18  C   LIG    1       22.808 -30.251  10.326  0.00  0.00    +0.014 A 
BRANCH  15  19
ATOM     19  O   LIG    1       26.467 -28.975  11.865  0.00  0.00    -0.491 OA
ATOM     20  C   LIG    1       26.935 -27.675  11.525  0.00  0.00    +0.277 C 
ENDBRANCH  15  19
BRANCH  16  21
ATOM     21  O   LIG    1       23.978 -28.539  13.366  0.00  0.00    -0.491 OA
ATOM     22  C   LIG    1       23.595 -27.166  13.337  0.00  0.00    +0.277 C 
ENDBRANCH  16  21
ENDBRANCH   6  13
BRANCH   1  24
ATOM     23  C   LIG    1       27.859 -33.081   6.451  0.00  0.00    +0.005 C 
ATOM     24  C   LIG    1       26.589 -32.526   7.089  0.00  0.00    +0.011 C 
ENDBRANCH   1  24
BRANCH   9  25
ATOM     25  O   LIG    1       23.940 -26.557   6.208  0.00  0.00    -0.491 OA
ATOM     26  C   LIG    1       24.848 -25.526   6.567  0.00  0.00    +0.277 C 
ENDBRANCH   9  25
BRANCH  10  27
ATOM     27  O   LIG    1       26.076 -27.371   4.380  0.00  0.00    -0.491 OA
ATOM     28  C   LIG    1       27.470 -27.195   4.620  0.00  0.00    +0.277 C 
ENDBRANCH  10  27
TORSDOF 6
ENDMDL
MODEL 7
REMARK VINA RESULT:      -6.2      2.645      6.866
REMARK  Name = *****
REMARK                            x       y       z     vdW  Elec       q    Type
REMARK                         _______ _______ _______ _____ _____    ______ ____
ROOT
ATOM      1  C   LIG    1       25.076 -23.089   7.019  0.00  0.00    +0.066 C 
ATOM      2  C   LIG    1       25.025 -23.863   5.702  0.00  0.00    +0.045 C 
ATOM      3  C   LIG    1       25.452 -25.316   5.758  0.00  0.00    +0.063 C 
ATOM      4  N   LIG    1       24.783 -23.366   4.541  0.00  0.00    -0.158 NA
ATOM      5  N   LIG    1       24.345 -22.051   4.424  0.00  0.00    -0.149 NA
ATOM      6  C   LIG    1       25.034 -21.064   4.900  0.00  0.00    +0.101 C 
ATOM      7  C   LIG    1       26.227 -21.192   5.786  0.00  0.00    +0.010 A 
ATOM      8  C   LIG    1       27.352 -20.381   5.595  0.00  0.00    +0.059 A 
ATOM      9  C   LIG    1       28.369 -20.324   6.560  0.00  0.00    +0.162 A 
ATOM     10  C   LIG    1       28.267 -21.108   7.720  0.00  0.00    +0.162 A 
ATOM     11  C   LIG    1       27.167 -21.967   7.865  0.00  0.00    +0.054 A 
ATOM     12  C   LIG    1       26.162 -22.042   6.892  0.00  0.00    -0.026 A 
ENDROOT
BRANCH   6  13
ATOM     13  C   LIG    1       24.541 -19.671   4.587  0.00  0.00    +0.006 A 
ATOM     14  C   LIG    1       25.324 -18.722   3.914  0.00  0.00    +0.059 A 
ATOM     15  C   LIG    1       24.803 -17.457   3.583  0.00  0.00    +0.162 A 
ATOM     16  C   LIG    1       23.481 -17.145   3.937  0.00  0.00    +0.162 A 
ATOM     17  C   LIG    1       22.739 -18.062   4.697  0.00  0.00    +0.050 A 
ATOM     18  C   LIG    1       23.261 -19.313   5.014  0.00  0.00    +0.014 A 
BRANCH  15  19
ATOM     19  O   LIG    1       25.704 -16.669   2.910  0.00  0.00    -0.491 OA
ATOM     20  C   LIG    1       26.650 -15.931   3.674  0.00  0.00    +0.277 C 
ENDBRANCH  15  19
BRANCH  16  21
ATOM     21  O   LIG    1       22.939 -15.937   3.584  0.00  0.00    -0.491 OA
ATOM     22  C   LIG    1       23.302 -14.846   4.427  0.00  0.00    +0.277 C 
ENDBRANCH  16  21
ENDBRANCH   6  13
BRANCH   1  24
ATOM     23  C   LIG    1       22.557 -23.374   6.885  0.00  0.00    +0.005 C 
ATOM     24  C   LIG    1       23.710 -22.593   7.507  0.00  0.00    +0.011 C 
ENDBRANCH   1  24
BRANCH   9  25
ATOM     25  O   LIG    1       29.337 -19.406   6.247  0.00  0.00    -0.491 OA
ATOM     26  C   LIG    1       29.000 -18.366   5.340  0.00  0.00    +0.277 C 
ENDBRANCH   9  25
BRANCH  10  27
ATOM     27  O   LIG    1       29.192 -20.964   8.720  0.00  0.00    -0.491 OA
ATOM     28  C   LIG    1       30.467 -21.553   8.475  0.00  0.00    +0.277 C 
ENDBRANCH  10  27
TORSDOF 6
ENDMDL
MODEL 8
REMARK VINA RESULT:      -6.1      8.649     10.978
REMARK  Name = *****
REMARK                            x       y       z     vdW  Elec       q    Type
REMARK                         _______ _______ _______ _____ _____    ______ ____
ROOT
ATOM      1  C   LIG    1       20.695 -28.498  13.614  0.00  0.00    +0.066 C 
ATOM      2  C   LIG    1       21.006 -27.042  13.269  0.00  0.00    +0.045 C 
ATOM      3  C   LIG    1       19.820 -26.159  12.939  0.00  0.00    +0.063 C 
ATOM      4  N   LIG    1       22.178 -26.537  13.107  0.00  0.00    -0.158 NA
ATOM      5  N   LIG    1       23.307 -27.279  13.432  0.00  0.00    -0.149 NA
ATOM      6  C   LIG    1       23.535 -28.435  12.896  0.00  0.00    +0.101 C 
ATOM      7  C   LIG    1       22.571 -29.202  12.056  0.00  0.00    +0.010 A 
ATOM      8  C   LIG    1       22.997 -29.865  10.899  0.00  0.00    +0.059 A 
ATOM      9  C   LIG    1       22.158 -30.779  10.245  0.00  0.00    +0.162 A 
ATOM     10  C   LIG    1       20.867 -31.013  10.743  0.00  0.00    +0.162 A 
ATOM     11  C   LIG    1       20.430 -30.291  11.864  0.00  0.00    +0.054 A 
ATOM     12  C   LIG    1       21.258 -29.361  12.506  0.00  0.00    -0.026 A 
ENDROOT
BRANCH   6  13
ATOM     13  C   LIG    1       24.862 -29.085  13.209  0.00  0.00    +0.006 A 
ATOM     14  C   LIG    1       25.846 -29.310  12.235  0.00  0.00    +0.059 A 
ATOM     15  C   LIG    1       27.096 -29.858  12.580  0.00  0.00    +0.162 A 
ATOM     16  C   LIG    1       27.354 -30.186  13.920  0.00  0.00    +0.162 A 
ATOM     17  C   LIG    1       26.331 -30.052  14.870  0.00  0.00    +0.050 A 
ATOM     18  C   LIG    1       25.101 -29.502  14.520  0.00  0.00    +0.014 A 
BRANCH  15  19
ATOM     19  O   LIG    1       27.937 -29.986  11.502  0.00  0.00    -0.491 OA
ATOM     20  C   LIG    1       27.362 -30.005  10.201  0.00  0.00    +0.277 C 
ENDBRANCH  15  19
BRANCH  16  21
ATOM     21  O   LIG    1       28.580 -30.678  14.285  0.00  0.00    -0.491 OA
ATOM     22  C   LIG    1       29.530 -29.691  14.680  0.00  0.00    +0.277 C 
ENDBRANCH  16  21
ENDBRANCH   6  13
BRANCH   1  24
ATOM     23  C   LIG    1       21.258 -30.405  15.193  0.00  0.00    +0.005 C 
ATOM     24  C   LIG    1       21.074 -28.898  15.044  0.00  0.00    +0.011 C 
ENDBRANCH   1  24
BRANCH   9  25
ATOM     25  O   LIG    1       22.779 -31.400   9.193  0.00  0.00    -0.491 OA
ATOM     26  C   LIG    1       23.916 -30.767   8.624  0.00  0.00    +0.277 C 
ENDBRANCH   9  25
BRANCH  10  27
ATOM     27  O   LIG    1       20.090 -31.993  10.184  0.00  0.00    -0.491 OA
ATOM     28  C   LIG    1       18.694 -31.715  10.117  0.00  0.00    +0.277 C 
ENDBRANCH  10  27
TORSDOF 6
ENDMDL
MODEL 9
REMARK VINA RESULT:      -6.0      1.832      6.289
REMARK  Name = *****
REMARK                            x       y       z     vdW  Elec       q    Type
REMARK                         _______ _______ _______ _____ _____    ______ ____
ROOT
ATOM      1  C   LIG    1       22.853 -21.582   6.531  0.00  0.00    +0.066 C 
ATOM      2  C   LIG    1       22.819 -20.762   5.242  0.00  0.00    +0.045 C 
ATOM      3  C   LIG    1       21.510 -20.758   4.480  0.00  0.00    +0.063 C 
ATOM      4  N   LIG    1       23.826 -20.188   4.684  0.00  0.00    -0.158 NA
ATOM      5  N   LIG    1       25.045 -20.119   5.348  0.00  0.00    -0.149 NA
ATOM      6  C   LIG    1       25.653 -21.185   5.760  0.00  0.00    +0.101 C 
ATOM      7  C   LIG    1       25.072 -22.558   5.776  0.00  0.00    +0.010 A 
ATOM      8  C   LIG    1       25.836 -23.665   5.388  0.00  0.00    +0.059 A 
ATOM      9  C   LIG    1       25.383 -24.970   5.629  0.00  0.00    +0.162 A 
ATOM     10  C   LIG    1       24.138 -25.169   6.245  0.00  0.00    +0.162 A 
ATOM     11  C   LIG    1       23.354 -24.051   6.566  0.00  0.00    +0.054 A 
ATOM     12  C   LIG    1       23.793 -22.747   6.307  0.00  0.00    -0.026 A 
ENDROOT
BRANCH   6  13
ATOM     13  C   LIG    1       27.037 -21.004   6.337  0.00  0.00    +0.006 A 
ATOM     14  C   LIG    1       27.928 -20.022   5.879  0.00  0.00    +0.059 A 
ATOM     15  C   LIG    1       29.184 -19.842   6.488  0.00  0.00    +0.162 A 
ATOM     16  C   LIG    1       29.547 -20.664   7.566  0.00  0.00    +0.162 A 
ATOM     17  C   LIG    1       28.694 -21.708   7.952  0.00  0.00    +0.050 A 
ATOM     18  C   LIG    1       27.450 -21.873   7.349  0.00  0.00    +0.014 A 
BRANCH  15  19
ATOM     19  O   LIG    1       29.910 -18.823   5.921  0.00  0.00    -0.491 OA
ATOM     20  C   LIG    1       29.234 -17.922   5.052  0.00  0.00    +0.277 C 
ENDBRANCH  15  19
BRANCH  16  21
ATOM     21  O   LIG    1       30.746 -20.476   8.203  0.00  0.00    -0.491 OA
ATOM     22  C   LIG    1       31.200 -21.590   8.968  0.00  0.00    +0.277 C 
ENDBRANCH  16  21
ENDBRANCH   6  13
BRANCH   1  24
ATOM     23  C   LIG    1       24.241 -21.300   8.638  0.00  0.00    +0.005 C 
ATOM     24  C   LIG    1       23.093 -20.751   7.797  0.00  0.00    +0.011 C 
ENDBRANCH   1  24
BRANCH   9  25
ATOM     25  O   LIG    1       26.306 -25.919   5.270  0.00  0.00    -0.491 OA
ATOM     26  C   LIG    1       27.078 -26.518   6.300  0.00  0.00    +0.277 C 
ENDBRANCH   9  25
BRANCH  10  27
ATOM     27  O   LIG    1       23.747 -26.434   6.594  0.00  0.00    -0.491 OA
ATOM     28  C   LIG    1       24.069 -27.463   5.661  0.00  0.00    +0.277 C 
ENDBRANCH  10  27
TORSDOF 6
ENDMDL
