MODEL 1
REMARK VINA RESULT:      -8.1      0.000      0.000
REMARK  Name = *****
REMARK                            x       y       z     vdW  Elec       q    Type
REMARK                         _______ _______ _______ _____ _____    ______ ____
ROOT
ATOM      1  C   LIG    1       25.755 -20.555   4.771  0.00  0.00    +0.101 C 
ENDROOT
BRANCH   1   2
ATOM      2  N   LIG    1       24.658 -21.579   4.750  0.00  0.00    -0.277 NA
BRANCH   2   3
ATOM      3  C   LIG    1       23.336 -21.098   4.290  0.00  0.00    +0.206 C 
BRANCH   3   4
ATOM      4  C   LIG    1       22.930 -19.643   4.557  0.00  0.00    +0.319 C 
ATOM      5  O   LIG    1       23.057 -18.766   3.711  0.00  0.00    -0.250 OA
BRANCH   4   6
ATOM      6  O   LIG    1       22.476 -19.333   5.783  0.00  0.00    -0.480 OA
ATOM      7  H   LIG    1       23.088 -18.735   6.234  0.00  0.00    +0.295 HD
ENDBRANCH   4   6
ENDBRANCH   3   4
ENDBRANCH   2   3
BRANCH   2   8
ATOM      8  C   LIG    1       24.670 -22.607   5.872  0.00  0.00    +0.192 C 
BRANCH   8   9
ATOM      9  C   LIG    1       23.396 -22.545   6.704  0.00  0.00    +0.324 C 
ATOM     10  O   LIG    1       23.181 -21.791   7.639  0.00  0.00    -0.249 OA
BRANCH   9  11
ATOM     11  O   LIG    1       22.625 -23.640   6.559  0.00  0.00    -0.479 OA
ATOM     12  H   LIG    1       21.857 -23.337   6.026  0.00  0.00    +0.295 HD
ENDBRANCH   9  11
ENDBRANCH   8   9
BRANCH   8  13
ATOM     13  C   LIG    1       24.840 -24.136   5.551  0.00  0.00    +0.190 C 
BRANCH  13  14
ATOM     14  O   LIG    1       25.502 -24.872   6.611  0.00  0.00    -0.373 OA
BRANCH  14  15
ATOM     15  C   LIG    1       26.294 -25.969   6.166  0.00  0.00    +0.195 C 
BRANCH  15  16
ATOM     16  C   LIG    1       25.674 -27.300   6.525  0.00  0.00    -0.022 A 
ATOM     17  C   LIG    1       24.750 -27.919   5.666  0.00  0.00    +0.006 A 
ATOM     18  C   LIG    1       24.102 -29.099   6.045  0.00  0.00    +0.000 A 
ATOM     19  C   LIG    1       24.388 -29.687   7.277  0.00  0.00    +0.000 A 
ATOM     20  C   LIG    1       25.313 -29.091   8.132  0.00  0.00    +0.000 A 
ATOM     21  C   LIG    1       25.954 -27.907   7.757  0.00  0.00    +0.006 A 
ENDBRANCH  15  16
ENDBRANCH  14  15
ENDBRANCH  13  14
ENDBRANCH   8  13
ENDBRANCH   2   8
ENDBRANCH   1   2
BRANCH   1  22
ATOM     22  C   LIG    1       26.390 -20.063   6.142  0.00  0.00    +0.100 C 
BRANCH  22  23
ATOM     23  N   LIG    1       27.774 -20.570   6.342  0.00  0.00    -0.290 NA
BRANCH  23  24
ATOM     24  C   LIG    1       28.863 -19.557   6.222  0.00  0.00    +0.100 C 
BRANCH  24  25
ATOM     25  C   LIG    1       30.198 -19.699   7.084  0.00  0.00    +0.101 C 
BRANCH  25  26
ATOM     26  N   LIG    1       30.253 -19.643   8.604  0.00  0.00    -0.281 NA
BRANCH  26  27
ATOM     27  C   LIG    1       30.402 -18.222   9.114  0.00  0.00    +0.206 C 
BRANCH  27  28
ATOM     28  C   LIG    1       31.803 -17.691   9.409  0.00  0.00    +0.319 C 
ATOM     29  O   LIG    1       32.445 -17.712  10.492  0.00  0.00    -0.250 OA
BRANCH  28  30
ATOM     30  O   LIG    1       32.306 -17.063   8.398  0.00  0.00    -0.480 OA
ATOM     31  H   LIG    1       32.677 -17.809   7.867  0.00  0.00    +0.295 HD
ENDBRANCH  28  30
ENDBRANCH  27  28
ENDBRANCH  26  27
BRANCH  26  32
ATOM     32  C   LIG    1       31.520 -20.394   9.016  0.00  0.00    +0.206 C 
BRANCH  32  33
ATOM     33  C   LIG    1       31.376 -21.908   9.265  0.00  0.00    +0.319 C 
ATOM     34  O   LIG    1       30.656 -22.374  10.141  0.00  0.00    -0.250 OA
BRANCH  33  35
ATOM     35  O   LIG    1       32.123 -22.711   8.474  0.00  0.00    -0.480 OA
ATOM     36  H   LIG    1       32.918 -23.018   8.955  0.00  0.00    +0.295 HD
ENDBRANCH  33  35
ENDBRANCH  32  33
ENDBRANCH  26  32
ENDBRANCH  25  26
ENDBRANCH  24  25
ENDBRANCH  23  24
BRANCH  23  37
ATOM     37  C   LIG    1       27.931 -21.415   7.581  0.00  0.00    +0.205 C 
BRANCH  37  39
ATOM     38  O   LIG    1       26.386 -20.380   9.252  0.00  0.00    -0.250 OA
ATOM     39  C   LIG    1       26.743 -21.324   8.553  0.00  0.00    +0.319 C 
BRANCH  39  40
ATOM     40  O   LIG    1       26.099 -22.502   8.725  0.00  0.00    -0.480 OA
ATOM     41  H   LIG    1       25.382 -22.425   8.052  0.00  0.00    +0.295 HD
ENDBRANCH  39  40
ENDBRANCH  37  39
ENDBRANCH  23  37
ENDBRANCH  22  23
ENDBRANCH   1  22
TORSDOF 25
ENDMDL
MODEL 2
REMARK VINA RESULT:      -8.0      1.314      2.059
REMARK  Name = *****
REMARK                            x       y       z     vdW  Elec       q    Type
REMARK                         _______ _______ _______ _____ _____    ______ ____
ROOT
ATOM      1  C   LIG    1       25.800 -20.556   5.487  0.00  0.00    +0.101 C 
ENDROOT
BRANCH   1   2
ATOM      2  N   LIG    1       24.907 -21.669   5.019  0.00  0.00    -0.277 NA
BRANCH   2   3
ATOM      3  C   LIG    1       23.689 -21.254   4.288  0.00  0.00    +0.206 C 
BRANCH   3   4
ATOM      4  C   LIG    1       23.097 -19.862   4.543  0.00  0.00    +0.319 C 
ATOM      5  O   LIG    1       23.184 -18.957   3.720  0.00  0.00    -0.250 OA
BRANCH   4   6
ATOM      6  O   LIG    1       22.520 -19.633   5.734  0.00  0.00    -0.480 OA
ATOM      7  H   LIG    1       22.760 -18.759   6.069  0.00  0.00    +0.295 HD
ENDBRANCH   4   6
ENDBRANCH   3   4
ENDBRANCH   2   3
BRANCH   2   8
ATOM      8  C   LIG    1       24.786 -22.873   5.942  0.00  0.00    +0.192 C 
BRANCH   8   9
ATOM      9  C   LIG    1       23.431 -22.914   6.635  0.00  0.00    +0.324 C 
ATOM     10  O   LIG    1       23.030 -22.134   7.485  0.00  0.00    -0.249 OA
BRANCH   9  11
ATOM     11  O   LIG    1       22.811 -24.102   6.496  0.00  0.00    -0.479 OA
ATOM     12  H   LIG    1       22.727 -24.229   5.525  0.00  0.00    +0.295 HD
ENDBRANCH   9  11
ENDBRANCH   8   9
BRANCH   8  13
ATOM     13  C   LIG    1       24.971 -24.329   5.382  0.00  0.00    +0.190 C 
BRANCH  13  14
ATOM     14  O   LIG    1       25.325 -25.294   6.406  0.00  0.00    -0.373 OA
BRANCH  14  15
ATOM     15  C   LIG    1       25.698 -26.575   5.910  0.00  0.00    +0.195 C 
BRANCH  15  16
ATOM     16  C   LIG    1       25.475 -27.668   6.931  0.00  0.00    -0.022 A 
ATOM     17  C   LIG    1       26.275 -27.750   8.084  0.00  0.00    +0.006 A 
ATOM     18  C   LIG    1       26.134 -28.819   8.975  0.00  0.00    +0.000 A 
ATOM     19  C   LIG    1       25.179 -29.806   8.735  0.00  0.00    +0.000 A 
ATOM     20  C   LIG    1       24.370 -29.728   7.603  0.00  0.00    +0.000 A 
ATOM     21  C   LIG    1       24.516 -28.665   6.708  0.00  0.00    +0.006 A 
ENDBRANCH  15  16
ENDBRANCH  14  15
ENDBRANCH  13  14
ENDBRANCH   8  13
ENDBRANCH   2   8
ENDBRANCH   1   2
BRANCH   1  22
ATOM     22  C   LIG    1       26.319 -20.498   6.987  0.00  0.00    +0.100 C 
BRANCH  22  23
ATOM     23  N   LIG    1       27.635 -19.814   7.109  0.00  0.00    -0.290 NA
BRANCH  23  24
ATOM     24  C   LIG    1       28.358 -20.017   8.398  0.00  0.00    +0.100 C 
BRANCH  24  25
ATOM     25  C   LIG    1       29.457 -18.966   8.881  0.00  0.00    +0.101 C 
BRANCH  25  26
ATOM     26  N   LIG    1       30.927 -19.294   9.101  0.00  0.00    -0.281 NA
BRANCH  26  27
ATOM     27  C   LIG    1       31.838 -18.223   8.531  0.00  0.00    +0.206 C 
BRANCH  27  28
ATOM     28  C   LIG    1       32.423 -17.177   9.476  0.00  0.00    +0.319 C 
ATOM     29  O   LIG    1       32.647 -17.265  10.712  0.00  0.00    -0.250 OA
BRANCH  28  30
ATOM     30  O   LIG    1       32.602 -16.040   8.889  0.00  0.00    -0.480 OA
ATOM     31  H   LIG    1       32.433 -15.407   9.628  0.00  0.00    +0.295 HD
ENDBRANCH  28  30
ENDBRANCH  27  28
ENDBRANCH  26  27
BRANCH  26  32
ATOM     32  C   LIG    1       31.204 -20.575   8.312  0.00  0.00    +0.206 C 
BRANCH  32  33
ATOM     33  C   LIG    1       31.402 -21.862   9.134  0.00  0.00    +0.319 C 
ATOM     34  O   LIG    1       30.886 -22.039  10.233  0.00  0.00    -0.250 OA
BRANCH  33  35
ATOM     35  O   LIG    1       32.216 -22.793   8.587  0.00  0.00    -0.480 OA
ATOM     36  H   LIG    1       33.150 -22.508   8.650  0.00  0.00    +0.295 HD
ENDBRANCH  33  35
ENDBRANCH  32  33
ENDBRANCH  26  32
ENDBRANCH  25  26
ENDBRANCH  24  25
ENDBRANCH  23  24
BRANCH  23  37
ATOM     37  C   LIG    1       28.537 -20.034   5.921  0.00  0.00    +0.205 C 
BRANCH  37  39
ATOM     38  O   LIG    1       30.226 -18.209   5.655  0.00  0.00    -0.250 OA
ATOM     39  C   LIG    1       29.160 -18.743   5.362  0.00  0.00    +0.319 C 
BRANCH  39  40
ATOM     40  O   LIG    1       28.338 -18.069   4.524  0.00  0.00    -0.480 OA
ATOM     41  H   LIG    1       27.683 -18.770   4.297  0.00  0.00    +0.295 HD
ENDBRANCH  39  40
ENDBRANCH  37  39
ENDBRANCH  23  37
ENDBRANCH  22  23
ENDBRANCH   1  22
TORSDOF 25
ENDMDL
MODEL 3
REMARK VINA RESULT:      -7.8      1.785      3.282
REMARK  Name = *****
REMARK                            x       y       z     vdW  Elec       q    Type
REMARK                         _______ _______ _______ _____ _____    ______ ____
ROOT
ATOM      1  C   LIG    1       25.884 -23.672   7.225  0.00  0.00    +0.101 C 
ENDROOT
BRANCH   1   2
ATOM      2  N   LIG    1       24.833 -24.239   6.315  0.00  0.00    -0.277 NA
BRANCH   2   3
ATOM      3  C   LIG    1       23.432 -24.047   6.752  0.00  0.00    +0.206 C 
BRANCH   3   4
ATOM      4  C   LIG    1       22.841 -22.632   6.785  0.00  0.00    +0.319 C 
ATOM      5  O   LIG    1       22.965 -21.897   7.758  0.00  0.00    -0.250 OA
BRANCH   4   6
ATOM      6  O   LIG    1       22.121 -22.227   5.726  0.00  0.00    -0.480 OA
ATOM      7  H   LIG    1       22.479 -22.595   4.907  0.00  0.00    +0.295 HD
ENDBRANCH   4   6
ENDBRANCH   3   4
ENDBRANCH   2   3
BRANCH   2   8
ATOM      8  C   LIG    1       25.171 -25.552   5.626  0.00  0.00    +0.192 C 
BRANCH   8   9
ATOM      9  C   LIG    1       26.387 -26.218   6.253  0.00  0.00    +0.324 C 
ATOM     10  O   LIG    1       27.468 -26.405   5.715  0.00  0.00    -0.249 OA
BRANCH   9  11
ATOM     11  O   LIG    1       26.083 -26.920   7.362  0.00  0.00    -0.479 OA
ATOM     12  H   LIG    1       26.118 -26.262   8.093  0.00  0.00    +0.295 HD
ENDBRANCH   9  11
ENDBRANCH   8   9
BRANCH   8  13
ATOM     13  C   LIG    1       24.107 -26.705   5.540  0.00  0.00    +0.190 C 
BRANCH  13  14
ATOM     14  O   LIG    1       24.685 -27.992   5.202  0.00  0.00    -0.373 OA
BRANCH  14  15
ATOM     15  C   LIG    1       23.952 -29.115   5.679  0.00  0.00    +0.195 C 
BRANCH  15  16
ATOM     16  C   LIG    1       24.859 -30.225   6.159  0.00  0.00    -0.022 A 
ATOM     17  C   LIG    1       25.117 -30.403   7.529  0.00  0.00    +0.006 A 
ATOM     18  C   LIG    1       26.034 -31.365   7.964  0.00  0.00    +0.000 A 
ATOM     19  C   LIG    1       26.688 -32.175   7.036  0.00  0.00    +0.000 A 
ATOM     20  C   LIG    1       26.430 -32.018   5.676  0.00  0.00    +0.000 A 
ATOM     21  C   LIG    1       25.520 -31.051   5.241  0.00  0.00    +0.006 A 
ENDBRANCH  15  16
ENDBRANCH  14  15
ENDBRANCH  13  14
ENDBRANCH   8  13
ENDBRANCH   2   8
ENDBRANCH   1   2
BRANCH   1  22
ATOM     22  C   LIG    1       26.930 -22.598   6.698  0.00  0.00    +0.100 C 
BRANCH  22  23
ATOM     23  N   LIG    1       26.474 -21.200   6.927  0.00  0.00    -0.290 NA
BRANCH  23  24
ATOM     24  C   LIG    1       27.221 -20.432   7.965  0.00  0.00    +0.100 C 
BRANCH  24  25
ATOM     25  C   LIG    1       28.676 -19.856   7.654  0.00  0.00    +0.101 C 
BRANCH  25  26
ATOM     26  N   LIG    1       29.756 -19.627   8.701  0.00  0.00    -0.281 NA
BRANCH  26  27
ATOM     27  C   LIG    1       30.224 -18.184   8.727  0.00  0.00    +0.206 C 
BRANCH  27  28
ATOM     28  C   LIG    1       31.640 -17.880   9.212  0.00  0.00    +0.319 C 
ATOM     29  O   LIG    1       32.169 -18.145  10.322  0.00  0.00    -0.250 OA
BRANCH  28  30
ATOM     30  O   LIG    1       32.302 -17.172   8.358  0.00  0.00    -0.480 OA
ATOM     31  H   LIG    1       31.590 -16.908   7.726  0.00  0.00    +0.295 HD
ENDBRANCH  28  30
ENDBRANCH  27  28
ENDBRANCH  26  27
BRANCH  26  32
ATOM     32  C   LIG    1       30.956 -20.473   8.272  0.00  0.00    +0.206 C 
BRANCH  32  33
ATOM     33  C   LIG    1       31.238 -21.741   9.100  0.00  0.00    +0.319 C 
ATOM     34  O   LIG    1       30.710 -21.961  10.185  0.00  0.00    -0.250 OA
BRANCH  33  35
ATOM     35  O   LIG    1       32.142 -22.600   8.576  0.00  0.00    -0.480 OA
ATOM     36  H   LIG    1       31.815 -22.963   7.728  0.00  0.00    +0.295 HD
ENDBRANCH  33  35
ENDBRANCH  32  33
ENDBRANCH  26  32
ENDBRANCH  25  26
ENDBRANCH  24  25
ENDBRANCH  23  24
BRANCH  23  37
ATOM     37  C   LIG    1       26.310 -20.406   5.655  0.00  0.00    +0.205 C 
BRANCH  37  39
ATOM     38  O   LIG    1       23.958 -19.906   4.972  0.00  0.00    -0.250 OA
ATOM     39  C   LIG    1       24.958 -20.619   4.956  0.00  0.00    +0.319 C 
BRANCH  39  40
ATOM     40  O   LIG    1       24.851 -21.823   4.347  0.00  0.00    -0.480 OA
ATOM     41  H   LIG    1       25.210 -22.421   5.044  0.00  0.00    +0.295 HD
ENDBRANCH  39  40
ENDBRANCH  37  39
ENDBRANCH  23  37
ENDBRANCH  22  23
ENDBRANCH   1  22
TORSDOF 25
ENDMDL
MODEL 4
REMARK VINA RESULT:      -7.6      0.817      2.320
REMARK  Name = *****
REMARK                            x       y       z     vdW  Elec       q    Type
REMARK                         _______ _______ _______ _____ _____    ______ ____
ROOT
ATOM      1  C   LIG    1       25.551 -20.308   5.713  0.00  0.00    +0.101 C 
ENDROOT
BRANCH   1   2
ATOM      2  N   LIG    1       24.882 -21.438   4.986  0.00  0.00    -0.277 NA
BRANCH   2   3
ATOM      3  C   LIG    1       23.732 -21.064   4.132  0.00  0.00    +0.206 C 
BRANCH   3   4
ATOM      4  C   LIG    1       23.048 -19.708   4.343  0.00  0.00    +0.319 C 
ATOM      5  O   LIG    1       22.128 -19.560   5.138  0.00  0.00    -0.250 OA
BRANCH   4   6
ATOM      6  O   LIG    1       23.449 -18.677   3.580  0.00  0.00    -0.480 OA
ATOM      7  H   LIG    1       22.691 -18.159   3.278  0.00  0.00    +0.295 HD
ENDBRANCH   4   6
ENDBRANCH   3   4
ENDBRANCH   2   3
BRANCH   2   8
ATOM      8  C   LIG    1       24.791 -22.762   5.730  0.00  0.00    +0.192 C 
BRANCH   8   9
ATOM      9  C   LIG    1       23.544 -22.832   6.600  0.00  0.00    +0.324 C 
ATOM     10  O   LIG    1       23.273 -22.096   7.535  0.00  0.00    -0.249 OA
BRANCH   9  11
ATOM     11  O   LIG    1       22.897 -24.009   6.489  0.00  0.00    -0.479 OA
ATOM     12  H   LIG    1       23.542 -24.609   6.051  0.00  0.00    +0.295 HD
ENDBRANCH   9  11
ENDBRANCH   8   9
BRANCH   8  13
ATOM     13  C   LIG    1       24.783 -24.122   4.942  0.00  0.00    +0.190 C 
BRANCH  13  14
ATOM     14  O   LIG    1       25.563 -25.160   5.587  0.00  0.00    -0.373 OA
BRANCH  14  15
ATOM     15  C   LIG    1       25.612 -26.393   4.876  0.00  0.00    +0.195 C 
BRANCH  15  16
ATOM     16  C   LIG    1       25.306 -27.576   5.766  0.00  0.00    -0.022 A 
ATOM     17  C   LIG    1       24.584 -28.678   5.275  0.00  0.00    +0.006 A 
ATOM     18  C   LIG    1       24.216 -29.725   6.126  0.00  0.00    +0.000 A 
ATOM     19  C   LIG    1       24.582 -29.694   7.471  0.00  0.00    +0.000 A 
ATOM     20  C   LIG    1       25.310 -28.613   7.966  0.00  0.00    +0.000 A 
ATOM     21  C   LIG    1       25.671 -27.563   7.118  0.00  0.00    +0.006 A 
ENDBRANCH  15  16
ENDBRANCH  14  15
ENDBRANCH  13  14
ENDBRANCH   8  13
ENDBRANCH   2   8
ENDBRANCH   1   2
BRANCH   1  22
ATOM     22  C   LIG    1       27.107 -20.036   5.548  0.00  0.00    +0.100 C 
BRANCH  22  23
ATOM     23  N   LIG    1       27.917 -20.705   6.601  0.00  0.00    -0.290 NA
BRANCH  23  24
ATOM     24  C   LIG    1       29.395 -20.685   6.399  0.00  0.00    +0.100 C 
BRANCH  24  25
ATOM     25  C   LIG    1       30.263 -19.443   6.898  0.00  0.00    +0.101 C 
BRANCH  25  26
ATOM     26  N   LIG    1       31.477 -19.549   7.809  0.00  0.00    -0.281 NA
BRANCH  26  27
ATOM     27  C   LIG    1       31.142 -20.229   9.123  0.00  0.00    +0.206 C 
BRANCH  27  28
ATOM     28  C   LIG    1       31.286 -21.746   9.223  0.00  0.00    +0.319 C 
ATOM     29  O   LIG    1       30.709 -22.545  10.006  0.00  0.00    -0.250 OA
BRANCH  28  30
ATOM     30  O   LIG    1       32.207 -22.197   8.439  0.00  0.00    -0.480 OA
ATOM     31  H   LIG    1       32.688 -22.819   9.036  0.00  0.00    +0.295 HD
ENDBRANCH  28  30
ENDBRANCH  27  28
ENDBRANCH  26  27
BRANCH  26  32
ATOM     32  C   LIG    1       31.887 -18.115   8.147  0.00  0.00    +0.206 C 
BRANCH  32  33
ATOM     33  C   LIG    1       31.564 -17.621   9.570  0.00  0.00    +0.319 C 
ATOM     34  O   LIG    1       32.353 -17.716  10.504  0.00  0.00    -0.250 OA
BRANCH  33  35
ATOM     35  O   LIG    1       30.329 -17.099   9.748  0.00  0.00    -0.480 OA
ATOM     36  H   LIG    1       30.275 -16.641  10.612  0.00  0.00    +0.295 HD
ENDBRANCH  33  35
ENDBRANCH  32  33
ENDBRANCH  26  32
ENDBRANCH  25  26
ENDBRANCH  24  25
ENDBRANCH  23  24
BRANCH  23  37
ATOM     37  C   LIG    1       27.540 -20.294   8.002  0.00  0.00    +0.205 C 
BRANCH  37  39
ATOM     38  O   LIG    1       26.469 -22.456   8.658  0.00  0.00    -0.250 OA
ATOM     39  C   LIG    1       26.522 -21.229   8.675  0.00  0.00    +0.319 C 
BRANCH  39  40
ATOM     40  O   LIG    1       25.492 -20.573   9.258  0.00  0.00    -0.480 OA
ATOM     41  H   LIG    1       25.910 -20.273  10.099  0.00  0.00    +0.295 HD
ENDBRANCH  39  40
ENDBRANCH  37  39
ENDBRANCH  23  37
ENDBRANCH  22  23
ENDBRANCH   1  22
TORSDOF 25
ENDMDL
MODEL 5
REMARK VINA RESULT:      -7.4      1.894      3.190
REMARK  Name = *****
REMARK                            x       y       z     vdW  Elec       q    Type
REMARK                         _______ _______ _______ _____ _____    ______ ____
ROOT
ATOM      1  C   LIG    1       25.518 -23.932   7.162  0.00  0.00    +0.101 C 
ENDROOT
BRANCH   1   2
ATOM      2  N   LIG    1       24.310 -24.333   6.366  0.00  0.00    -0.277 NA
BRANCH   2   3
ATOM      3  C   LIG    1       23.023 -23.758   6.817  0.00  0.00    +0.206 C 
BRANCH   3   4
ATOM      4  C   LIG    1       22.828 -22.237   6.793  0.00  0.00    +0.319 C 
ATOM      5  O   LIG    1       22.972 -21.547   7.796  0.00  0.00    -0.250 OA
BRANCH   4   6
ATOM      6  O   LIG    1       22.434 -21.672   5.641  0.00  0.00    -0.480 OA
ATOM      7  H   LIG    1       22.223 -20.738   5.771  0.00  0.00    +0.295 HD
ENDBRANCH   4   6
ENDBRANCH   3   4
ENDBRANCH   2   3
BRANCH   2   8
ATOM      8  C   LIG    1       24.287 -25.761   5.842  0.00  0.00    +0.192 C 
BRANCH   8   9
ATOM      9  C   LIG    1       25.144 -25.914   4.594  0.00  0.00    +0.324 C 
ATOM     10  O   LIG    1       26.072 -26.693   4.445  0.00  0.00    -0.249 OA
BRANCH   9  11
ATOM     11  O   LIG    1       25.032 -24.867   3.753  0.00  0.00    -0.479 OA
ATOM     12  H   LIG    1       25.846 -24.337   3.903  0.00  0.00    +0.295 HD
ENDBRANCH   9  11
ENDBRANCH   8   9
BRANCH   8  13
ATOM     13  C   LIG    1       24.735 -26.955   6.761  0.00  0.00    +0.190 C 
BRANCH  13  14
ATOM     14  O   LIG    1       24.209 -28.236   6.328  0.00  0.00    -0.373 OA
BRANCH  14  15
ATOM     15  C   LIG    1       24.982 -29.361   6.733  0.00  0.00    +0.195 C 
BRANCH  15  16
ATOM     16  C   LIG    1       24.949 -29.567   8.230  0.00  0.00    -0.022 A 
ATOM     17  C   LIG    1       23.807 -30.091   8.860  0.00  0.00    +0.006 A 
ATOM     18  C   LIG    1       23.741 -30.186  10.253  0.00  0.00    +0.000 A 
ATOM     19  C   LIG    1       24.823 -29.780  11.033  0.00  0.00    +0.000 A 
ATOM     20  C   LIG    1       25.967 -29.272  10.420  0.00  0.00    +0.000 A 
ATOM     21  C   LIG    1       26.030 -29.168   9.028  0.00  0.00    +0.006 A 
ENDBRANCH  15  16
ENDBRANCH  14  15
ENDBRANCH  13  14
ENDBRANCH   8  13
ENDBRANCH   2   8
ENDBRANCH   1   2
BRANCH   1  22
ATOM     22  C   LIG    1       26.568 -22.888   6.588  0.00  0.00    +0.100 C 
BRANCH  22  23
ATOM     23  N   LIG    1       26.764 -21.722   7.491  0.00  0.00    -0.290 NA
BRANCH  23  24
ATOM     24  C   LIG    1       28.158 -21.494   7.969  0.00  0.00    +0.100 C 
BRANCH  24  25
ATOM     25  C   LIG    1       28.731 -20.012   8.115  0.00  0.00    +0.101 C 
BRANCH  25  26
ATOM     26  N   LIG    1       29.987 -19.644   8.892  0.00  0.00    -0.281 NA
BRANCH  26  27
ATOM     27  C   LIG    1       30.401 -18.204   8.651  0.00  0.00    +0.206 C 
BRANCH  27  28
ATOM     28  C   LIG    1       31.736 -17.720   9.213  0.00  0.00    +0.319 C 
ATOM     29  O   LIG    1       32.233 -17.921  10.352  0.00  0.00    -0.250 OA
BRANCH  28  30
ATOM     30  O   LIG    1       32.344 -16.925   8.397  0.00  0.00    -0.480 OA
ATOM     31  H   LIG    1       32.526 -16.147   8.978  0.00  0.00    +0.295 HD
ENDBRANCH  28  30
ENDBRANCH  27  28
ENDBRANCH  26  27
BRANCH  26  32
ATOM     32  C   LIG    1       31.108 -20.524   8.337  0.00  0.00    +0.206 C 
BRANCH  32  33
ATOM     33  C   LIG    1       31.438 -21.803   9.129  0.00  0.00    +0.319 C 
ATOM     34  O   LIG    1       32.223 -22.654   8.725  0.00  0.00    -0.250 OA
BRANCH  33  35
ATOM     35  O   LIG    1       30.779 -21.960  10.299  0.00  0.00    -0.480 OA
ATOM     36  H   LIG    1       31.348 -22.418  10.952  0.00  0.00    +0.295 HD
ENDBRANCH  33  35
ENDBRANCH  32  33
ENDBRANCH  26  32
ENDBRANCH  25  26
ENDBRANCH  24  25
ENDBRANCH  23  24
BRANCH  23  37
ATOM     37  C   LIG    1       26.135 -20.451   6.975  0.00  0.00    +0.205 C 
BRANCH  37  39
ATOM     38  O   LIG    1       25.110 -20.662   4.705  0.00  0.00    -0.250 OA
ATOM     39  C   LIG    1       26.049 -20.374   5.442  0.00  0.00    +0.319 C 
BRANCH  39  40
ATOM     40  O   LIG    1       27.225 -20.056   4.853  0.00  0.00    -0.480 OA
ATOM     41  H   LIG    1       26.917 -19.758   3.964  0.00  0.00    +0.295 HD
ENDBRANCH  39  40
ENDBRANCH  37  39
ENDBRANCH  23  37
ENDBRANCH  22  23
ENDBRANCH   1  22
TORSDOF 25
ENDMDL
MODEL 6
REMARK VINA RESULT:      -7.3      1.657      3.239
REMARK  Name = *****
REMARK                            x       y       z     vdW  Elec       q    Type
REMARK                         _______ _______ _______ _____ _____    ______ ____
ROOT
ATOM      1  C   LIG    1       26.317 -21.970   7.021  0.00  0.00    +0.101 C 
ENDROOT
BRANCH   1   2
ATOM      2  N   LIG    1       24.949 -22.534   6.768  0.00  0.00    -0.277 NA
BRANCH   2   3
ATOM      3  C   LIG    1       23.813 -21.690   7.203  0.00  0.00    +0.206 C 
BRANCH   3   4
ATOM      4  C   LIG    1       22.964 -20.969   6.149  0.00  0.00    +0.319 C 
ATOM      5  O   LIG    1       22.881 -19.747   6.105  0.00  0.00    -0.250 OA
BRANCH   4   6
ATOM      6  O   LIG    1       22.253 -21.721   5.294  0.00  0.00    -0.480 OA
ATOM      7  H   LIG    1       21.450 -22.055   5.716  0.00  0.00    +0.295 HD
ENDBRANCH   4   6
ENDBRANCH   3   4
ENDBRANCH   2   3
BRANCH   2   8
ATOM      8  C   LIG    1       24.796 -24.039   6.929  0.00  0.00    +0.192 C 
BRANCH   8   9
ATOM      9  C   LIG    1       23.465 -24.530   6.377  0.00  0.00    +0.324 C 
ATOM     10  O   LIG    1       22.359 -24.284   6.833  0.00  0.00    -0.249 OA
BRANCH   9  11
ATOM     11  O   LIG    1       23.603 -25.566   5.527  0.00  0.00    -0.479 OA
ATOM     12  H   LIG    1       24.445 -25.999   5.795  0.00  0.00    +0.295 HD
ENDBRANCH   9  11
ENDBRANCH   8   9
BRANCH   8  13
ATOM     13  C   LIG    1       25.852 -25.020   6.304  0.00  0.00    +0.190 C 
BRANCH  13  14
ATOM     14  O   LIG    1       26.171 -26.141   7.167  0.00  0.00    -0.373 OA
BRANCH  14  15
ATOM     15  C   LIG    1       25.758 -27.409   6.669  0.00  0.00    +0.195 C 
BRANCH  15  16
ATOM     16  C   LIG    1       25.540 -28.413   7.779  0.00  0.00    -0.022 A 
ATOM     17  C   LIG    1       24.500 -29.355   7.704  0.00  0.00    +0.006 A 
ATOM     18  C   LIG    1       24.238 -30.215   8.775  0.00  0.00    +0.000 A 
ATOM     19  C   LIG    1       25.025 -30.159   9.924  0.00  0.00    +0.000 A 
ATOM     20  C   LIG    1       26.068 -29.238  10.005  0.00  0.00    +0.000 A 
ATOM     21  C   LIG    1       26.325 -28.373   8.939  0.00  0.00    +0.006 A 
ENDBRANCH  15  16
ENDBRANCH  14  15
ENDBRANCH  13  14
ENDBRANCH   8  13
ENDBRANCH   2   8
ENDBRANCH   1   2
BRANCH   1  22
ATOM     22  C   LIG    1       26.547 -20.403   7.143  0.00  0.00    +0.100 C 
BRANCH  22  23
ATOM     23  N   LIG    1       27.113 -19.812   5.901  0.00  0.00    -0.290 NA
BRANCH  23  24
ATOM     24  C   LIG    1       28.587 -19.956   5.723  0.00  0.00    +0.100 C 
BRANCH  24  25
ATOM     25  C   LIG    1       29.595 -19.041   6.556  0.00  0.00    +0.101 C 
BRANCH  25  26
ATOM     26  N   LIG    1       30.314 -19.481   7.822  0.00  0.00    -0.281 NA
BRANCH  26  27
ATOM     27  C   LIG    1       30.077 -20.948   8.128  0.00  0.00    +0.206 C 
BRANCH  27  28
ATOM     28  C   LIG    1       31.032 -21.663   9.081  0.00  0.00    +0.319 C 
ATOM     29  O   LIG    1       30.917 -21.854  10.320  0.00  0.00    -0.250 OA
BRANCH  28  30
ATOM     30  O   LIG    1       32.129 -22.012   8.495  0.00  0.00    -0.480 OA
ATOM     31  H   LIG    1       32.679 -22.303   9.262  0.00  0.00    +0.295 HD
ENDBRANCH  28  30
ENDBRANCH  27  28
ENDBRANCH  26  27
BRANCH  26  32
ATOM     32  C   LIG    1       29.691 -18.685   8.970  0.00  0.00    +0.206 C 
BRANCH  32  33
ATOM     33  C   LIG    1       30.668 -17.991   9.939  0.00  0.00    +0.319 C 
ATOM     34  O   LIG    1       31.846 -18.315  10.045  0.00  0.00    -0.250 OA
BRANCH  33  35
ATOM     35  O   LIG    1       30.141 -17.010  10.707  0.00  0.00    -0.480 OA
ATOM     36  H   LIG    1       29.163 -17.055  10.693  0.00  0.00    +0.295 HD
ENDBRANCH  33  35
ENDBRANCH  32  33
ENDBRANCH  26  32
ENDBRANCH  25  26
ENDBRANCH  24  25
ENDBRANCH  23  24
BRANCH  23  37
ATOM     37  C   LIG    1       26.359 -20.199   4.654  0.00  0.00    +0.205 C 
BRANCH  37  39
ATOM     38  O   LIG    1       24.492 -18.907   3.606  0.00  0.00    -0.250 OA
ATOM     39  C   LIG    1       25.665 -19.021   3.951  0.00  0.00    +0.319 C 
BRANCH  39  40
ATOM     40  O   LIG    1       26.520 -18.043   3.571  0.00  0.00    -0.480 OA
ATOM     41  H   LIG    1       26.147 -17.797   2.692  0.00  0.00    +0.295 HD
ENDBRANCH  39  40
ENDBRANCH  37  39
ENDBRANCH  23  37
ENDBRANCH  22  23
ENDBRANCH   1  22
TORSDOF 25
ENDMDL
MODEL 7
REMARK VINA RESULT:      -7.2      2.283      5.791
REMARK  Name = *****
REMARK                            x       y       z     vdW  Elec       q    Type
REMARK                         _______ _______ _______ _____ _____    ______ ____
ROOT
ATOM      1  C   LIG    1       26.200 -22.393   7.930  0.00  0.00    +0.101 C 
ENDROOT
BRANCH   1   2
ATOM      2  N   LIG    1       25.311 -23.301   7.131  0.00  0.00    -0.277 NA
BRANCH   2   3
ATOM      3  C   LIG    1       25.854 -24.649   6.850  0.00  0.00    +0.206 C 
BRANCH   3   4
ATOM      4  C   LIG    1       25.138 -25.552   5.837  0.00  0.00    +0.319 C 
ATOM      5  O   LIG    1       25.545 -25.693   4.690  0.00  0.00    -0.250 OA
BRANCH   4   6
ATOM      6  O   LIG    1       24.001 -26.152   6.225  0.00  0.00    -0.480 OA
ATOM      7  H   LIG    1       23.633 -25.718   7.006  0.00  0.00    +0.295 HD
ENDBRANCH   4   6
ENDBRANCH   3   4
ENDBRANCH   2   3
BRANCH   2   8
ATOM      8  C   LIG    1       24.481 -22.646   6.038  0.00  0.00    +0.192 C 
BRANCH   8   9
ATOM      9  C   LIG    1       22.989 -22.793   6.302  0.00  0.00    +0.324 C 
ATOM     10  O   LIG    1       22.441 -23.740   6.845  0.00  0.00    -0.249 OA
BRANCH   9  11
ATOM     11  O   LIG    1       22.244 -21.942   5.571  0.00  0.00    -0.479 OA
ATOM     12  H   LIG    1       21.812 -21.356   6.232  0.00  0.00    +0.295 HD
ENDBRANCH   9  11
ENDBRANCH   8   9
BRANCH   8  13
ATOM     13  C   LIG    1       24.660 -21.120   5.706  0.00  0.00    +0.190 C 
BRANCH  13  14
ATOM     14  O   LIG    1       25.175 -20.883   4.371  0.00  0.00    -0.373 OA
BRANCH  14  15
ATOM     15  C   LIG    1       24.225 -20.349   3.455  0.00  0.00    +0.195 C 
BRANCH  15  16
ATOM     16  C   LIG    1       23.788 -18.953   3.835  0.00  0.00    -0.022 A 
ATOM     17  C   LIG    1       22.489 -18.710   4.312  0.00  0.00    +0.006 A 
ATOM     18  C   LIG    1       22.055 -17.405   4.567  0.00  0.00    +0.000 A 
ATOM     19  C   LIG    1       22.921 -16.330   4.369  0.00  0.00    +0.000 A 
ATOM     20  C   LIG    1       24.217 -16.559   3.910  0.00  0.00    +0.000 A 
ATOM     21  C   LIG    1       24.648 -17.862   3.648  0.00  0.00    +0.006 A 
ENDBRANCH  15  16
ENDBRANCH  14  15
ENDBRANCH  13  14
ENDBRANCH   8  13
ENDBRANCH   2   8
ENDBRANCH   1   2
BRANCH   1  22
ATOM     22  C   LIG    1       27.691 -22.094   7.470  0.00  0.00    +0.100 C 
BRANCH  22  23
ATOM     23  N   LIG    1       27.937 -20.644   7.241  0.00  0.00    -0.290 NA
BRANCH  23  24
ATOM     24  C   LIG    1       28.143 -19.816   8.465  0.00  0.00    +0.100 C 
BRANCH  24  25
ATOM     25  C   LIG    1       29.482 -18.969   8.650  0.00  0.00    +0.101 C 
BRANCH  25  26
ATOM     26  N   LIG    1       30.605 -19.330   9.611  0.00  0.00    -0.281 NA
BRANCH  26  27
ATOM     27  C   LIG    1       31.441 -18.120   9.986  0.00  0.00    +0.206 C 
BRANCH  27  28
ATOM     28  C   LIG    1       30.999 -17.260  11.168  0.00  0.00    +0.319 C 
ATOM     29  O   LIG    1       30.257 -16.243  11.173  0.00  0.00    -0.250 OA
BRANCH  28  30
ATOM     30  O   LIG    1       31.573 -17.619  12.268  0.00  0.00    -0.480 OA
ATOM     31  H   LIG    1       31.127 -17.031  12.925  0.00  0.00    +0.295 HD
ENDBRANCH  28  30
ENDBRANCH  27  28
ENDBRANCH  26  27
BRANCH  26  32
ATOM     32  C   LIG    1       31.528 -20.285   8.853  0.00  0.00    +0.206 C 
BRANCH  32  33
ATOM     33  C   LIG    1       31.432 -21.777   9.222  0.00  0.00    +0.319 C 
ATOM     34  O   LIG    1       30.743 -22.192  10.148  0.00  0.00    -0.250 OA
BRANCH  33  35
ATOM     35  O   LIG    1       32.186 -22.620   8.481  0.00  0.00    -0.480 OA
ATOM     36  H   LIG    1       33.132 -22.525   8.715  0.00  0.00    +0.295 HD
ENDBRANCH  33  35
ENDBRANCH  32  33
ENDBRANCH  26  32
ENDBRANCH  25  26
ENDBRANCH  24  25
ENDBRANCH  23  24
BRANCH  23  37
ATOM     37  C   LIG    1       28.991 -20.372   6.198  0.00  0.00    +0.205 C 
BRANCH  37  39
ATOM     38  O   LIG    1       29.429 -18.059   5.355  0.00  0.00    -0.250 OA
ATOM     39  C   LIG    1       28.754 -19.084   5.392  0.00  0.00    +0.319 C 
BRANCH  39  40
ATOM     40  O   LIG    1       27.570 -19.069   4.738  0.00  0.00    -0.480 OA
ATOM     41  H   LIG    1       27.870 -18.991   3.802  0.00  0.00    +0.295 HD
ENDBRANCH  39  40
ENDBRANCH  37  39
ENDBRANCH  23  37
ENDBRANCH  22  23
ENDBRANCH   1  22
TORSDOF 25
ENDMDL
MODEL 8
REMARK VINA RESULT:      -7.1      1.997      3.758
REMARK  Name = *****
REMARK                            x       y       z     vdW  Elec       q    Type
REMARK                         _______ _______ _______ _____ _____    ______ ____
ROOT
ATOM      1  C   LIG    1       25.601 -23.642   7.408  0.00  0.00    +0.101 C 
ENDROOT
BRANCH   1   2
ATOM      2  N   LIG    1       24.570 -24.326   6.556  0.00  0.00    -0.277 NA
BRANCH   2   3
ATOM      3  C   LIG    1       23.160 -24.006   6.872  0.00  0.00    +0.206 C 
BRANCH   3   4
ATOM      4  C   LIG    1       22.702 -22.542   6.871  0.00  0.00    +0.319 C 
ATOM      5  O   LIG    1       22.177 -22.025   5.892  0.00  0.00    -0.250 OA
BRANCH   4   6
ATOM      6  O   LIG    1       22.946 -21.807   7.969  0.00  0.00    -0.480 OA
ATOM      7  H   LIG    1       22.961 -22.365   8.758  0.00  0.00    +0.295 HD
ENDBRANCH   4   6
ENDBRANCH   3   4
ENDBRANCH   2   3
BRANCH   2   8
ATOM      8  C   LIG    1       24.880 -25.754   6.133  0.00  0.00    +0.192 C 
BRANCH   8   9
ATOM      9  C   LIG    1       25.217 -25.839   4.651  0.00  0.00    +0.324 C 
ATOM     10  O   LIG    1       25.977 -26.638   4.127  0.00  0.00    -0.249 OA
BRANCH   9  11
ATOM     11  O   LIG    1       24.877 -24.724   3.975  0.00  0.00    -0.479 OA
ATOM     12  H   LIG    1       24.128 -24.341   4.484  0.00  0.00    +0.295 HD
ENDBRANCH   9  11
ENDBRANCH   8   9
BRANCH   8  13
ATOM     13  C   LIG    1       26.032 -26.561   6.833  0.00  0.00    +0.190 C 
BRANCH  13  14
ATOM     14  O   LIG    1       25.548 -27.672   7.629  0.00  0.00    -0.373 OA
BRANCH  14  15
ATOM     15  C   LIG    1       24.606 -28.510   6.968  0.00  0.00    +0.195 C 
BRANCH  15  16
ATOM     16  C   LIG    1       25.176 -29.877   6.661  0.00  0.00    -0.022 A 
ATOM     17  C   LIG    1       25.591 -30.733   7.695  0.00  0.00    +0.006 A 
ATOM     18  C   LIG    1       26.210 -31.953   7.406  0.00  0.00    +0.000 A 
ATOM     19  C   LIG    1       26.403 -32.341   6.081  0.00  0.00    +0.000 A 
ATOM     20  C   LIG    1       25.983 -31.508   5.046  0.00  0.00    +0.000 A 
ATOM     21  C   LIG    1       25.372 -30.285   5.335  0.00  0.00    +0.006 A 
ENDBRANCH  15  16
ENDBRANCH  14  15
ENDBRANCH  13  14
ENDBRANCH   8  13
ENDBRANCH   2   8
ENDBRANCH   1   2
BRANCH   1  22
ATOM     22  C   LIG    1       26.481 -22.452   6.831  0.00  0.00    +0.100 C 
BRANCH  22  23
ATOM     23  N   LIG    1       26.041 -21.123   7.334  0.00  0.00    -0.290 NA
BRANCH  23  24
ATOM     24  C   LIG    1       27.087 -20.304   8.013  0.00  0.00    +0.100 C 
BRANCH  24  25
ATOM     25  C   LIG    1       28.418 -19.888   7.237  0.00  0.00    +0.101 C 
BRANCH  25  26
ATOM     26  N   LIG    1       29.828 -20.213   7.706  0.00  0.00    -0.281 NA
BRANCH  26  27
ATOM     27  C   LIG    1       29.911 -21.589   8.340  0.00  0.00    +0.206 C 
BRANCH  27  28
ATOM     28  C   LIG    1       31.088 -21.904   9.261  0.00  0.00    +0.319 C 
ATOM     29  O   LIG    1       32.318 -21.928   8.992  0.00  0.00    -0.250 OA
BRANCH  28  30
ATOM     30  O   LIG    1       30.698 -22.280  10.433  0.00  0.00    -0.480 OA
ATOM     31  H   LIG    1       29.942 -21.666  10.597  0.00  0.00    +0.295 HD
ENDBRANCH  28  30
ENDBRANCH  27  28
ENDBRANCH  26  27
BRANCH  26  32
ATOM     32  C   LIG    1       30.159 -19.201   8.804  0.00  0.00    +0.206 C 
BRANCH  32  33
ATOM     33  C   LIG    1       31.594 -18.640   8.816  0.00  0.00    +0.319 C 
ATOM     34  O   LIG    1       32.195 -18.366   9.849  0.00  0.00    -0.250 OA
BRANCH  33  35
ATOM     35  O   LIG    1       32.156 -18.429   7.604  0.00  0.00    -0.480 OA
ATOM     36  H   LIG    1       32.103 -17.480   7.365  0.00  0.00    +0.295 HD
ENDBRANCH  33  35
ENDBRANCH  32  33
ENDBRANCH  26  32
ENDBRANCH  25  26
ENDBRANCH  24  25
ENDBRANCH  23  24
BRANCH  23  37
ATOM     37  C   LIG    1       25.276 -20.318   6.314  0.00  0.00    +0.205 C 
BRANCH  37  39
ATOM     38  O   LIG    1       24.781 -21.691   4.284  0.00  0.00    -0.250 OA
ATOM     39  C   LIG    1       25.429 -20.829   4.872  0.00  0.00    +0.319 C 
BRANCH  39  40
ATOM     40  O   LIG    1       26.510 -20.323   4.235  0.00  0.00    -0.480 OA
ATOM     41  H   LIG    1       26.086 -19.661   3.639  0.00  0.00    +0.295 HD
ENDBRANCH  39  40
ENDBRANCH  37  39
ENDBRANCH  23  37
ENDBRANCH  22  23
ENDBRANCH   1  22
TORSDOF 25
ENDMDL
MODEL 9
REMARK VINA RESULT:      -7.0      2.478      8.825
REMARK  Name = *****
REMARK                            x       y       z     vdW  Elec       q    Type
REMARK                         _______ _______ _______ _____ _____    ______ ____
ROOT
ATOM      1  C   LIG    1       26.041 -22.374   5.939  0.00  0.00    +0.101 C 
ENDROOT
BRANCH   1   2
ATOM      2  N   LIG    1       25.967 -20.877   6.038  0.00  0.00    -0.277 NA
BRANCH   2   3
ATOM      3  C   LIG    1       25.850 -20.151   4.754  0.00  0.00    +0.206 C 
BRANCH   3   4
ATOM      4  C   LIG    1       24.492 -19.571   4.339  0.00  0.00    +0.319 C 
ATOM      5  O   LIG    1       23.433 -20.062   4.713  0.00  0.00    -0.250 OA
BRANCH   4   6
ATOM      6  O   LIG    1       24.487 -18.528   3.493  0.00  0.00    -0.480 OA
ATOM      7  H   LIG    1       23.928 -17.816   3.830  0.00  0.00    +0.295 HD
ENDBRANCH   4   6
ENDBRANCH   3   4
ENDBRANCH   2   3
BRANCH   2   8
ATOM      8  C   LIG    1       26.809 -20.229   7.127  0.00  0.00    +0.192 C 
BRANCH   8   9
ATOM      9  C   LIG    1       26.569 -20.877   8.483  0.00  0.00    +0.324 C 
ATOM     10  O   LIG    1       25.819 -20.469   9.356  0.00  0.00    -0.249 OA
BRANCH   9  11
ATOM     11  O   LIG    1       27.521 -21.772   8.809  0.00  0.00    -0.479 OA
ATOM     12  H   LIG    1       28.061 -21.872   7.993  0.00  0.00    +0.295 HD
ENDBRANCH   9  11
ENDBRANCH   8   9
BRANCH   8  13
ATOM     13  C   LIG    1       28.375 -20.178   7.001  0.00  0.00    +0.190 C 
BRANCH  13  14
ATOM     14  O   LIG    1       29.015 -19.498   8.110  0.00  0.00    -0.373 OA
BRANCH  14  15
ATOM     15  C   LIG    1       30.341 -19.050   7.846  0.00  0.00    +0.195 C 
BRANCH  15  16
ATOM     16  C   LIG    1       30.861 -18.137   8.933  0.00  0.00    -0.022 A 
ATOM     17  C   LIG    1       30.072 -17.830  10.054  0.00  0.00    +0.006 A 
ATOM     18  C   LIG    1       30.515 -16.907  11.007  0.00  0.00    +0.000 A 
ATOM     19  C   LIG    1       31.760 -16.297  10.862  0.00  0.00    +0.000 A 
ATOM     20  C   LIG    1       32.558 -16.604   9.762  0.00  0.00    +0.000 A 
ATOM     21  C   LIG    1       32.112 -17.519   8.805  0.00  0.00    +0.006 A 
ENDBRANCH  15  16
ENDBRANCH  14  15
ENDBRANCH  13  14
ENDBRANCH   8  13
ENDBRANCH   2   8
ENDBRANCH   1   2
BRANCH   1  22
ATOM     22  C   LIG    1       24.925 -23.198   5.166  0.00  0.00    +0.100 C 
BRANCH  22  23
ATOM     23  N   LIG    1       24.468 -24.391   5.928  0.00  0.00    -0.290 NA
BRANCH  23  24
ATOM     24  C   LIG    1       25.516 -25.104   6.715  0.00  0.00    +0.100 C 
BRANCH  24  25
ATOM     25  C   LIG    1       26.379 -26.266   6.045  0.00  0.00    +0.101 C 
BRANCH  25  26
ATOM     26  N   LIG    1       26.136 -27.753   6.258  0.00  0.00    -0.281 NA
BRANCH  26  27
ATOM     27  C   LIG    1       25.188 -28.327   5.222  0.00  0.00    +0.206 C 
BRANCH  27  28
ATOM     28  C   LIG    1       24.489 -29.652   5.519  0.00  0.00    +0.319 C 
ATOM     29  O   LIG    1       24.998 -30.773   5.781  0.00  0.00    -0.250 OA
BRANCH  28  30
ATOM     30  O   LIG    1       23.209 -29.567   5.373  0.00  0.00    -0.480 OA
ATOM     31  H   LIG    1       22.976 -28.893   6.057  0.00  0.00    +0.295 HD
ENDBRANCH  28  30
ENDBRANCH  27  28
ENDBRANCH  26  27
BRANCH  26  32
ATOM     32  C   LIG    1       25.441 -27.886   7.613  0.00  0.00    +0.206 C 
BRANCH  32  33
ATOM     33  C   LIG    1       26.190 -28.680   8.699  0.00  0.00    +0.319 C 
ATOM     34  O   LIG    1       26.617 -28.166   9.728  0.00  0.00    -0.250 OA
BRANCH  33  35
ATOM     35  O   LIG    1       26.388 -29.993   8.440  0.00  0.00    -0.480 OA
ATOM     36  H   LIG    1       27.172 -30.112   7.866  0.00  0.00    +0.295 HD
ENDBRANCH  33  35
ENDBRANCH  32  33
ENDBRANCH  26  32
ENDBRANCH  25  26
ENDBRANCH  24  25
ENDBRANCH  23  24
BRANCH  23  37
ATOM     37  C   LIG    1       23.227 -24.140   6.748  0.00  0.00    +0.205 C 
BRANCH  37  39
ATOM     38  O   LIG    1       23.085 -21.871   7.790  0.00  0.00    -0.250 OA
ATOM     39  C   LIG    1       22.851 -22.654   6.873  0.00  0.00    +0.319 C 
BRANCH  39  40
ATOM     40  O   LIG    1       22.053 -22.216   5.872  0.00  0.00    -0.480 OA
ATOM     41  H   LIG    1       22.326 -22.813   5.136  0.00  0.00    +0.295 HD
ENDBRANCH  39  40
ENDBRANCH  37  39
ENDBRANCH  23  37
ENDBRANCH  22  23
ENDBRANCH   1  22
TORSDOF 25
ENDMDL
