MODEL 1
REMARK VINA RESULT:      -6.7      0.000      0.000
REMARK  Name = *****
REMARK                            x       y       z     vdW  Elec       q    Type
REMARK                         _______ _______ _______ _____ _____    ______ ____
ROOT
ATOM      1  C   LIG    1       25.578 -26.620   5.993  0.00  0.00    +0.211 C 
ENDROOT
BRANCH   1   2
ATOM      2  N   LIG    1       24.458 -27.516   6.235  0.00  0.00    -0.275 N 
ATOM      3  H   LIG    1       23.556 -27.047   6.187  0.00  0.00    +0.258 HD
BRANCH   2   6
ATOM      4  N   LIG    1       23.363 -29.414   5.410  0.00  0.00    -0.130 NA
ATOM      5  H   LIG    1       23.622 -30.333   5.069  0.00  0.00    +0.306 HD
ATOM      6  C   LIG    1       24.430 -28.762   5.726  0.00  0.00    +0.376 C 
BRANCH   6   7
ATOM      7  N   LIG    1       25.673 -29.240   5.546  0.00  0.00    -0.289 N 
ATOM      8  H   LIG    1       25.780 -30.154   5.985  0.00  0.00    +0.255 HD
ATOM      9  H   LIG    1       26.412 -28.616   5.845  0.00  0.00    +0.255 HD
ENDBRANCH   6   7
ENDBRANCH   2   6
ENDBRANCH   1   2
BRANCH   1  10
ATOM     10  C   LIG    1       25.135 -25.372   5.189  0.00  0.00    +0.121 C 
BRANCH  10  11
ATOM     11  N   LIG    1       24.859 -24.119   5.953  0.00  0.00    -0.299 NA
ATOM     12  C   LIG    1       23.492 -24.141   6.496  0.00  0.00    +0.084 C 
ATOM     13  C   LIG    1       22.920 -22.846   7.086  0.00  0.00    +0.015 C 
ATOM     14  C   LIG    1       23.251 -21.573   6.306  0.00  0.00    +0.001 C 
ATOM     15  C   LIG    1       24.402 -20.752   6.893  0.00  0.00    +0.000 C 
ATOM     16  C   LIG    1       25.787 -21.397   6.851  0.00  0.00    +0.001 C 
ATOM     17  C   LIG    1       25.929 -22.629   7.745  0.00  0.00    +0.015 C 
ATOM     18  C   LIG    1       25.899 -23.960   6.985  0.00  0.00    +0.084 C 
ENDBRANCH  10  11
ENDBRANCH   1  10
TORSDOF 5
ENDMDL
MODEL 2
REMARK VINA RESULT:      -6.7      4.526      6.629
REMARK  Name = *****
REMARK                            x       y       z     vdW  Elec       q    Type
REMARK                         _______ _______ _______ _____ _____    ______ ____
ROOT
ATOM      1  C   LIG    1       29.123 -20.787   7.197  0.00  0.00    +0.211 C 
ENDROOT
BRANCH   1   2
ATOM      2  N   LIG    1       29.953 -21.448   8.193  0.00  0.00    -0.275 N 
ATOM      3  H   LIG    1       29.917 -22.463   8.129  0.00  0.00    +0.258 HD
BRANCH   2   6
ATOM      4  N   LIG    1       31.930 -21.449   9.447  0.00  0.00    -0.130 NA
ATOM      5  H   LIG    1       32.786 -20.908   9.487  0.00  0.00    +0.306 HD
ATOM      6  C   LIG    1       31.177 -20.984   8.509  0.00  0.00    +0.376 C 
BRANCH   6   7
ATOM      7  N   LIG    1       31.543 -19.983   7.691  0.00  0.00    -0.289 N 
ATOM      8  H   LIG    1       30.815 -19.272   7.635  0.00  0.00    +0.255 HD
ATOM      9  H   LIG    1       31.820 -20.278   6.763  0.00  0.00    +0.255 HD
ENDBRANCH   6   7
ENDBRANCH   2   6
ENDBRANCH   1   2
BRANCH   1  10
ATOM     10  C   LIG    1       27.754 -20.372   7.794  0.00  0.00    +0.121 C 
BRANCH  10  11
ATOM     11  N   LIG    1       26.523 -20.895   7.130  0.00  0.00    -0.299 NA
ATOM     12  C   LIG    1       26.432 -20.390   5.752  0.00  0.00    +0.084 C 
ATOM     13  C   LIG    1       25.118 -20.592   4.986  0.00  0.00    +0.015 C 
ATOM     14  C   LIG    1       23.846 -20.375   5.806  0.00  0.00    +0.001 C 
ATOM     15  C   LIG    1       23.184 -21.662   6.301  0.00  0.00    +0.000 C 
ATOM     16  C   LIG    1       23.967 -22.477   7.330  0.00  0.00    +0.001 C 
ATOM     17  C   LIG    1       25.255 -23.097   6.786  0.00  0.00    +0.015 C 
ATOM     18  C   LIG    1       26.532 -22.366   7.217  0.00  0.00    +0.084 C 
ENDBRANCH  10  11
ENDBRANCH   1  10
TORSDOF 5
ENDMDL
MODEL 3
REMARK VINA RESULT:      -6.6      4.306      6.482
REMARK  Name = *****
REMARK                            x       y       z     vdW  Elec       q    Type
REMARK                         _______ _______ _______ _____ _____    ______ ____
ROOT
ATOM      1  C   LIG    1       28.994 -20.387   7.793  0.00  0.00    +0.211 C 
ENDROOT
BRANCH   1   2
ATOM      2  N   LIG    1       30.117 -21.309   7.868  0.00  0.00    -0.275 N 
ATOM      3  H   LIG    1       30.620 -21.395   6.987  0.00  0.00    +0.258 HD
BRANCH   2   6
ATOM      4  N   LIG    1       30.947 -22.279   9.830  0.00  0.00    -0.130 NA
ATOM      5  H   LIG    1       31.634 -22.052  10.540  0.00  0.00    +0.306 HD
ATOM      6  C   LIG    1       30.928 -21.345   8.942  0.00  0.00    +0.376 C 
BRANCH   6   7
ATOM      7  N   LIG    1       31.759 -20.289   8.957  0.00  0.00    -0.289 N 
ATOM      8  H   LIG    1       31.893 -19.915   8.018  0.00  0.00    +0.255 HD
ATOM      9  H   LIG    1       32.654 -20.464   9.398  0.00  0.00    +0.255 HD
ENDBRANCH   6   7
ENDBRANCH   2   6
ENDBRANCH   1   2
BRANCH   1  10
ATOM     10  C   LIG    1       28.100 -20.691   6.564  0.00  0.00    +0.121 C 
BRANCH  10  11
ATOM     11  N   LIG    1       26.740 -21.250   6.819  0.00  0.00    -0.299 NA
ATOM     12  C   LIG    1       26.828 -22.682   7.142  0.00  0.00    +0.084 C 
ATOM     13  C   LIG    1       25.533 -23.503   7.180  0.00  0.00    +0.015 C 
ATOM     14  C   LIG    1       24.526 -23.183   6.075  0.00  0.00    +0.001 C 
ATOM     15  C   LIG    1       23.379 -22.268   6.508  0.00  0.00    +0.000 C 
ATOM     16  C   LIG    1       23.756 -20.834   6.878  0.00  0.00    +0.001 C 
ATOM     17  C   LIG    1       24.608 -20.719   8.143  0.00  0.00    +0.015 C 
ATOM     18  C   LIG    1       26.093 -20.449   7.874  0.00  0.00    +0.084 C 
ENDBRANCH  10  11
ENDBRANCH   1  10
TORSDOF 5
ENDMDL
MODEL 4
REMARK VINA RESULT:      -6.5      2.610      4.396
REMARK  Name = *****
REMARK                            x       y       z     vdW  Elec       q    Type
REMARK                         _______ _______ _______ _____ _____    ______ ____
ROOT
ATOM      1  C   LIG    1       26.051 -22.577   6.850  0.00  0.00    +0.211 C 
ENDROOT
BRANCH   1   2
ATOM      2  N   LIG    1       25.391 -23.850   7.093  0.00  0.00    -0.275 N 
ATOM      3  H   LIG    1       25.095 -23.966   8.060  0.00  0.00    +0.258 HD
BRANCH   2   6
ATOM      4  N   LIG    1       23.309 -24.726   6.480  0.00  0.00    -0.130 NA
ATOM      5  H   LIG    1       22.876 -25.103   5.644  0.00  0.00    +0.306 HD
ATOM      6  C   LIG    1       24.518 -24.370   6.210  0.00  0.00    +0.376 C 
BRANCH   6   7
ATOM      7  N   LIG    1       25.055 -24.440   4.981  0.00  0.00    -0.289 N 
ATOM      8  H   LIG    1       24.671 -25.227   4.458  0.00  0.00    +0.255 HD
ATOM      9  H   LIG    1       26.067 -24.467   4.964  0.00  0.00    +0.255 HD
ENDBRANCH   6   7
ENDBRANCH   2   6
ENDBRANCH   1   2
BRANCH   1  10
ATOM     10  C   LIG    1       25.102 -21.387   7.144  0.00  0.00    +0.121 C 
BRANCH  10  11
ATOM     11  N   LIG    1       24.450 -20.719   5.979  0.00  0.00    -0.299 NA
ATOM     12  C   LIG    1       25.212 -20.979   4.748  0.00  0.00    +0.084 C 
ATOM     13  C   LIG    1       24.865 -20.173   3.490  0.00  0.00    +0.015 C 
ATOM     14  C   LIG    1       24.567 -18.691   3.727  0.00  0.00    +0.001 C 
ATOM     15  C   LIG    1       23.078 -18.343   3.765  0.00  0.00    +0.000 C 
ATOM     16  C   LIG    1       22.275 -18.914   4.934  0.00  0.00    +0.001 C 
ATOM     17  C   LIG    1       22.136 -20.437   4.910  0.00  0.00    +0.015 C 
ATOM     18  C   LIG    1       23.047 -21.164   5.906  0.00  0.00    +0.084 C 
ENDBRANCH  10  11
ENDBRANCH   1  10
TORSDOF 5
ENDMDL
MODEL 5
REMARK VINA RESULT:      -6.5      4.765      6.896
REMARK  Name = *****
REMARK                            x       y       z     vdW  Elec       q    Type
REMARK                         _______ _______ _______ _____ _____    ______ ____
ROOT
ATOM      1  C   LIG    1       29.395 -19.696   7.172  0.00  0.00    +0.211 C 
ENDROOT
BRANCH   1   2
ATOM      2  N   LIG    1       30.250 -20.825   7.508  0.00  0.00    -0.275 N 
ATOM      3  H   LIG    1       30.714 -21.227   6.696  0.00  0.00    +0.258 HD
BRANCH   2   6
ATOM      4  N   LIG    1       31.030 -19.896   9.510  0.00  0.00    -0.130 NA
ATOM      5  H   LIG    1       31.721 -20.123  10.217  0.00  0.00    +0.306 HD
ATOM      6  C   LIG    1       31.027 -20.816   8.607  0.00  0.00    +0.376 C 
BRANCH   6   7
ATOM      7  N   LIG    1       31.786 -21.923   8.673  0.00  0.00    -0.289 N 
ATOM      8  H   LIG    1       32.304 -22.064   7.806  0.00  0.00    +0.255 HD
ATOM      9  H   LIG    1       31.283 -22.765   8.923  0.00  0.00    +0.255 HD
ENDBRANCH   6   7
ENDBRANCH   2   6
ENDBRANCH   1   2
BRANCH   1  10
ATOM     10  C   LIG    1       28.454 -20.039   5.989  0.00  0.00    +0.121 C 
BRANCH  10  11
ATOM     11  N   LIG    1       27.128 -20.643   6.313  0.00  0.00    -0.299 NA
ATOM     12  C   LIG    1       26.747 -20.329   7.699  0.00  0.00    +0.084 C 
ATOM     13  C   LIG    1       25.552 -21.069   8.313  0.00  0.00    +0.015 C 
ATOM     14  C   LIG    1       25.463 -22.557   7.974  0.00  0.00    +0.001 C 
ATOM     15  C   LIG    1       24.469 -22.894   6.859  0.00  0.00    +0.000 C 
ATOM     16  C   LIG    1       24.813 -22.374   5.463  0.00  0.00    +0.001 C 
ATOM     17  C   LIG    1       24.766 -20.851   5.335  0.00  0.00    +0.015 C 
ATOM     18  C   LIG    1       26.145 -20.182   5.315  0.00  0.00    +0.084 C 
ENDBRANCH  10  11
ENDBRANCH   1  10
TORSDOF 5
ENDMDL
MODEL 6
REMARK VINA RESULT:      -6.5      3.896      6.165
REMARK  Name = *****
REMARK                            x       y       z     vdW  Elec       q    Type
REMARK                         _______ _______ _______ _____ _____    ______ ____
ROOT
ATOM      1  C   LIG    1       23.251 -19.873   4.292  0.00  0.00    +0.211 C 
ENDROOT
BRANCH   1   2
ATOM      2  N   LIG    1       24.541 -20.340   3.807  0.00  0.00    -0.275 N 
ATOM      3  H   LIG    1       24.479 -20.820   2.912  0.00  0.00    +0.258 HD
BRANCH   2   6
ATOM      4  N   LIG    1       25.839 -18.444   3.359  0.00  0.00    -0.130 NA
ATOM      5  H   LIG    1       26.764 -18.103   3.595  0.00  0.00    +0.306 HD
ATOM      6  C   LIG    1       25.651 -19.588   3.924  0.00  0.00    +0.376 C 
BRANCH   6   7
ATOM      7  N   LIG    1       26.543 -20.164   4.747  0.00  0.00    -0.289 N 
ATOM      8  H   LIG    1       27.339 -19.549   4.914  0.00  0.00    +0.255 HD
ATOM      9  H   LIG    1       26.861 -21.078   4.450  0.00  0.00    +0.255 HD
ENDBRANCH   6   7
ENDBRANCH   2   6
ENDBRANCH   1   2
BRANCH   1  10
ATOM     10  C   LIG    1       23.071 -20.186   5.799  0.00  0.00    +0.121 C 
BRANCH  10  11
ATOM     11  N   LIG    1       23.770 -21.388   6.344  0.00  0.00    -0.299 NA
ATOM     12  C   LIG    1       24.449 -21.056   7.605  0.00  0.00    +0.084 C 
ATOM     13  C   LIG    1       25.438 -22.073   8.192  0.00  0.00    +0.015 C 
ATOM     14  C   LIG    1       26.341 -22.766   7.171  0.00  0.00    +0.001 C 
ATOM     15  C   LIG    1       25.888 -24.173   6.776  0.00  0.00    +0.000 C 
ATOM     16  C   LIG    1       24.573 -24.272   6.003  0.00  0.00    +0.001 C 
ATOM     17  C   LIG    1       23.340 -23.872   6.815  0.00  0.00    +0.015 C 
ATOM     18  C   LIG    1       22.791 -22.482   6.474  0.00  0.00    +0.084 C 
ENDBRANCH  10  11
ENDBRANCH   1  10
TORSDOF 5
ENDMDL
MODEL 7
REMARK VINA RESULT:      -6.4      1.801      2.734
REMARK  Name = *****
REMARK                            x       y       z     vdW  Elec       q    Type
REMARK                         _______ _______ _______ _____ _____    ______ ____
ROOT
ATOM      1  C   LIG    1       25.638 -24.532   6.401  0.00  0.00    +0.211 C 
ENDROOT
BRANCH   1   2
ATOM      2  N   LIG    1       25.495 -25.360   5.213  0.00  0.00    -0.275 N 
ATOM      3  H   LIG    1       25.749 -24.873   4.356  0.00  0.00    +0.258 HD
BRANCH   2   6
ATOM      4  N   LIG    1       27.073 -27.086   5.100  0.00  0.00    -0.130 NA
ATOM      5  H   LIG    1       27.069 -28.100   5.105  0.00  0.00    +0.306 HD
ATOM      6  C   LIG    1       25.862 -26.655   5.209  0.00  0.00    +0.376 C 
BRANCH   6   7
ATOM      7  N   LIG    1       24.800 -27.461   5.375  0.00  0.00    -0.289 N 
ATOM      8  H   LIG    1       24.349 -27.292   6.273  0.00  0.00    +0.255 HD
ATOM      9  H   LIG    1       24.998 -28.447   5.260  0.00  0.00    +0.255 HD
ENDBRANCH   6   7
ENDBRANCH   2   6
ENDBRANCH   1   2
BRANCH   1  10
ATOM     10  C   LIG    1       24.355 -23.704   6.665  0.00  0.00    +0.121 C 
BRANCH  10  11
ATOM     11  N   LIG    1       24.307 -22.312   6.127  0.00  0.00    -0.299 NA
ATOM     12  C   LIG    1       23.274 -21.530   6.822  0.00  0.00    +0.084 C 
ATOM     13  C   LIG    1       22.883 -20.163   6.248  0.00  0.00    +0.015 C 
ATOM     14  C   LIG    1       22.777 -20.103   4.723  0.00  0.00    +0.001 C 
ATOM     15  C   LIG    1       23.997 -19.498   4.026  0.00  0.00    +0.000 C 
ATOM     16  C   LIG    1       25.299 -20.295   4.121  0.00  0.00    +0.001 C 
ATOM     17  C   LIG    1       25.880 -20.375   5.533  0.00  0.00    +0.015 C 
ATOM     18  C   LIG    1       25.656 -21.724   6.226  0.00  0.00    +0.084 C 
ENDBRANCH  10  11
ENDBRANCH   1  10
TORSDOF 5
ENDMDL
MODEL 8
REMARK VINA RESULT:      -6.3      4.738      6.808
REMARK  Name = *****
REMARK                            x       y       z     vdW  Elec       q    Type
REMARK                         _______ _______ _______ _____ _____    ______ ____
ROOT
ATOM      1  C   LIG    1       28.436 -20.542   7.645  0.00  0.00    +0.211 C 
ENDROOT
BRANCH   1   2
ATOM      2  N   LIG    1       29.663 -20.547   6.862  0.00  0.00    -0.275 N 
ATOM      3  H   LIG    1       29.592 -21.107   6.015  0.00  0.00    +0.258 HD
BRANCH   2   6
ATOM      4  N   LIG    1       30.040 -18.404   5.999  0.00  0.00    -0.130 NA
ATOM      5  H   LIG    1       30.781 -17.713   6.020  0.00  0.00    +0.306 HD
ATOM      6  C   LIG    1       30.395 -19.430   6.694  0.00  0.00    +0.376 C 
BRANCH   6   7
ATOM      7  N   LIG    1       31.547 -19.497   7.382  0.00  0.00    -0.289 N 
ATOM      8  H   LIG    1       31.855 -20.463   7.487  0.00  0.00    +0.255 HD
ATOM      9  H   LIG    1       31.528 -19.034   8.282  0.00  0.00    +0.255 HD
ENDBRANCH   6   7
ENDBRANCH   2   6
ENDBRANCH   1   2
BRANCH   1  10
ATOM     10  C   LIG    1       27.484 -21.683   7.203  0.00  0.00    +0.121 C 
BRANCH  10  11
ATOM     11  N   LIG    1       26.155 -21.296   6.643  0.00  0.00    -0.299 NA
ATOM     12  C   LIG    1       25.284 -20.775   7.707  0.00  0.00    +0.084 C 
ATOM     13  C   LIG    1       23.796 -20.568   7.396  0.00  0.00    +0.015 C 
ATOM     14  C   LIG    1       23.148 -21.668   6.555  0.00  0.00    +0.001 C 
ATOM     15  C   LIG    1       23.000 -21.326   5.071  0.00  0.00    +0.000 C 
ATOM     16  C   LIG    1       24.297 -21.181   4.274  0.00  0.00    +0.001 C 
ATOM     17  C   LIG    1       25.150 -19.980   4.684  0.00  0.00    +0.015 C 
ATOM     18  C   LIG    1       26.370 -20.343   5.539  0.00  0.00    +0.084 C 
ENDBRANCH  10  11
ENDBRANCH   1  10
TORSDOF 5
ENDMDL
MODEL 9
REMARK VINA RESULT:      -6.3      1.023      2.101
REMARK  Name = *****
REMARK                            x       y       z     vdW  Elec       q    Type
REMARK                         _______ _______ _______ _____ _____    ______ ____
ROOT
ATOM      1  C   LIG    1       24.756 -26.100   5.730  0.00  0.00    +0.211 C 
ENDROOT
BRANCH   1   2
ATOM      2  N   LIG    1       23.969 -27.246   5.301  0.00  0.00    -0.275 N 
ATOM      3  H   LIG    1       23.718 -27.209   4.316  0.00  0.00    +0.258 HD
BRANCH   2   6
ATOM      4  N   LIG    1       23.492 -29.522   5.567  0.00  0.00    -0.130 NA
ATOM      5  H   LIG    1       23.930 -30.330   5.997  0.00  0.00    +0.306 HD
ATOM      6  C   LIG    1       24.251 -28.492   5.725  0.00  0.00    +0.376 C 
BRANCH   6   7
ATOM      7  N   LIG    1       25.459 -28.543   6.311  0.00  0.00    -0.289 N 
ATOM      8  H   LIG    1       26.204 -28.520   5.616  0.00  0.00    +0.255 HD
ATOM      9  H   LIG    1       25.589 -29.325   6.941  0.00  0.00    +0.255 HD
ENDBRANCH   6   7
ENDBRANCH   2   6
ENDBRANCH   1   2
BRANCH   1  10
ATOM     10  C   LIG    1       23.869 -25.041   6.431  0.00  0.00    +0.121 C 
BRANCH  10  11
ATOM     11  N   LIG    1       24.473 -23.702   6.702  0.00  0.00    -0.299 NA
ATOM     12  C   LIG    1       25.936 -23.812   6.800  0.00  0.00    +0.084 C 
ATOM     13  C   LIG    1       26.725 -22.608   7.331  0.00  0.00    +0.015 C 
ATOM     14  C   LIG    1       26.082 -21.878   8.512  0.00  0.00    +0.001 C 
ATOM     15  C   LIG    1       25.334 -20.598   8.134  0.00  0.00    +0.000 C 
ATOM     16  C   LIG    1       24.079 -20.771   7.278  0.00  0.00    +0.001 C 
ATOM     17  C   LIG    1       24.354 -21.282   5.863  0.00  0.00    +0.015 C 
ATOM     18  C   LIG    1       24.023 -22.764   5.658  0.00  0.00    +0.084 C 
ENDBRANCH  10  11
ENDBRANCH   1  10
TORSDOF 5
ENDMDL
