MODEL 1
REMARK VINA RESULT:       3.9      0.000      0.000
REMARK  Name = *****
REMARK                            x       y       z     vdW  Elec       q    Type
REMARK                         _______ _______ _______ _____ _____    ______ ____
ROOT
ATOM      1  C   LIG    1       25.571 -13.076   4.061  0.00  0.00    +0.132 C 
ATOM      2  C   LIG    1       24.995 -14.482   4.506  0.00  0.00    +0.011 C 
ATOM      3  C   LIG    1       25.336 -14.683   6.019  0.00  0.00    +0.015 C 
ATOM      4  C   LIG    1       25.857 -15.493   3.696  0.00  0.00    +0.002 C 
ATOM      5  C   LIG    1       25.196 -16.649   2.923  0.00  0.00    -0.003 C 
ATOM      6  C   LIG    1       23.767 -17.060   3.424  0.00  0.00    -0.000 C 
ATOM      7  C   LIG    1       22.957 -15.750   3.439  0.00  0.00    +0.005 C 
ATOM      8  C   LIG    1       23.787 -17.995   4.700  0.00  0.00    +0.019 C 
ATOM      9  C   LIG    1       24.899 -19.006   4.477  0.00  0.00    -0.063 C 
ATOM     10  C   LIG    1       24.683 -20.292   4.154  0.00  0.00    +0.045 C 
ATOM     11  C   LIG    1       24.077 -20.752   5.428  0.00  0.00    +0.156 C 
ATOM     12  O   LIG    1       24.702 -21.480   6.189  0.00  0.00    -0.293 OA
ATOM     13  C   LIG    1       22.684 -20.228   5.670  0.00  0.00    +0.079 C 
ATOM     14  C   LIG    1       26.267 -18.469   4.286  0.00  0.00    +0.031 C 
ATOM     15  C   LIG    1       22.482 -18.775   5.111  0.00  0.00    +0.016 C 
ATOM     16  C   LIG    1       26.206 -17.817   2.914  0.00  0.00    +0.008 C 
ATOM     17  C   LIG    1       26.795 -14.681   2.785  0.00  0.00    +0.008 C 
ATOM     18  C   LIG    1       23.455 -14.676   4.407  0.00  0.00    +0.011 C 
ATOM     19  C   LIG    1       26.995 -13.404   3.570  0.00  0.00    +0.049 C 
ENDROOT
BRANCH   1  21
ATOM     20  C   LIG    1       24.234 -11.852   2.085  0.00  0.00    +0.007 C 
ATOM     21  C   LIG    1       24.798 -12.428   2.994  0.00  0.00    -0.070 C 
ENDBRANCH   1  21
BRANCH   1  22
ATOM     22  O   LIG    1       25.624 -12.161   5.150  0.00  0.00    -0.376 OA
ATOM     23  H   LIG    1       26.437 -12.329   5.653  0.00  0.00    +0.211 HD
ENDBRANCH   1  22
TORSDOF 2
ENDMDL
