MODEL 1
REMARK VINA RESULT:      -5.9      0.000      0.000
REMARK  Name = *****
REMARK                            x       y       z     vdW  Elec       q    Type
REMARK                         _______ _______ _______ _____ _____    ______ ____
ROOT
ATOM      1  C   LIG    1       27.062 -19.469   5.052  0.00  0.00    +0.080 A 
ATOM      2  C   LIG    1       27.807 -18.307   4.720  0.00  0.00    +0.045 A 
ATOM      3  C   LIG    1       29.011 -18.079   5.406  0.00  0.00    +0.024 A 
ATOM      4  C   LIG    1       29.474 -18.963   6.384  0.00  0.00    +0.002 A 
ATOM      5  C   LIG    1       28.744 -20.104   6.695  0.00  0.00    +0.001 A 
ATOM      6  C   LIG    1       27.543 -20.356   6.034  0.00  0.00    +0.017 A 
ENDROOT
BRANCH   1   8
ATOM      7  O   LIG    1       25.132 -19.148   3.653  0.00  0.00    -0.245 OA
ATOM      8  C   LIG    1       25.782 -19.870   4.389  0.00  0.00    +0.341 C 
BRANCH   8   9
ATOM      9  O   LIG    1       25.431 -21.130   4.761  0.00  0.00    -0.459 OA
BRANCH   9  10
ATOM     10  C   LIG    1       24.036 -21.439   4.711  0.00  0.00    +0.260 C 
BRANCH  10  11
ATOM     11  C   LIG    1       23.351 -20.992   6.005  0.00  0.00    +0.201 C 
BRANCH  11  12
ATOM     12  O   LIG    1       22.589 -19.795   5.839  0.00  0.00    -0.374 OA
BRANCH  12  13
ATOM     13  C   LIG    1       21.809 -19.804   4.637  0.00  0.00    +0.188 C 
BRANCH  13  14
ATOM     14  C   LIG    1       21.711 -18.378   4.109  0.00  0.00    +0.184 C 
BRANCH  14  15
ATOM     15  O   LIG    1       22.855 -17.627   4.502  0.00  0.00    -0.393 OA
ATOM     16  H   LIG    1       23.070 -17.935   5.404  0.00  0.00    +0.209 HD
ENDBRANCH  14  15
ENDBRANCH  13  14
ENDBRANCH  12  13
ENDBRANCH  11  12
ENDBRANCH  10  11
ENDBRANCH   9  10
ENDBRANCH   8   9
ENDBRANCH   1   8
BRANCH   2  17
ATOM     17  N   LIG    1       27.379 -17.381   3.741  0.00  0.00    -0.314 N 
ATOM     18  H   LIG    1       27.617 -17.679   2.794  0.00  0.00    +0.152 HD
BRANCH  17  19
ATOM     19  C   LIG    1       27.026 -16.021   3.792  0.00  0.00    +0.032 A 
ATOM     20  C   LIG    1       25.717 -15.552   3.642  0.00  0.00    +0.035 A 
ATOM     21  C   LIG    1       25.427 -14.171   3.687  0.00  0.00    +0.057 A 
ATOM     22  C   LIG    1       26.475 -13.256   3.863  0.00  0.00    +0.012 A 
ATOM     23  C   LIG    1       27.783 -13.709   4.001  0.00  0.00    +0.002 A 
ATOM     24  C   LIG    1       28.051 -15.079   3.966  0.00  0.00    +0.023 A 
BRANCH  21  25
ATOM     25  C   LIG    1       24.004 -13.693   3.551  0.00  0.00    +0.417 C 
ATOM     26  F   LIG    1       23.734 -12.620   4.343  0.00  0.00    -0.166 F 
ATOM     27  F   LIG    1       23.097 -14.650   3.894  0.00  0.00    -0.166 F 
ATOM     28  F   LIG    1       23.676 -13.310   2.284  0.00  0.00    -0.166 F 
ENDBRANCH  21  25
ENDBRANCH  17  19
ENDBRANCH   2  17
TORSDOF 11
ENDMDL
MODEL 2
REMARK VINA RESULT:      -5.3      2.210      4.720
REMARK  Name = *****
REMARK                            x       y       z     vdW  Elec       q    Type
REMARK                         _______ _______ _______ _____ _____    ______ ____
ROOT
ATOM      1  C   LIG    1       24.114 -19.633   4.560  0.00  0.00    +0.080 A 
ATOM      2  C   LIG    1       23.749 -18.412   3.936  0.00  0.00    +0.045 A 
ATOM      3  C   LIG    1       22.380 -18.145   3.763  0.00  0.00    +0.024 A 
ATOM      4  C   LIG    1       21.401 -19.045   4.190  0.00  0.00    +0.002 A 
ATOM      5  C   LIG    1       21.767 -20.234   4.810  0.00  0.00    +0.001 A 
ATOM      6  C   LIG    1       23.118 -20.528   4.994  0.00  0.00    +0.017 A 
ENDROOT
BRANCH   1   8
ATOM      7  O   LIG    1       26.395 -20.157   4.004  0.00  0.00    -0.245 OA
ATOM      8  C   LIG    1       25.524 -20.045   4.848  0.00  0.00    +0.341 C 
BRANCH   8   9
ATOM      9  O   LIG    1       25.675 -20.318   6.172  0.00  0.00    -0.459 OA
BRANCH   9  10
ATOM     10  C   LIG    1       26.284 -21.571   6.494  0.00  0.00    +0.260 C 
BRANCH  10  11
ATOM     11  C   LIG    1       27.734 -21.355   6.934  0.00  0.00    +0.201 C 
BRANCH  11  12
ATOM     12  O   LIG    1       28.071 -19.971   7.056  0.00  0.00    -0.374 OA
BRANCH  12  13
ATOM     13  C   LIG    1       29.426 -19.702   6.680  0.00  0.00    +0.188 C 
BRANCH  13  14
ATOM     14  C   LIG    1       29.475 -18.359   5.962  0.00  0.00    +0.184 C 
BRANCH  14  15
ATOM     15  O   LIG    1       28.647 -18.388   4.804  0.00  0.00    -0.393 OA
ATOM     16  H   LIG    1       28.095 -19.188   4.901  0.00  0.00    +0.209 HD
ENDBRANCH  14  15
ENDBRANCH  13  14
ENDBRANCH  12  13
ENDBRANCH  11  12
ENDBRANCH  10  11
ENDBRANCH   9  10
ENDBRANCH   8   9
ENDBRANCH   1   8
BRANCH   2  17
ATOM     17  N   LIG    1       24.702 -17.471   3.485  0.00  0.00    -0.314 N 
ATOM     18  H   LIG    1       25.544 -17.915   3.117  0.00  0.00    +0.152 HD
BRANCH  17  19
ATOM     19  C   LIG    1       24.899 -16.102   3.740  0.00  0.00    +0.032 A 
ATOM     20  C   LIG    1       26.152 -15.481   3.734  0.00  0.00    +0.035 A 
ATOM     21  C   LIG    1       26.286 -14.104   4.014  0.00  0.00    +0.057 A 
ATOM     22  C   LIG    1       25.143 -13.354   4.326  0.00  0.00    +0.012 A 
ATOM     23  C   LIG    1       23.893 -13.962   4.349  0.00  0.00    +0.002 A 
ATOM     24  C   LIG    1       23.776 -15.322   4.057  0.00  0.00    +0.023 A 
BRANCH  21  25
ATOM     25  C   LIG    1       27.646 -13.455   3.972  0.00  0.00    +0.417 C 
ATOM     26  F   LIG    1       27.776 -12.581   2.937  0.00  0.00    -0.166 F 
ATOM     27  F   LIG    1       28.653 -14.360   3.828  0.00  0.00    -0.166 F 
ATOM     28  F   LIG    1       27.945 -12.744   5.097  0.00  0.00    -0.166 F 
ENDBRANCH  21  25
ENDBRANCH  17  19
ENDBRANCH   2  17
TORSDOF 11
ENDMDL
MODEL 3
REMARK VINA RESULT:      -5.2      1.767      2.276
REMARK  Name = *****
REMARK                            x       y       z     vdW  Elec       q    Type
REMARK                         _______ _______ _______ _____ _____    ______ ____
ROOT
ATOM      1  C   LIG    1       27.072 -19.780   5.229  0.00  0.00    +0.080 A 
ATOM      2  C   LIG    1       27.779 -18.623   4.809  0.00  0.00    +0.045 A 
ATOM      3  C   LIG    1       28.981 -18.312   5.468  0.00  0.00    +0.024 A 
ATOM      4  C   LIG    1       29.475 -19.109   6.502  0.00  0.00    +0.002 A 
ATOM      5  C   LIG    1       28.781 -20.247   6.900  0.00  0.00    +0.001 A 
ATOM      6  C   LIG    1       27.584 -20.580   6.268  0.00  0.00    +0.017 A 
ENDROOT
BRANCH   1   8
ATOM      7  O   LIG    1       25.324 -19.819   3.577  0.00  0.00    -0.245 OA
ATOM      8  C   LIG    1       25.800 -20.264   4.606  0.00  0.00    +0.341 C 
BRANCH   8   9
ATOM      9  O   LIG    1       25.237 -21.235   5.375  0.00  0.00    -0.459 OA
BRANCH   9  10
ATOM     10  C   LIG    1       23.850 -21.496   5.147  0.00  0.00    +0.260 C 
BRANCH  10  11
ATOM     11  C   LIG    1       22.999 -20.768   6.189  0.00  0.00    +0.201 C 
BRANCH  11  12
ATOM     12  O   LIG    1       22.623 -19.454   5.772  0.00  0.00    -0.374 OA
BRANCH  12  13
ATOM     13  C   LIG    1       22.080 -19.434   4.446  0.00  0.00    +0.188 C 
BRANCH  13  14
ATOM     14  C   LIG    1       21.991 -17.987   3.978  0.00  0.00    +0.184 C 
BRANCH  14  15
ATOM     15  O   LIG    1       22.146 -17.101   5.082  0.00  0.00    -0.393 OA
ATOM     16  H   LIG    1       23.029 -16.700   4.971  0.00  0.00    +0.209 HD
ENDBRANCH  14  15
ENDBRANCH  13  14
ENDBRANCH  12  13
ENDBRANCH  11  12
ENDBRANCH  10  11
ENDBRANCH   9  10
ENDBRANCH   8   9
ENDBRANCH   1   8
BRANCH   2  17
ATOM     17  N   LIG    1       27.319 -17.783   3.769  0.00  0.00    -0.314 N 
ATOM     18  H   LIG    1       27.599 -18.118   2.847  0.00  0.00    +0.152 HD
BRANCH  17  19
ATOM     19  C   LIG    1       26.879 -16.448   3.735  0.00  0.00    +0.032 A 
ATOM     20  C   LIG    1       27.732 -15.345   3.847  0.00  0.00    +0.035 A 
ATOM     21  C   LIG    1       27.228 -14.027   3.822  0.00  0.00    +0.057 A 
ATOM     22  C   LIG    1       25.846 -13.824   3.704  0.00  0.00    +0.012 A 
ATOM     23  C   LIG    1       24.985 -14.913   3.605  0.00  0.00    +0.002 A 
ATOM     24  C   LIG    1       25.501 -16.209   3.620  0.00  0.00    +0.023 A 
BRANCH  21  25
ATOM     25  C   LIG    1       28.173 -12.856   3.915  0.00  0.00    +0.417 C 
ATOM     26  F   LIG    1       29.474 -13.218   3.746  0.00  0.00    -0.166 F 
ATOM     27  F   LIG    1       28.112 -12.231   5.124  0.00  0.00    -0.166 F 
ATOM     28  F   LIG    1       27.934 -11.888   2.985  0.00  0.00    -0.166 F 
ENDBRANCH  21  25
ENDBRANCH  17  19
ENDBRANCH   2  17
TORSDOF 11
ENDMDL
MODEL 4
REMARK VINA RESULT:      -4.5      1.555      4.255
REMARK  Name = *****
REMARK                            x       y       z     vdW  Elec       q    Type
REMARK                         _______ _______ _______ _____ _____    ______ ____
ROOT
ATOM      1  C   LIG    1       24.049 -19.595   4.449  0.00  0.00    +0.080 A 
ATOM      2  C   LIG    1       24.078 -18.282   3.910  0.00  0.00    +0.045 A 
ATOM      3  C   LIG    1       22.856 -17.604   3.764  0.00  0.00    +0.024 A 
ATOM      4  C   LIG    1       21.646 -18.192   4.136  0.00  0.00    +0.002 A 
ATOM      5  C   LIG    1       21.627 -19.474   4.674  0.00  0.00    +0.001 A 
ATOM      6  C   LIG    1       22.823 -20.173   4.829  0.00  0.00    +0.017 A 
ENDROOT
BRANCH   1   8
ATOM      7  O   LIG    1       25.818 -21.114   3.855  0.00  0.00    -0.245 OA
ATOM      8  C   LIG    1       25.264 -20.432   4.700  0.00  0.00    +0.341 C 
BRANCH   8   9
ATOM      9  O   LIG    1       25.630 -20.355   6.008  0.00  0.00    -0.459 OA
BRANCH   9  10
ATOM     10  C   LIG    1       26.199 -21.537   6.576  0.00  0.00    +0.260 C 
BRANCH  10  11
ATOM     11  C   LIG    1       27.693 -21.331   6.834  0.00  0.00    +0.201 C 
BRANCH  11  12
ATOM     12  O   LIG    1       28.029 -19.959   7.054  0.00  0.00    -0.374 OA
BRANCH  12  13
ATOM     13  C   LIG    1       29.404 -19.679   6.767  0.00  0.00    +0.188 C 
BRANCH  13  14
ATOM     14  C   LIG    1       29.469 -18.514   5.787  0.00  0.00    +0.184 C 
BRANCH  14  15
ATOM     15  O   LIG    1       28.492 -18.676   4.764  0.00  0.00    -0.393 OA
ATOM     16  H   LIG    1       28.488 -17.832   4.273  0.00  0.00    +0.209 HD
ENDBRANCH  14  15
ENDBRANCH  13  14
ENDBRANCH  12  13
ENDBRANCH  11  12
ENDBRANCH  10  11
ENDBRANCH   9  10
ENDBRANCH   8   9
ENDBRANCH   1   8
BRANCH   2  17
ATOM     17  N   LIG    1       25.277 -17.646   3.516  0.00  0.00    -0.314 N 
ATOM     18  H   LIG    1       26.058 -18.299   3.443  0.00  0.00    +0.152 HD
BRANCH  17  19
ATOM     19  C   LIG    1       25.709 -16.308   3.540  0.00  0.00    +0.032 A 
ATOM     20  C   LIG    1       24.858 -15.213   3.368  0.00  0.00    +0.035 A 
ATOM     21  C   LIG    1       25.354 -13.891   3.388  0.00  0.00    +0.057 A 
ATOM     22  C   LIG    1       26.729 -13.679   3.561  0.00  0.00    +0.012 A 
ATOM     23  C   LIG    1       27.590 -14.760   3.720  0.00  0.00    +0.002 A 
ATOM     24  C   LIG    1       27.080 -16.060   3.710  0.00  0.00    +0.023 A 
BRANCH  21  25
ATOM     25  C   LIG    1       24.409 -12.727   3.228  0.00  0.00    +0.417 C 
ATOM     26  F   LIG    1       23.247 -13.078   2.613  0.00  0.00    -0.166 F 
ATOM     27  F   LIG    1       24.942 -11.721   2.480  0.00  0.00    -0.166 F 
ATOM     28  F   LIG    1       24.044 -12.156   4.411  0.00  0.00    -0.166 F 
ENDBRANCH  21  25
ENDBRANCH  17  19
ENDBRANCH   2  17
TORSDOF 11
ENDMDL
MODEL 5
REMARK VINA RESULT:      -3.6      3.137      5.734
REMARK  Name = *****
REMARK                            x       y       z     vdW  Elec       q    Type
REMARK                         _______ _______ _______ _____ _____    ______ ____
ROOT
ATOM      1  C   LIG    1       25.303 -14.592   4.021  0.00  0.00    +0.080 A 
ATOM      2  C   LIG    1       26.379 -15.440   3.650  0.00  0.00    +0.045 A 
ATOM      3  C   LIG    1       27.687 -14.958   3.822  0.00  0.00    +0.024 A 
ATOM      4  C   LIG    1       27.934 -13.686   4.344  0.00  0.00    +0.002 A 
ATOM      5  C   LIG    1       26.875 -12.866   4.715  0.00  0.00    +0.001 A 
ATOM      6  C   LIG    1       25.565 -13.315   4.554  0.00  0.00    +0.017 A 
ENDROOT
BRANCH   1   8
ATOM      7  O   LIG    1       22.965 -14.212   3.601  0.00  0.00    -0.245 OA
ATOM      8  C   LIG    1       23.858 -14.972   3.933  0.00  0.00    +0.341 C 
BRANCH   8   9
ATOM      9  O   LIG    1       23.685 -16.265   4.317  0.00  0.00    -0.459 OA
BRANCH   9  10
ATOM     10  C   LIG    1       22.389 -16.610   4.813  0.00  0.00    +0.260 C 
BRANCH  10  11
ATOM     11  C   LIG    1       22.030 -18.038   4.400  0.00  0.00    +0.201 C 
BRANCH  11  12
ATOM     12  O   LIG    1       22.318 -18.996   5.421  0.00  0.00    -0.374 OA
BRANCH  12  13
ATOM     13  C   LIG    1       22.162 -20.345   4.967  0.00  0.00    +0.188 C 
BRANCH  13  14
ATOM     14  C   LIG    1       22.724 -21.284   6.027  0.00  0.00    +0.184 C 
BRANCH  14  15
ATOM     15  O   LIG    1       23.444 -20.545   7.009  0.00  0.00    -0.393 OA
ATOM     16  H   LIG    1       24.295 -20.317   6.589  0.00  0.00    +0.209 HD
ENDBRANCH  14  15
ENDBRANCH  13  14
ENDBRANCH  12  13
ENDBRANCH  11  12
ENDBRANCH  10  11
ENDBRANCH   9  10
ENDBRANCH   8   9
ENDBRANCH   1   8
BRANCH   2  17
ATOM     17  N   LIG    1       26.180 -16.734   3.115  0.00  0.00    -0.314 N 
ATOM     18  H   LIG    1       25.699 -16.713   2.215  0.00  0.00    +0.152 HD
BRANCH  17  19
ATOM     19  C   LIG    1       26.180 -18.020   3.683  0.00  0.00    +0.032 A 
ATOM     20  C   LIG    1       27.109 -18.449   4.636  0.00  0.00    +0.035 A 
ATOM     21  C   LIG    1       27.066 -19.760   5.158  0.00  0.00    +0.057 A 
ATOM     22  C   LIG    1       26.088 -20.651   4.695  0.00  0.00    +0.012 A 
ATOM     23  C   LIG    1       25.166 -20.241   3.737  0.00  0.00    +0.002 A 
ATOM     24  C   LIG    1       25.215 -18.937   3.240  0.00  0.00    +0.023 A 
BRANCH  21  25
ATOM     25  C   LIG    1       28.062 -20.188   6.207  0.00  0.00    +0.417 C 
ATOM     26  F   LIG    1       27.557 -21.122   7.057  0.00  0.00    -0.166 F 
ATOM     27  F   LIG    1       28.474 -19.151   6.988  0.00  0.00    -0.166 F 
ATOM     28  F   LIG    1       29.198 -20.735   5.687  0.00  0.00    -0.166 F 
ENDBRANCH  21  25
ENDBRANCH  17  19
ENDBRANCH   2  17
TORSDOF 11
ENDMDL
MODEL 6
REMARK VINA RESULT:      -3.3      2.914      6.252
REMARK  Name = *****
REMARK                            x       y       z     vdW  Elec       q    Type
REMARK                         _______ _______ _______ _____ _____    ______ ____
ROOT
ATOM      1  C   LIG    1       26.268 -14.397   4.166  0.00  0.00    +0.080 A 
ATOM      2  C   LIG    1       25.193 -15.193   3.693  0.00  0.00    +0.045 A 
ATOM      3  C   LIG    1       23.886 -14.716   3.888  0.00  0.00    +0.024 A 
ATOM      4  C   LIG    1       23.640 -13.497   4.524  0.00  0.00    +0.002 A 
ATOM      5  C   LIG    1       24.700 -12.718   4.974  0.00  0.00    +0.001 A 
ATOM      6  C   LIG    1       26.008 -13.166   4.798  0.00  0.00    +0.017 A 
ENDROOT
BRANCH   1   8
ATOM      7  O   LIG    1       28.605 -13.934   3.830  0.00  0.00    -0.245 OA
ATOM      8  C   LIG    1       27.714 -14.748   4.003  0.00  0.00    +0.341 C 
BRANCH   8   9
ATOM      9  O   LIG    1       27.879 -16.097   4.032  0.00  0.00    -0.459 OA
BRANCH   9  10
ATOM     10  C   LIG    1       28.646 -16.617   5.121  0.00  0.00    +0.260 C 
BRANCH  10  11
ATOM     11  C   LIG    1       28.693 -18.145   5.049  0.00  0.00    +0.201 C 
BRANCH  11  12
ATOM     12  O   LIG    1       29.474 -18.721   6.098  0.00  0.00    -0.374 OA
BRANCH  12  13
ATOM     13  C   LIG    1       29.087 -20.069   6.393  0.00  0.00    +0.188 C 
BRANCH  13  14
ATOM     14  C   LIG    1       27.568 -20.126   6.503  0.00  0.00    +0.184 C 
BRANCH  14  15
ATOM     15  O   LIG    1       27.121 -21.477   6.458  0.00  0.00    -0.393 OA
ATOM     16  H   LIG    1       27.208 -21.748   5.524  0.00  0.00    +0.209 HD
ENDBRANCH  14  15
ENDBRANCH  13  14
ENDBRANCH  12  13
ENDBRANCH  11  12
ENDBRANCH  10  11
ENDBRANCH   9  10
ENDBRANCH   8   9
ENDBRANCH   1   8
BRANCH   2  17
ATOM     17  N   LIG    1       25.390 -16.435   3.047  0.00  0.00    -0.314 N 
ATOM     18  H   LIG    1       25.588 -16.328   2.052  0.00  0.00    +0.152 HD
BRANCH  17  19
ATOM     19  C   LIG    1       25.040 -17.757   3.376  0.00  0.00    +0.032 A 
ATOM     20  C   LIG    1       23.829 -18.114   3.978  0.00  0.00    +0.035 A 
ATOM     21  C   LIG    1       23.542 -19.458   4.299  0.00  0.00    +0.057 A 
ATOM     22  C   LIG    1       24.498 -20.446   4.028  0.00  0.00    +0.012 A 
ATOM     23  C   LIG    1       25.712 -20.103   3.441  0.00  0.00    +0.002 A 
ATOM     24  C   LIG    1       25.975 -18.771   3.119  0.00  0.00    +0.023 A 
BRANCH  21  25
ATOM     25  C   LIG    1       22.217 -19.819   4.922  0.00  0.00    +0.417 C 
ATOM     26  F   LIG    1       21.188 -19.078   4.427  0.00  0.00    -0.166 F 
ATOM     27  F   LIG    1       22.204 -19.627   6.270  0.00  0.00    -0.166 F 
ATOM     28  F   LIG    1       21.861 -21.121   4.729  0.00  0.00    -0.166 F 
ENDBRANCH  21  25
ENDBRANCH  17  19
ENDBRANCH   2  17
TORSDOF 11
ENDMDL
