MODEL 1
REMARK VINA RESULT:       0.1      0.000      0.000
REMARK  Name = *****
REMARK                            x       y       z     vdW  Elec       q    Type
REMARK                         _______ _______ _______ _____ _____    ______ ____
ROOT
ATOM      1  C   LIG    1       24.232 -20.016   6.606  0.00  0.00    +0.042 C 
ATOM      2  C   LIG    1       23.474 -19.883   5.271  0.00  0.00    +0.069 C 
ATOM      3  C   LIG    1       22.880 -18.681   4.387  0.00  0.00    +0.002 C 
ATOM      4  C   LIG    1       23.999 -18.370   3.382  0.00  0.00    +0.004 C 
ATOM      5  C   LIG    1       25.041 -17.395   4.025  0.00  0.00    +0.034 C 
ATOM      6  C   LIG    1       24.385 -15.976   4.062  0.00  0.00    +0.149 C 
ATOM      7  C   LIG    1       23.078 -16.025   4.891  0.00  0.00    +0.153 C 
ATOM      8  F   LIG    1       23.916 -15.800   2.741  0.00  0.00    -0.238 F 
ATOM      9  C   LIG    1       25.346 -14.694   4.231  0.00  0.00    +0.026 C 
ATOM     10  C   LIG    1       26.491 -14.992   3.246  0.00  0.00    -0.057 C 
ATOM     11  C   LIG    1       27.107 -13.962   2.639  0.00  0.00    +0.046 C 
ATOM     12  C   LIG    1       28.046 -13.498   3.708  0.00  0.00    +0.156 C 
ATOM     13  C   LIG    1       27.398 -13.280   5.095  0.00  0.00    +0.080 C 
ATOM     14  O   LIG    1       29.221 -13.224   3.445  0.00  0.00    -0.293 OA
ATOM     15  C   LIG    1       27.248 -16.266   3.568  0.00  0.00    +0.032 C 
ATOM     16  C   LIG    1       24.487 -13.410   3.995  0.00  0.00    +0.019 C 
ATOM     17  C   LIG    1       26.212 -14.284   5.487  0.00  0.00    +0.022 C 
ATOM     18  C   LIG    1       26.351 -17.447   3.223  0.00  0.00    +0.011 C 
ATOM     19  C   LIG    1       24.463 -19.763   2.971  0.00  0.00    +0.007 C 
ATOM     20  C   LIG    1       21.669 -19.335   3.568  0.00  0.00    +0.014 C 
ATOM     21  C   LIG    1       22.284 -17.370   4.952  0.00  0.00    +0.044 C 
ATOM     22  C   LIG    1       24.494 -20.541   4.274  0.00  0.00    +0.035 C 
ENDROOT
BRANCH   2  23
ATOM     23  O   LIG    1       22.319 -20.685   5.594  0.00  0.00    -0.388 OA
ATOM     24  H   LIG    1       21.558 -20.060   5.669  0.00  0.00    +0.210 HD
ENDBRANCH   2  23
BRANCH   7  25
ATOM     25  O   LIG    1       22.153 -15.068   4.299  0.00  0.00    -0.389 OA
ATOM     26  H   LIG    1       21.327 -15.575   4.111  0.00  0.00    +0.210 HD
ENDBRANCH   7  25
TORSDOF 2
ENDMDL
MODEL 2
REMARK VINA RESULT:       2.2      1.609      6.356
REMARK  Name = *****
REMARK                            x       y       z     vdW  Elec       q    Type
REMARK                         _______ _______ _______ _____ _____    ______ ____
ROOT
ATOM      1  C   LIG    1       25.900 -13.660   6.530  0.00  0.00    +0.042 C 
ATOM      2  C   LIG    1       25.941 -13.564   4.993  0.00  0.00    +0.069 C 
ATOM      3  C   LIG    1       26.226 -14.570   3.773  0.00  0.00    +0.002 C 
ATOM      4  C   LIG    1       24.830 -15.055   3.358  0.00  0.00    +0.004 C 
ATOM      5  C   LIG    1       24.391 -16.257   4.258  0.00  0.00    +0.034 C 
ATOM      6  C   LIG    1       25.202 -17.509   3.788  0.00  0.00    +0.149 C 
ATOM      7  C   LIG    1       26.719 -17.230   3.926  0.00  0.00    +0.153 C 
ATOM      8  F   LIG    1       25.006 -17.515   2.389  0.00  0.00    -0.238 F 
ATOM      9  C   LIG    1       24.656 -18.970   4.193  0.00  0.00    +0.026 C 
ATOM     10  C   LIG    1       23.150 -18.867   3.893  0.00  0.00    -0.057 C 
ATOM     11  C   LIG    1       22.493 -19.970   3.494  0.00  0.00    +0.046 C 
ATOM     12  C   LIG    1       22.264 -20.674   4.796  0.00  0.00    +0.156 C 
ATOM     13  C   LIG    1       23.519 -20.822   5.686  0.00  0.00    +0.080 C 
ATOM     14  O   LIG    1       21.166 -21.173   5.062  0.00  0.00    -0.293 OA
ATOM     15  C   LIG    1       22.446 -17.797   4.705  0.00  0.00    +0.032 C 
ATOM     16  C   LIG    1       25.492 -20.033   3.409  0.00  0.00    +0.019 C 
ATOM     17  C   LIG    1       24.571 -19.614   5.632  0.00  0.00    +0.022 C 
ATOM     18  C   LIG    1       22.868 -16.439   4.161  0.00  0.00    +0.011 C 
ATOM     19  C   LIG    1       24.010 -13.771   3.408  0.00  0.00    +0.007 C 
ATOM     20  C   LIG    1       26.779 -13.636   2.594  0.00  0.00    +0.014 C 
ATOM     21  C   LIG    1       27.220 -15.754   3.809  0.00  0.00    +0.044 C 
ATOM     22  C   LIG    1       24.480 -13.084   4.678  0.00  0.00    +0.035 C 
ENDROOT
BRANCH   2  23
ATOM     23  O   LIG    1       26.966 -12.556   4.863  0.00  0.00    -0.388 OA
ATOM     24  H   LIG    1       26.541 -11.696   5.096  0.00  0.00    +0.210 HD
ENDBRANCH   2  23
BRANCH   7  25
ATOM     25  O   LIG    1       27.390 -17.942   2.847  0.00  0.00    -0.389 OA
ATOM     26  H   LIG    1       27.441 -18.884   3.138  0.00  0.00    +0.210 HD
ENDBRANCH   7  25
TORSDOF 2
ENDMDL
