MODEL 1
REMARK VINA RESULT:      -6.8      0.000      0.000
REMARK  Name = *****
REMARK                            x       y       z     vdW  Elec       q    Type
REMARK                         _______ _______ _______ _____ _____    ______ ____
ROOT
ATOM      1 CL   LIG    1       30.763 -21.777   9.120  0.00  0.00    -0.080 Cl
ATOM      2  C   LIG    1       29.653 -21.104   7.974  0.00  0.00    +0.084 A 
ATOM      3  C   LIG    1       29.987 -19.972   7.206  0.00  0.00    +0.178 A 
ATOM      4  C   LIG    1       29.023 -19.489   6.301  0.00  0.00    +0.084 A 
ATOM      5 CL   LIG    1       29.324 -18.090   5.325  0.00  0.00    -0.080 Cl
ATOM      6  C   LIG    1       27.784 -20.124   6.155  0.00  0.00    +0.023 A 
ATOM      7  C   LIG    1       27.479 -21.250   6.917  0.00  0.00    +0.003 A 
ATOM      8  C   LIG    1       28.414 -21.739   7.828  0.00  0.00    +0.023 A 
ENDROOT
BRANCH   3   9
ATOM      9  N   LIG    1       31.224 -19.313   7.366  0.00  0.00    -0.074 NA
ATOM     10  C   LIG    1       31.308 -18.387   8.256  0.00  0.00    +0.370 C 
ATOM     11  N   LIG    1       30.361 -17.876   9.110  0.00  0.00    -0.235 N 
ATOM     12  H   LIG    1       29.401 -17.883   8.796  0.00  0.00    +0.244 HD
ATOM     13  C   LIG    1       30.857 -16.714   9.832  0.00  0.00    +0.219 C 
ATOM     14  C   LIG    1       32.377 -16.895   9.710  0.00  0.00    +0.219 C 
ATOM     15  N   LIG    1       32.469 -17.712   8.518  0.00  0.00    -0.235 N 
ATOM     16  H   LIG    1       33.327 -18.184   8.269  0.00  0.00    +0.244 HD
ENDBRANCH   3   9
TORSDOF 1
ENDMDL
MODEL 2
REMARK VINA RESULT:      -6.8      0.138      2.444
REMARK  Name = *****
REMARK                            x       y       z     vdW  Elec       q    Type
REMARK                         _______ _______ _______ _____ _____    ______ ____
ROOT
ATOM      1 CL   LIG    1       29.198 -18.046   5.255  0.00  0.00    -0.080 Cl
ATOM      2  C   LIG    1       28.893 -19.448   6.225  0.00  0.00    +0.084 A 
ATOM      3  C   LIG    1       29.841 -19.921   7.152  0.00  0.00    +0.178 A 
ATOM      4  C   LIG    1       29.512 -21.069   7.896  0.00  0.00    +0.084 A 
ATOM      5 CL   LIG    1       30.616 -21.745   9.047  0.00  0.00    -0.080 Cl
ATOM      6  C   LIG    1       28.276 -21.708   7.735  0.00  0.00    +0.023 A 
ATOM      7  C   LIG    1       27.348 -21.216   6.819  0.00  0.00    +0.003 A 
ATOM      8  C   LIG    1       27.657 -20.087   6.064  0.00  0.00    +0.023 A 
ENDROOT
BRANCH   3   9
ATOM      9  N   LIG    1       31.098 -19.296   7.302  0.00  0.00    -0.074 NA
ATOM     10  C   LIG    1       31.218 -18.383   8.201  0.00  0.00    +0.370 C 
ATOM     11  N   LIG    1       30.297 -17.858   9.075  0.00  0.00    -0.235 N 
ATOM     12  H   LIG    1       29.333 -17.836   8.774  0.00  0.00    +0.244 HD
ATOM     13  C   LIG    1       30.834 -16.718   9.803  0.00  0.00    +0.219 C 
ATOM     14  C   LIG    1       32.347 -16.937   9.656  0.00  0.00    +0.219 C 
ATOM     15  N   LIG    1       32.400 -17.741   8.454  0.00  0.00    -0.235 N 
ATOM     16  H   LIG    1       33.242 -18.233   8.186  0.00  0.00    +0.244 HD
ENDBRANCH   3   9
TORSDOF 1
ENDMDL
MODEL 3
REMARK VINA RESULT:      -6.7      6.215      7.888
REMARK  Name = *****
REMARK                            x       y       z     vdW  Elec       q    Type
REMARK                         _______ _______ _______ _____ _____    ______ ____
ROOT
ATOM      1 CL   LIG    1       26.766 -20.352   5.515  0.00  0.00    -0.080 Cl
ATOM      2  C   LIG    1       25.051 -20.553   5.391  0.00  0.00    +0.084 A 
ATOM      3  C   LIG    1       24.388 -21.616   6.033  0.00  0.00    +0.178 A 
ATOM      4  C   LIG    1       22.992 -21.706   5.876  0.00  0.00    +0.084 A 
ATOM      5 CL   LIG    1       22.083 -22.988   6.605  0.00  0.00    -0.080 Cl
ATOM      6  C   LIG    1       22.285 -20.760   5.124  0.00  0.00    +0.023 A 
ATOM      7  C   LIG    1       22.960 -19.709   4.507  0.00  0.00    +0.003 A 
ATOM      8  C   LIG    1       24.344 -19.606   4.639  0.00  0.00    +0.023 A 
ENDROOT
BRANCH   3   9
ATOM      9  N   LIG    1       25.098 -22.587   6.771  0.00  0.00    -0.074 NA
ATOM     10  C   LIG    1       25.300 -23.735   6.227  0.00  0.00    +0.370 C 
ATOM     11  N   LIG    1       24.913 -24.229   5.004  0.00  0.00    -0.235 N 
ATOM     12  H   LIG    1       24.051 -23.876   4.613  0.00  0.00    +0.244 HD
ATOM     13  C   LIG    1       25.218 -25.645   4.873  0.00  0.00    +0.219 C 
ATOM     14  C   LIG    1       26.302 -25.833   5.945  0.00  0.00    +0.219 C 
ATOM     15  N   LIG    1       26.007 -24.734   6.840  0.00  0.00    -0.235 N 
ATOM     16  H   LIG    1       26.663 -24.444   7.552  0.00  0.00    +0.244 HD
ENDBRANCH   3   9
TORSDOF 1
ENDMDL
MODEL 4
REMARK VINA RESULT:      -6.7      6.191      7.786
REMARK  Name = *****
REMARK                            x       y       z     vdW  Elec       q    Type
REMARK                         _______ _______ _______ _____ _____    ______ ____
ROOT
ATOM      1 CL   LIG    1       22.066 -22.917   6.534  0.00  0.00    -0.080 Cl
ATOM      2  C   LIG    1       23.017 -21.659   5.819  0.00  0.00    +0.084 A 
ATOM      3  C   LIG    1       24.416 -21.618   5.975  0.00  0.00    +0.178 A 
ATOM      4  C   LIG    1       25.111 -20.558   5.364  0.00  0.00    +0.084 A 
ATOM      5 CL   LIG    1       26.830 -20.402   5.512  0.00  0.00    -0.080 Cl
ATOM      6  C   LIG    1       24.438 -19.589   4.610  0.00  0.00    +0.023 A 
ATOM      7  C   LIG    1       23.054 -19.656   4.459  0.00  0.00    +0.003 A 
ATOM      8  C   LIG    1       22.344 -20.691   5.065  0.00  0.00    +0.023 A 
ENDROOT
BRANCH   3   9
ATOM      9  N   LIG    1       25.098 -22.578   6.754  0.00  0.00    -0.074 NA
ATOM     10  C   LIG    1       25.307 -23.738   6.240  0.00  0.00    +0.370 C 
ATOM     11  N   LIG    1       24.952 -24.256   5.018  0.00  0.00    -0.235 N 
ATOM     12  H   LIG    1       24.104 -23.906   4.595  0.00  0.00    +0.244 HD
ATOM     13  C   LIG    1       25.250 -25.677   4.926  0.00  0.00    +0.219 C 
ATOM     14  C   LIG    1       26.302 -25.848   6.032  0.00  0.00    +0.219 C 
ATOM     15  N   LIG    1       25.990 -24.728   6.894  0.00  0.00    -0.235 N 
ATOM     16  H   LIG    1       26.627 -24.427   7.618  0.00  0.00    +0.244 HD
ENDBRANCH   3   9
TORSDOF 1
ENDMDL
MODEL 5
REMARK VINA RESULT:      -6.5      5.372      7.489
REMARK  Name = *****
REMARK                            x       y       z     vdW  Elec       q    Type
REMARK                         _______ _______ _______ _____ _____    ______ ____
ROOT
ATOM      1 CL   LIG    1       26.511 -22.118   8.455  0.00  0.00    -0.080 Cl
ATOM      2  C   LIG    1       26.326 -21.279   6.951  0.00  0.00    +0.084 A 
ATOM      3  C   LIG    1       25.218 -21.511   6.113  0.00  0.00    +0.178 A 
ATOM      4  C   LIG    1       25.149 -20.789   4.907  0.00  0.00    +0.084 A 
ATOM      5 CL   LIG    1       23.841 -21.014   3.794  0.00  0.00    -0.080 Cl
ATOM      6  C   LIG    1       26.137 -19.858   4.562  0.00  0.00    +0.023 A 
ATOM      7  C   LIG    1       27.218 -19.636   5.412  0.00  0.00    +0.003 A 
ATOM      8  C   LIG    1       27.313 -20.348   6.606  0.00  0.00    +0.023 A 
ENDROOT
BRANCH   3   9
ATOM      9  N   LIG    1       24.233 -22.466   6.443  0.00  0.00    -0.074 NA
ATOM     10  C   LIG    1       24.413 -23.681   6.060  0.00  0.00    +0.370 C 
ATOM     11  N   LIG    1       25.429 -24.250   5.331  0.00  0.00    -0.235 N 
ATOM     12  H   LIG    1       25.897 -23.666   4.653  0.00  0.00    +0.244 HD
ATOM     13  C   LIG    1       25.136 -25.633   4.986  0.00  0.00    +0.219 C 
ATOM     14  C   LIG    1       24.070 -25.997   6.030  0.00  0.00    +0.219 C 
ATOM     15  N   LIG    1       23.539 -24.691   6.359  0.00  0.00    -0.235 N 
ATOM     16  H   LIG    1       22.953 -24.549   7.170  0.00  0.00    +0.244 HD
ENDBRANCH   3   9
TORSDOF 1
ENDMDL
MODEL 6
REMARK VINA RESULT:      -6.5      5.333      7.798
REMARK  Name = *****
REMARK                            x       y       z     vdW  Elec       q    Type
REMARK                         _______ _______ _______ _____ _____    ______ ____
ROOT
ATOM      1 CL   LIG    1       23.937 -20.882   3.776  0.00  0.00    -0.080 Cl
ATOM      2  C   LIG    1       25.231 -20.709   4.914  0.00  0.00    +0.084 A 
ATOM      3  C   LIG    1       25.286 -21.486   6.087  0.00  0.00    +0.178 A 
ATOM      4  C   LIG    1       26.371 -21.278   6.959  0.00  0.00    +0.084 A 
ATOM      5 CL   LIG    1       26.522 -22.166   8.439  0.00  0.00    -0.080 Cl
ATOM      6  C   LIG    1       27.371 -20.344   6.661  0.00  0.00    +0.023 A 
ATOM      7  C   LIG    1       27.302 -19.594   5.489  0.00  0.00    +0.003 A 
ATOM      8  C   LIG    1       26.231 -19.775   4.616  0.00  0.00    +0.023 A 
ENDROOT
BRANCH   3   9
ATOM      9  N   LIG    1       24.269 -22.411   6.405  0.00  0.00    -0.074 NA
ATOM     10  C   LIG    1       24.421 -23.633   6.033  0.00  0.00    +0.370 C 
ATOM     11  N   LIG    1       25.434 -24.235   5.325  0.00  0.00    -0.235 N 
ATOM     12  H   LIG    1       25.930 -23.668   4.652  0.00  0.00    +0.244 HD
ATOM     13  C   LIG    1       25.109 -25.612   4.983  0.00  0.00    +0.219 C 
ATOM     14  C   LIG    1       24.014 -25.939   6.009  0.00  0.00    +0.219 C 
ATOM     15  N   LIG    1       23.514 -24.617   6.321  0.00  0.00    -0.235 N 
ATOM     16  H   LIG    1       22.919 -24.454   7.121  0.00  0.00    +0.244 HD
ENDBRANCH   3   9
TORSDOF 1
ENDMDL
MODEL 7
REMARK VINA RESULT:      -6.3      6.076      7.561
REMARK  Name = *****
REMARK                            x       y       z     vdW  Elec       q    Type
REMARK                         _______ _______ _______ _____ _____    ______ ____
ROOT
ATOM      1 CL   LIG    1       26.386 -20.313   7.386  0.00  0.00    -0.080 Cl
ATOM      2  C   LIG    1       25.629 -21.853   7.151  0.00  0.00    +0.084 A 
ATOM      3  C   LIG    1       24.246 -21.963   6.913  0.00  0.00    +0.178 A 
ATOM      4  C   LIG    1       23.713 -23.253   6.737  0.00  0.00    +0.084 A 
ATOM      5 CL   LIG    1       22.022 -23.501   6.460  0.00  0.00    -0.080 Cl
ATOM      6  C   LIG    1       24.534 -24.388   6.780  0.00  0.00    +0.023 A 
ATOM      7  C   LIG    1       25.902 -24.255   7.006  0.00  0.00    +0.003 A 
ATOM      8  C   LIG    1       26.450 -22.987   7.194  0.00  0.00    +0.023 A 
ENDROOT
BRANCH   3   9
ATOM      9  N   LIG    1       23.410 -20.826   6.893  0.00  0.00    -0.074 NA
ATOM     10  C   LIG    1       23.287 -20.182   5.787  0.00  0.00    +0.370 C 
ATOM     11  N   LIG    1       23.866 -20.390   4.558  0.00  0.00    -0.235 N 
ATOM     12  H   LIG    1       24.786 -20.808   4.544  0.00  0.00    +0.244 HD
ATOM     13  C   LIG    1       23.569 -19.309   3.631  0.00  0.00    +0.219 C 
ATOM     14  C   LIG    1       22.319 -18.685   4.268  0.00  0.00    +0.219 C 
ATOM     15  N   LIG    1       22.474 -19.089   5.649  0.00  0.00    -0.235 N 
ATOM     16  H   LIG    1       21.712 -19.013   6.308  0.00  0.00    +0.244 HD
ENDBRANCH   3   9
TORSDOF 1
ENDMDL
MODEL 8
REMARK VINA RESULT:      -6.0      4.020      5.405
REMARK  Name = *****
REMARK                            x       y       z     vdW  Elec       q    Type
REMARK                         _______ _______ _______ _____ _____    ______ ____
ROOT
ATOM      1 CL   LIG    1       26.232 -25.185   6.105  0.00  0.00    -0.080 Cl
ATOM      2  C   LIG    1       25.159 -23.942   6.654  0.00  0.00    +0.084 A 
ATOM      3  C   LIG    1       25.639 -22.798   7.320  0.00  0.00    +0.178 A 
ATOM      4  C   LIG    1       24.697 -21.839   7.736  0.00  0.00    +0.084 A 
ATOM      5 CL   LIG    1       25.180 -20.407   8.581  0.00  0.00    -0.080 Cl
ATOM      6  C   LIG    1       23.330 -22.008   7.480  0.00  0.00    +0.023 A 
ATOM      7  C   LIG    1       22.878 -23.143   6.810  0.00  0.00    +0.003 A 
ATOM      8  C   LIG    1       23.792 -24.111   6.398  0.00  0.00    +0.023 A 
ENDROOT
BRANCH   3   9
ATOM      9  N   LIG    1       27.012 -22.634   7.602  0.00  0.00    -0.074 NA
ATOM     10  C   LIG    1       27.639 -21.669   7.027  0.00  0.00    +0.370 C 
ATOM     11  N   LIG    1       27.205 -20.731   6.122  0.00  0.00    -0.235 N 
ATOM     12  H   LIG    1       26.461 -21.002   5.494  0.00  0.00    +0.244 HD
ATOM     13  C   LIG    1       28.304 -19.929   5.606  0.00  0.00    +0.219 C 
ATOM     14  C   LIG    1       29.376 -20.135   6.687  0.00  0.00    +0.219 C 
ATOM     15  N   LIG    1       28.961 -21.399   7.259  0.00  0.00    -0.235 N 
ATOM     16  H   LIG    1       29.336 -21.728   8.137  0.00  0.00    +0.244 HD
ENDBRANCH   3   9
TORSDOF 1
ENDMDL
MODEL 9
REMARK VINA RESULT:      -6.0      4.020      5.597
REMARK  Name = *****
REMARK                            x       y       z     vdW  Elec       q    Type
REMARK                         _______ _______ _______ _____ _____    ______ ____
ROOT
ATOM      1 CL   LIG    1       25.175 -20.375   8.541  0.00  0.00    -0.080 Cl
ATOM      2  C   LIG    1       24.692 -21.826   7.728  0.00  0.00    +0.084 A 
ATOM      3  C   LIG    1       25.630 -22.811   7.365  0.00  0.00    +0.178 A 
ATOM      4  C   LIG    1       25.151 -23.957   6.703  0.00  0.00    +0.084 A 
ATOM      5 CL   LIG    1       26.223 -25.219   6.195  0.00  0.00    -0.080 Cl
ATOM      6  C   LIG    1       23.787 -24.121   6.433  0.00  0.00    +0.023 A 
ATOM      7  C   LIG    1       22.875 -23.138   6.810  0.00  0.00    +0.003 A 
ATOM      8  C   LIG    1       23.328 -21.989   7.457  0.00  0.00    +0.023 A 
ENDROOT
BRANCH   3   9
ATOM      9  N   LIG    1       27.009 -22.641   7.614  0.00  0.00    -0.074 NA
ATOM     10  C   LIG    1       27.615 -21.668   7.030  0.00  0.00    +0.370 C 
ATOM     11  N   LIG    1       27.152 -20.726   6.144  0.00  0.00    -0.235 N 
ATOM     12  H   LIG    1       26.393 -20.996   5.534  0.00  0.00    +0.244 HD
ATOM     13  C   LIG    1       28.233 -19.913   5.606  0.00  0.00    +0.219 C 
ATOM     14  C   LIG    1       29.333 -20.122   6.657  0.00  0.00    +0.219 C 
ATOM     15  N   LIG    1       28.941 -21.392   7.229  0.00  0.00    -0.235 N 
ATOM     16  H   LIG    1       29.341 -21.726   8.095  0.00  0.00    +0.244 HD
ENDBRANCH   3   9
TORSDOF 1
ENDMDL
