MODEL 1
REMARK VINA RESULT:      -8.7      0.000      0.000
REMARK  Name = *****
REMARK                            x       y       z     vdW  Elec       q    Type
REMARK                         _______ _______ _______ _____ _____    ______ ____
ROOT
ATOM      1  C   LIG    1       24.389 -21.421   6.191  0.00  0.00    +0.158 C 
ATOM      2  N   LIG    1       24.398 -21.356   7.622  0.00  0.00    -0.293 N 
ATOM      3  H   LIG    1       23.664 -21.826   8.134  0.00  0.00    +0.151 HD
ATOM      4  C   LIG    1       25.565 -21.276   8.327  0.00  0.00    +0.247 C 
ATOM      5  O   LIG    1       25.636 -21.612   9.502  0.00  0.00    -0.270 OA
ATOM      6  C   LIG    1       26.726 -20.735   7.596  0.00  0.00    +0.059 A 
ATOM      7  C   LIG    1       26.549 -20.340   6.266  0.00  0.00    +0.042 A 
ATOM      8  C   LIG    1       27.622 -19.717   5.617  0.00  0.00    +0.045 A 
ATOM      9  C   LIG    1       28.862 -19.558   6.257  0.00  0.00    +0.069 A 
ATOM     10  C   LIG    1       29.024 -20.001   7.572  0.00  0.00    +0.124 A 
ATOM     11 CL   LIG    1       30.118 -18.793   5.352  0.00  0.00    -0.082 Cl
ATOM     12  C   LIG    1       27.950 -20.588   8.247  0.00  0.00    +0.045 A 
ATOM     13  N   LIG    1       25.291 -20.415   5.654  0.00  0.00    -0.325 N 
ATOM     14  H   LIG    1       25.344 -20.430   4.639  0.00  0.00    +0.148 HD
ENDROOT
BRANCH  10  15
ATOM     15  S   LIG    1       30.566 -19.811   8.400  0.00  0.00    +0.057 S 
ATOM     16  O   LIG    1       30.455 -18.721   9.342  0.00  0.00    -0.153 OA
ATOM     17  O   LIG    1       31.628 -19.931   7.434  0.00  0.00    -0.153 OA
BRANCH  15  18
ATOM     18  N   LIG    1       30.696 -21.192   9.354  0.00  0.00    -0.203 NA
ATOM     19  H   LIG    1       30.233 -21.979   8.897  0.00  0.00    +0.144 HD
ATOM     20  H   LIG    1       30.356 -20.999  10.297  0.00  0.00    +0.144 HD
ENDBRANCH  15  18
ENDBRANCH  10  15
BRANCH   1  22
ATOM     21  C   LIG    1       22.644 -19.772   5.290  0.00  0.00    +0.007 C 
ATOM     22  C   LIG    1       22.976 -21.222   5.631  0.00  0.00    +0.038 C 
ENDBRANCH   1  22
TORSDOF 3
ENDMDL
MODEL 2
REMARK VINA RESULT:      -8.5      1.792      1.975
REMARK  Name = *****
REMARK                            x       y       z     vdW  Elec       q    Type
REMARK                         _______ _______ _______ _____ _____    ______ ____
ROOT
ATOM      1  C   LIG    1       26.005 -20.718   4.913  0.00  0.00    +0.158 C 
ATOM      2  N   LIG    1       25.564 -21.324   6.135  0.00  0.00    -0.293 N 
ATOM      3  H   LIG    1       24.697 -21.843   6.133  0.00  0.00    +0.151 HD
ATOM      4  C   LIG    1       26.451 -21.778   7.068  0.00  0.00    +0.247 C 
ATOM      5  O   LIG    1       26.141 -22.625   7.897  0.00  0.00    -0.270 OA
ATOM      6  C   LIG    1       27.794 -21.168   7.036  0.00  0.00    +0.059 A 
ATOM      7  C   LIG    1       28.053 -20.181   6.080  0.00  0.00    +0.042 A 
ATOM      8  C   LIG    1       29.287 -19.523   6.132  0.00  0.00    +0.045 A 
ATOM      9  C   LIG    1       30.265 -19.891   7.071  0.00  0.00    +0.069 A 
ATOM     10  C   LIG    1       29.996 -20.911   7.986  0.00  0.00    +0.124 A 
ATOM     11 CL   LIG    1       31.757 -19.023   7.029  0.00  0.00    -0.082 Cl
ATOM     12  C   LIG    1       28.753 -21.550   7.973  0.00  0.00    +0.045 A 
ATOM     13  N   LIG    1       27.050 -19.749   5.202  0.00  0.00    -0.325 N 
ATOM     14  H   LIG    1       27.420 -19.303   4.366  0.00  0.00    +0.148 HD
ENDROOT
BRANCH  10  15
ATOM     15  S   LIG    1       31.202 -21.391   9.176  0.00  0.00    +0.057 S 
ATOM     16  O   LIG    1       30.540 -22.099  10.248  0.00  0.00    -0.153 OA
ATOM     17  O   LIG    1       32.111 -20.293   9.383  0.00  0.00    -0.153 OA
BRANCH  15  18
ATOM     18  N   LIG    1       32.117 -22.563   8.387  0.00  0.00    -0.203 NA
ATOM     19  H   LIG    1       31.539 -23.062   7.710  0.00  0.00    +0.144 HD
ATOM     20  H   LIG    1       32.576 -23.168   9.070  0.00  0.00    +0.144 HD
ENDBRANCH  15  18
ENDBRANCH  10  15
BRANCH   1  22
ATOM     21  C   LIG    1       23.508 -20.136   4.901  0.00  0.00    +0.007 C 
ATOM     22  C   LIG    1       24.845 -20.045   4.172  0.00  0.00    +0.038 C 
ENDBRANCH   1  22
TORSDOF 3
ENDMDL
MODEL 3
REMARK VINA RESULT:      -8.2      2.512      3.167
REMARK  Name = *****
REMARK                            x       y       z     vdW  Elec       q    Type
REMARK                         _______ _______ _______ _____ _____    ______ ____
ROOT
ATOM      1  C   LIG    1       24.263 -22.324   6.796  0.00  0.00    +0.158 C 
ATOM      2  N   LIG    1       24.385 -21.632   5.547  0.00  0.00    -0.293 N 
ATOM      3  H   LIG    1       23.550 -21.464   5.002  0.00  0.00    +0.151 HD
ATOM      4  C   LIG    1       25.347 -20.685   5.346  0.00  0.00    +0.247 C 
ATOM      5  O   LIG    1       25.237 -19.824   4.482  0.00  0.00    -0.270 OA
ATOM      6  C   LIG    1       26.537 -20.777   6.212  0.00  0.00    +0.059 A 
ATOM      7  C   LIG    1       26.598 -21.813   7.149  0.00  0.00    +0.042 A 
ATOM      8  C   LIG    1       27.780 -21.967   7.883  0.00  0.00    +0.045 A 
ATOM      9  C   LIG    1       28.847 -21.065   7.736  0.00  0.00    +0.069 A 
ATOM     10  C   LIG    1       28.741 -20.012   6.824  0.00  0.00    +0.124 A 
ATOM     11 CL   LIG    1       30.247 -21.342   8.709  0.00  0.00    -0.082 Cl
ATOM     12  C   LIG    1       27.584 -19.870   6.054  0.00  0.00    +0.045 A 
ATOM     13  N   LIG    1       25.576 -22.768   7.235  0.00  0.00    -0.325 N 
ATOM     14  H   LIG    1       25.554 -23.247   8.132  0.00  0.00    +0.148 HD
ENDROOT
BRANCH  10  15
ATOM     15  S   LIG    1       30.063 -18.868   6.617  0.00  0.00    +0.057 S 
ATOM     16  O   LIG    1       31.266 -19.602   6.297  0.00  0.00    -0.153 OA
ATOM     17  O   LIG    1       29.985 -17.875   7.658  0.00  0.00    -0.153 OA
BRANCH  15  18
ATOM     18  N   LIG    1       29.675 -18.040   5.204  0.00  0.00    -0.203 NA
ATOM     19  H   LIG    1       30.044 -17.088   5.242  0.00  0.00    +0.144 HD
ATOM     20  H   LIG    1       28.669 -18.090   5.033  0.00  0.00    +0.144 HD
ENDBRANCH  15  18
ENDBRANCH  10  15
BRANCH   1  22
ATOM     21  C   LIG    1       24.006 -24.844   6.393  0.00  0.00    +0.007 C 
ATOM     22  C   LIG    1       23.308 -23.518   6.683  0.00  0.00    +0.038 C 
ENDBRANCH   1  22
TORSDOF 3
ENDMDL
MODEL 4
REMARK VINA RESULT:      -7.7      3.692      6.324
REMARK  Name = *****
REMARK                            x       y       z     vdW  Elec       q    Type
REMARK                         _______ _______ _______ _____ _____    ______ ____
ROOT
ATOM      1  C   LIG    1       29.962 -20.899   7.530  0.00  0.00    +0.158 C 
ATOM      2  N   LIG    1       29.833 -19.627   6.884  0.00  0.00    -0.293 N 
ATOM      3  H   LIG    1       30.672 -19.106   6.668  0.00  0.00    +0.151 HD
ATOM      4  C   LIG    1       28.811 -19.365   6.017  0.00  0.00    +0.247 C 
ATOM      5  O   LIG    1       28.888 -18.479   5.175  0.00  0.00    -0.270 OA
ATOM      6  C   LIG    1       27.601 -20.193   6.175  0.00  0.00    +0.059 A 
ATOM      7  C   LIG    1       27.584 -21.158   7.187  0.00  0.00    +0.042 A 
ATOM      8  C   LIG    1       26.391 -21.857   7.409  0.00  0.00    +0.045 A 
ATOM      9  C   LIG    1       25.266 -21.647   6.594  0.00  0.00    +0.069 A 
ATOM     10  C   LIG    1       25.326 -20.708   5.561  0.00  0.00    +0.124 A 
ATOM     11 CL   LIG    1       23.857 -22.579   6.948  0.00  0.00    -0.082 Cl
ATOM     12  C   LIG    1       26.496 -19.973   5.354  0.00  0.00    +0.045 A 
ATOM     13  N   LIG    1       28.670 -21.307   8.059  0.00  0.00    -0.325 N 
ATOM     14  H   LIG    1       28.696 -22.218   8.510  0.00  0.00    +0.148 HD
ENDROOT
BRANCH  10  15
ATOM     15  S   LIG    1       23.931 -20.422   4.526  0.00  0.00    +0.057 S 
ATOM     16  O   LIG    1       22.827 -19.979   5.347  0.00  0.00    -0.153 OA
ATOM     17  O   LIG    1       23.837 -21.493   3.568  0.00  0.00    -0.153 OA
BRANCH  15  18
ATOM     18  N   LIG    1       24.360 -19.070   3.618  0.00  0.00    -0.203 NA
ATOM     19  H   LIG    1       23.602 -18.821   2.981  0.00  0.00    +0.144 HD
ATOM     20  H   LIG    1       25.257 -19.229   3.158  0.00  0.00    +0.144 HD
ENDBRANCH  15  18
ENDBRANCH  10  15
BRANCH   1  22
ATOM     21  C   LIG    1       31.138 -22.161   9.428  0.00  0.00    +0.007 C 
ATOM     22  C   LIG    1       31.006 -20.854   8.651  0.00  0.00    +0.038 C 
ENDBRANCH   1  22
TORSDOF 3
ENDMDL
MODEL 5
REMARK VINA RESULT:      -7.3      2.559      3.072
REMARK  Name = *****
REMARK                            x       y       z     vdW  Elec       q    Type
REMARK                         _______ _______ _______ _____ _____    ______ ____
ROOT
ATOM      1  C   LIG    1       25.779 -20.569   5.459  0.00  0.00    +0.158 C 
ATOM      2  N   LIG    1       26.620 -19.712   4.678  0.00  0.00    -0.293 N 
ATOM      3  H   LIG    1       26.198 -19.147   3.954  0.00  0.00    +0.151 HD
ATOM      4  C   LIG    1       27.746 -19.145   5.202  0.00  0.00    +0.247 C 
ATOM      5  O   LIG    1       28.246 -18.136   4.721  0.00  0.00    -0.270 OA
ATOM      6  C   LIG    1       28.338 -19.836   6.363  0.00  0.00    +0.059 A 
ATOM      7  C   LIG    1       27.723 -21.003   6.826  0.00  0.00    +0.042 A 
ATOM      8  C   LIG    1       28.357 -21.719   7.849  0.00  0.00    +0.045 A 
ATOM      9  C   LIG    1       29.537 -21.241   8.444  0.00  0.00    +0.069 A 
ATOM     10  C   LIG    1       30.105 -20.048   7.991  0.00  0.00    +0.124 A 
ATOM     11 CL   LIG    1       30.218 -22.196   9.711  0.00  0.00    -0.082 Cl
ATOM     12  C   LIG    1       29.507 -19.344   6.942  0.00  0.00    +0.045 A 
ATOM     13  N   LIG    1       26.599 -21.531   6.178  0.00  0.00    -0.325 N 
ATOM     14  H   LIG    1       26.055 -22.153   6.770  0.00  0.00    +0.148 HD
ENDROOT
BRANCH  10  15
ATOM     15  S   LIG    1       31.585 -19.427   8.715  0.00  0.00    +0.057 S 
ATOM     16  O   LIG    1       32.116 -18.386   7.866  0.00  0.00    -0.153 OA
ATOM     17  O   LIG    1       32.363 -20.537   9.203  0.00  0.00    -0.153 OA
BRANCH  15  18
ATOM     18  N   LIG    1       31.063 -18.627  10.102  0.00  0.00    -0.203 NA
ATOM     19  H   LIG    1       31.306 -19.169  10.932  0.00  0.00    +0.144 HD
ATOM     20  H   LIG    1       30.069 -18.405  10.024  0.00  0.00    +0.144 HD
ENDBRANCH  15  18
ENDBRANCH  10  15
BRANCH   1  22
ATOM     21  C   LIG    1       23.302 -21.029   4.975  0.00  0.00    +0.007 C 
ATOM     22  C   LIG    1       24.753 -21.296   4.582  0.00  0.00    +0.038 C 
ENDBRANCH   1  22
TORSDOF 3
ENDMDL
MODEL 6
REMARK VINA RESULT:      -7.2      5.403      6.464
REMARK  Name = *****
REMARK                            x       y       z     vdW  Elec       q    Type
REMARK                         _______ _______ _______ _____ _____    ______ ____
ROOT
ATOM      1  C   LIG    1       24.682 -27.893   5.281  0.00  0.00    +0.158 C 
ATOM      2  N   LIG    1       26.049 -27.794   5.699  0.00  0.00    -0.293 N 
ATOM      3  H   LIG    1       26.697 -28.514   5.411  0.00  0.00    +0.151 HD
ATOM      4  C   LIG    1       26.652 -26.583   5.889  0.00  0.00    +0.247 C 
ATOM      5  O   LIG    1       27.869 -26.455   5.851  0.00  0.00    -0.270 OA
ATOM      6  C   LIG    1       25.753 -25.449   6.167  0.00  0.00    +0.059 A 
ATOM      7  C   LIG    1       24.377 -25.690   6.228  0.00  0.00    +0.042 A 
ATOM      8  C   LIG    1       23.540 -24.636   6.611  0.00  0.00    +0.045 A 
ATOM      9  C   LIG    1       24.058 -23.353   6.857  0.00  0.00    +0.069 A 
ATOM     10  C   LIG    1       25.432 -23.129   6.746  0.00  0.00    +0.124 A 
ATOM     11 CL   LIG    1       22.929 -22.125   7.304  0.00  0.00    -0.082 Cl
ATOM     12  C   LIG    1       26.285 -24.182   6.405  0.00  0.00    +0.045 A 
ATOM     13  N   LIG    1       23.866 -26.986   6.072  0.00  0.00    -0.325 N 
ATOM     14  H   LIG    1       22.885 -26.996   5.802  0.00  0.00    +0.148 HD
ENDROOT
BRANCH  10  15
ATOM     15  S   LIG    1       26.109 -21.533   7.052  0.00  0.00    +0.057 S 
ATOM     16  O   LIG    1       25.989 -21.241   8.463  0.00  0.00    -0.153 OA
ATOM     17  O   LIG    1       25.677 -20.638   6.009  0.00  0.00    -0.153 OA
BRANCH  15  18
ATOM     18  N   LIG    1       27.761 -21.728   6.793  0.00  0.00    -0.203 NA
ATOM     19  H   LIG    1       27.958 -22.683   6.489  0.00  0.00    +0.144 HD
ATOM     20  H   LIG    1       28.282 -21.439   7.623  0.00  0.00    +0.144 HD
ENDBRANCH  15  18
ENDBRANCH  10  15
BRANCH   1  22
ATOM     21  C   LIG    1       25.259 -30.376   5.563  0.00  0.00    +0.007 C 
ATOM     22  C   LIG    1       24.160 -29.328   5.411  0.00  0.00    +0.038 C 
ENDBRANCH   1  22
TORSDOF 3
ENDMDL
MODEL 7
REMARK VINA RESULT:      -7.0      3.310      5.926
REMARK  Name = *****
REMARK                            x       y       z     vdW  Elec       q    Type
REMARK                         _______ _______ _______ _____ _____    ______ ____
ROOT
ATOM      1  C   LIG    1       29.709 -19.463   7.287  0.00  0.00    +0.158 C 
ATOM      2  N   LIG    1       29.301 -20.659   7.961  0.00  0.00    -0.293 N 
ATOM      3  H   LIG    1       29.798 -20.939   8.796  0.00  0.00    +0.151 HD
ATOM      4  C   LIG    1       28.000 -21.075   7.954  0.00  0.00    +0.247 C 
ATOM      5  O   LIG    1       27.559 -21.830   8.812  0.00  0.00    -0.270 OA
ATOM      6  C   LIG    1       27.169 -20.582   6.841  0.00  0.00    +0.059 A 
ATOM      7  C   LIG    1       27.763 -19.753   5.884  0.00  0.00    +0.042 A 
ATOM      8  C   LIG    1       27.003 -19.388   4.767  0.00  0.00    +0.045 A 
ATOM      9  C   LIG    1       25.660 -19.783   4.644  0.00  0.00    +0.069 A 
ATOM     10  C   LIG    1       25.079 -20.575   5.637  0.00  0.00    +0.124 A 
ATOM     11 CL   LIG    1       24.815 -19.257   3.233  0.00  0.00    -0.082 Cl
ATOM     12  C   LIG    1       25.838 -20.982   6.738  0.00  0.00    +0.045 A 
ATOM     13  N   LIG    1       29.125 -19.432   5.956  0.00  0.00    -0.325 N 
ATOM     14  H   LIG    1       29.362 -18.590   5.438  0.00  0.00    +0.148 HD
ENDROOT
BRANCH  10  15
ATOM     15  S   LIG    1       23.399 -21.087   5.508  0.00  0.00    +0.057 S 
ATOM     16  O   LIG    1       22.552 -19.918   5.560  0.00  0.00    -0.153 OA
ATOM     17  O   LIG    1       23.206 -22.254   6.331  0.00  0.00    -0.153 OA
BRANCH  15  18
ATOM     18  N   LIG    1       23.260 -21.649   3.927  0.00  0.00    -0.203 NA
ATOM     19  H   LIG    1       22.283 -21.858   3.714  0.00  0.00    +0.144 HD
ATOM     20  H   LIG    1       23.896 -22.434   3.777  0.00  0.00    +0.144 HD
ENDBRANCH  15  18
ENDBRANCH  10  15
BRANCH   1  22
ATOM     21  C   LIG    1       31.860 -18.464   8.264  0.00  0.00    +0.007 C 
ATOM     22  C   LIG    1       31.236 -19.363   7.200  0.00  0.00    +0.038 C 
ENDBRANCH   1  22
TORSDOF 3
ENDMDL
MODEL 8
REMARK VINA RESULT:      -6.8      2.988      5.857
REMARK  Name = *****
REMARK                            x       y       z     vdW  Elec       q    Type
REMARK                         _______ _______ _______ _____ _____    ______ ____
ROOT
ATOM      1  C   LIG    1       30.628 -18.845   8.247  0.00  0.00    +0.158 C 
ATOM      2  N   LIG    1       30.934 -20.189   8.638  0.00  0.00    -0.293 N 
ATOM      3  H   LIG    1       31.670 -20.341   9.314  0.00  0.00    +0.151 HD
ATOM      4  C   LIG    1       29.974 -21.159   8.672  0.00  0.00    +0.247 C 
ATOM      5  O   LIG    1       30.099 -22.168   9.355  0.00  0.00    -0.270 OA
ATOM      6  C   LIG    1       28.793 -20.932   7.819  0.00  0.00    +0.059 A 
ATOM      7  C   LIG    1       28.747 -19.769   7.043  0.00  0.00    +0.042 A 
ATOM      8  C   LIG    1       27.683 -19.619   6.147  0.00  0.00    +0.045 A 
ATOM      9  C   LIG    1       26.652 -20.571   6.080  0.00  0.00    +0.069 A 
ATOM     10  C   LIG    1       26.700 -21.701   6.899  0.00  0.00    +0.124 A 
ATOM     11 CL   LIG    1       25.380 -20.270   4.951  0.00  0.00    -0.082 Cl
ATOM     12  C   LIG    1       27.778 -21.886   7.769  0.00  0.00    +0.045 A 
ATOM     13  N   LIG    1       29.816 -18.863   7.041  0.00  0.00    -0.325 N 
ATOM     14  H   LIG    1       29.547 -17.933   6.729  0.00  0.00    +0.148 HD
ENDROOT
BRANCH  10  15
ATOM     15  S   LIG    1       25.424 -22.913   6.833  0.00  0.00    +0.057 S 
ATOM     16  O   LIG    1       24.199 -22.322   7.321  0.00  0.00    -0.153 OA
ATOM     17  O   LIG    1       25.952 -24.168   7.305  0.00  0.00    -0.153 OA
BRANCH  15  18
ATOM     18  N   LIG    1       25.163 -23.148   5.187  0.00  0.00    -0.203 NA
ATOM     19  H   LIG    1       25.646 -23.991   4.872  0.00  0.00    +0.144 HD
ATOM     20  H   LIG    1       25.414 -22.305   4.668  0.00  0.00    +0.144 HD
ENDBRANCH  15  18
ENDBRANCH  10  15
BRANCH   1  22
ATOM     21  C   LIG    1       32.213 -17.035   9.137  0.00  0.00    +0.007 C 
ATOM     22  C   LIG    1       31.902 -18.025   8.018  0.00  0.00    +0.038 C 
ENDBRANCH   1  22
TORSDOF 3
ENDMDL
MODEL 9
REMARK VINA RESULT:      -6.3      8.684      9.917
REMARK  Name = *****
REMARK                            x       y       z     vdW  Elec       q    Type
REMARK                         _______ _______ _______ _____ _____    ______ ____
ROOT
ATOM      1  C   LIG    1       25.366 -26.947   5.546  0.00  0.00    +0.158 C 
ATOM      2  N   LIG    1       24.184 -27.753   5.465  0.00  0.00    -0.293 N 
ATOM      3  H   LIG    1       23.638 -27.729   4.615  0.00  0.00    +0.151 HD
ATOM      4  C   LIG    1       24.087 -28.946   6.123  0.00  0.00    +0.247 C 
ATOM      5  O   LIG    1       23.298 -29.815   5.773  0.00  0.00    -0.270 OA
ATOM      6  C   LIG    1       24.968 -29.114   7.293  0.00  0.00    +0.059 A 
ATOM      7  C   LIG    1       25.814 -28.057   7.645  0.00  0.00    +0.042 A 
ATOM      8  C   LIG    1       26.558 -28.176   8.825  0.00  0.00    +0.045 A 
ATOM      9  C   LIG    1       26.513 -29.350   9.595  0.00  0.00    +0.069 A 
ATOM     10  C   LIG    1       25.693 -30.408   9.195  0.00  0.00    +0.124 A 
ATOM     11 CL   LIG    1       27.489 -29.391  11.019  0.00  0.00    -0.082 Cl
ATOM     12  C   LIG    1       24.913 -30.288   8.042  0.00  0.00    +0.045 A 
ATOM     13  N   LIG    1       25.794 -26.851   6.933  0.00  0.00    -0.325 N 
ATOM     14  H   LIG    1       26.646 -26.307   7.048  0.00  0.00    +0.148 HD
ENDROOT
BRANCH  10  15
ATOM     15  S   LIG    1       25.615 -31.890  10.142  0.00  0.00    +0.057 S 
ATOM     16  O   LIG    1       25.063 -31.582  11.442  0.00  0.00    -0.153 OA
ATOM     17  O   LIG    1       26.835 -32.631   9.946  0.00  0.00    -0.153 OA
BRANCH  15  18
ATOM     18  N   LIG    1       24.428 -32.807   9.377  0.00  0.00    -0.203 NA
ATOM     19  H   LIG    1       24.548 -33.795   9.603  0.00  0.00    +0.144 HD
ATOM     20  H   LIG    1       24.422 -32.606   8.376  0.00  0.00    +0.144 HD
ENDBRANCH  15  18
ENDBRANCH  10  15
BRANCH   1  22
ATOM     21  C   LIG    1       25.131 -24.435   6.009  0.00  0.00    +0.007 C 
ATOM     22  C   LIG    1       25.129 -25.548   4.965  0.00  0.00    +0.038 C 
ENDBRANCH   1  22
TORSDOF 3
ENDMDL
