MODEL 1
REMARK VINA RESULT:      -6.6      0.000      0.000
REMARK  Name = *****
REMARK                            x       y       z     vdW  Elec       q    Type
REMARK                         _______ _______ _______ _____ _____    ______ ____
ROOT
ATOM      1  C   LIG    1       22.914 -23.303   6.799  0.00  0.00    +0.012 C 
ATOM      2  C   LIG    1       24.085 -22.546   6.143  0.00  0.00    -0.020 C 
ATOM      3  C   LIG    1       24.773 -21.496   7.059  0.00  0.00    +0.032 C 
ATOM      4  C   LIG    1       25.673 -20.800   6.034  0.00  0.00    +0.140 C 
ATOM      5  C   LIG    1       24.969 -20.779   4.692  0.00  0.00    +0.079 C 
ATOM      6  O   LIG    1       26.768 -20.308   6.256  0.00  0.00    -0.297 OA
ATOM      7  C   LIG    1       25.488 -21.997   8.291  0.00  0.00    +0.019 C 
ATOM      8  C   LIG    1       23.661 -20.455   7.324  0.00  0.00    +0.015 C 
ATOM      9  C   LIG    1       22.872 -20.446   5.995  0.00  0.00    +0.005 C 
ATOM     10  C   LIG    1       23.646 -21.464   5.118  0.00  0.00    +0.003 C 
ATOM     11  C   LIG    1       25.032 -23.621   5.570  0.00  0.00    +0.012 C 
ENDROOT
TORSDOF 0
ENDMDL
MODEL 2
REMARK VINA RESULT:      -6.3      1.540      2.933
REMARK  Name = *****
REMARK                            x       y       z     vdW  Elec       q    Type
REMARK                         _______ _______ _______ _____ _____    ______ ____
ROOT
ATOM      1  C   LIG    1       25.746 -23.556   6.584  0.00  0.00    +0.012 C 
ATOM      2  C   LIG    1       24.554 -22.587   6.716  0.00  0.00    -0.020 C 
ATOM      3  C   LIG    1       24.541 -21.430   5.679  0.00  0.00    +0.032 C 
ATOM      4  C   LIG    1       23.412 -20.570   6.255  0.00  0.00    +0.140 C 
ATOM      5  C   LIG    1       23.432 -20.677   7.767  0.00  0.00    +0.079 C 
ATOM      6  O   LIG    1       22.635 -19.881   5.614  0.00  0.00    -0.297 OA
ATOM      7  C   LIG    1       24.380 -21.791   4.222  0.00  0.00    +0.019 C 
ATOM      8  C   LIG    1       25.814 -20.620   6.016  0.00  0.00    +0.015 C 
ATOM      9  C   LIG    1       25.913 -20.754   7.552  0.00  0.00    +0.005 C 
ATOM     10  C   LIG    1       24.667 -21.602   7.914  0.00  0.00    +0.003 C 
ATOM     11  C   LIG    1       23.282 -23.459   6.724  0.00  0.00    +0.012 C 
ENDROOT
TORSDOF 0
ENDMDL
MODEL 3
REMARK VINA RESULT:      -6.3      1.884      3.225
REMARK  Name = *****
REMARK                            x       y       z     vdW  Elec       q    Type
REMARK                         _______ _______ _______ _____ _____    ______ ____
ROOT
ATOM      1  C   LIG    1       26.757 -21.086   6.704  0.00  0.00    +0.012 C 
ATOM      2  C   LIG    1       25.429 -21.720   7.161  0.00  0.00    -0.020 C 
ATOM      3  C   LIG    1       24.884 -22.831   6.222  0.00  0.00    +0.032 C 
ATOM      4  C   LIG    1       23.494 -23.034   6.830  0.00  0.00    +0.140 C 
ATOM      5  C   LIG    1       22.985 -21.707   7.356  0.00  0.00    +0.079 C 
ATOM      6  O   LIG    1       22.870 -24.084   6.865  0.00  0.00    -0.297 OA
ATOM      7  C   LIG    1       25.700 -24.093   6.074  0.00  0.00    +0.019 C 
ATOM      8  C   LIG    1       24.589 -22.084   4.900  0.00  0.00    +0.015 C 
ATOM      9  C   LIG    1       24.126 -20.692   5.387  0.00  0.00    +0.005 C 
ATOM     10  C   LIG    1       24.183 -20.820   6.931  0.00  0.00    +0.003 C 
ATOM     11  C   LIG    1       25.638 -22.160   8.625  0.00  0.00    +0.012 C 
ENDROOT
TORSDOF 0
ENDMDL
MODEL 4
REMARK VINA RESULT:      -6.0      0.979      2.830
REMARK  Name = *****
REMARK                            x       y       z     vdW  Elec       q    Type
REMARK                         _______ _______ _______ _____ _____    ______ ____
ROOT
ATOM      1  C   LIG    1       22.810 -22.770   6.876  0.00  0.00    +0.012 C 
ATOM      2  C   LIG    1       23.887 -21.667   6.868  0.00  0.00    -0.020 C 
ATOM      3  C   LIG    1       24.946 -21.803   5.739  0.00  0.00    +0.032 C 
ATOM      4  C   LIG    1       25.947 -20.734   6.185  0.00  0.00    +0.140 C 
ATOM      5  C   LIG    1       25.972 -20.681   7.699  0.00  0.00    +0.079 C 
ATOM      6  O   LIG    1       26.643 -20.051   5.451  0.00  0.00    -0.297 OA
ATOM      7  C   LIG    1       24.474 -21.671   4.311  0.00  0.00    +0.019 C 
ATOM      8  C   LIG    1       25.668 -23.130   6.070  0.00  0.00    +0.015 C 
ATOM      9  C   LIG    1       25.660 -23.151   7.615  0.00  0.00    +0.005 C 
ATOM     10  C   LIG    1       24.959 -21.819   7.984  0.00  0.00    +0.003 C 
ATOM     11  C   LIG    1       23.132 -20.322   6.886  0.00  0.00    +0.012 C 
ENDROOT
TORSDOF 0
ENDMDL
MODEL 5
REMARK VINA RESULT:      -5.9      1.313      2.868
REMARK  Name = *****
REMARK                            x       y       z     vdW  Elec       q    Type
REMARK                         _______ _______ _______ _____ _____    ______ ____
ROOT
ATOM      1  C   LIG    1       24.019 -21.649   3.978  0.00  0.00    +0.012 C 
ATOM      2  C   LIG    1       23.878 -21.227   5.454  0.00  0.00    -0.020 C 
ATOM      3  C   LIG    1       25.194 -21.294   6.276  0.00  0.00    +0.032 C 
ATOM      4  C   LIG    1       24.640 -21.063   7.684  0.00  0.00    +0.140 C 
ATOM      5  C   LIG    1       23.263 -21.688   7.782  0.00  0.00    +0.079 C 
ATOM      6  O   LIG    1       25.216 -20.497   8.600  0.00  0.00    -0.297 OA
ATOM      7  C   LIG    1       26.321 -20.369   5.881  0.00  0.00    +0.019 C 
ATOM      8  C   LIG    1       25.552 -22.799   6.275  0.00  0.00    +0.015 C 
ATOM      9  C   LIG    1       24.167 -23.482   6.309  0.00  0.00    +0.005 C 
ATOM     10  C   LIG    1       23.183 -22.286   6.354  0.00  0.00    +0.003 C 
ATOM     11  C   LIG    1       23.193 -19.845   5.448  0.00  0.00    +0.012 C 
ENDROOT
TORSDOF 0
ENDMDL
MODEL 6
REMARK VINA RESULT:      -5.9      1.289      2.326
REMARK  Name = *****
REMARK                            x       y       z     vdW  Elec       q    Type
REMARK                         _______ _______ _______ _____ _____    ______ ____
ROOT
ATOM      1  C   LIG    1       22.972 -19.968   6.259  0.00  0.00    +0.012 C 
ATOM      2  C   LIG    1       23.740 -21.300   6.363  0.00  0.00    -0.020 C 
ATOM      3  C   LIG    1       25.228 -21.159   6.785  0.00  0.00    +0.032 C 
ATOM      4  C   LIG    1       25.710 -22.592   6.542  0.00  0.00    +0.140 C 
ATOM      5  C   LIG    1       24.964 -23.169   5.355  0.00  0.00    +0.079 C 
ATOM      6  O   LIG    1       26.576 -23.177   7.174  0.00  0.00    -0.297 OA
ATOM      7  C   LIG    1       25.523 -20.619   8.164  0.00  0.00    +0.019 C 
ATOM      8  C   LIG    1       25.867 -20.366   5.621  0.00  0.00    +0.015 C 
ATOM      9  C   LIG    1       25.089 -20.877   4.388  0.00  0.00    +0.005 C 
ATOM     10  C   LIG    1       24.117 -21.923   4.991  0.00  0.00    +0.003 C 
ATOM     11  C   LIG    1       22.897 -22.219   7.272  0.00  0.00    +0.012 C 
ENDROOT
TORSDOF 0
ENDMDL
MODEL 7
REMARK VINA RESULT:      -5.9      1.834      3.332
REMARK  Name = *****
REMARK                            x       y       z     vdW  Elec       q    Type
REMARK                         _______ _______ _______ _____ _____    ______ ____
ROOT
ATOM      1  C   LIG    1       26.200 -20.516   5.968  0.00  0.00    +0.012 C 
ATOM      2  C   LIG    1       25.198 -21.684   5.875  0.00  0.00    -0.020 C 
ATOM      3  C   LIG    1       24.138 -21.722   7.009  0.00  0.00    +0.032 C 
ATOM      4  C   LIG    1       23.512 -23.093   6.743  0.00  0.00    +0.140 C 
ATOM      5  C   LIG    1       24.583 -24.032   6.222  0.00  0.00    +0.079 C 
ATOM      6  O   LIG    1       22.348 -23.404   6.943  0.00  0.00    -0.297 OA
ATOM      7  C   LIG    1       23.150 -20.582   7.089  0.00  0.00    +0.019 C 
ATOM      8  C   LIG    1       24.976 -21.953   8.289  0.00  0.00    +0.015 C 
ATOM      9  C   LIG    1       26.124 -22.859   7.790  0.00  0.00    +0.005 C 
ATOM     10  C   LIG    1       25.789 -23.061   6.290  0.00  0.00    +0.003 C 
ATOM     11  C   LIG    1       24.614 -21.644   4.448  0.00  0.00    +0.012 C 
ENDROOT
TORSDOF 0
ENDMDL
MODEL 8
REMARK VINA RESULT:      -5.9      1.590      2.826
REMARK  Name = *****
REMARK                            x       y       z     vdW  Elec       q    Type
REMARK                         _______ _______ _______ _____ _____    ______ ____
ROOT
ATOM      1  C   LIG    1       25.953 -20.477   8.365  0.00  0.00    +0.012 C 
ATOM      2  C   LIG    1       25.614 -21.581   7.344  0.00  0.00    -0.020 C 
ATOM      3  C   LIG    1       25.020 -21.065   6.004  0.00  0.00    +0.032 C 
ATOM      4  C   LIG    1       24.590 -22.393   5.376  0.00  0.00    +0.140 C 
ATOM      5  C   LIG    1       24.142 -23.337   6.474  0.00  0.00    +0.079 C 
ATOM      6  O   LIG    1       24.576 -22.653   4.183  0.00  0.00    -0.297 OA
ATOM      7  C   LIG    1       25.900 -20.206   5.127  0.00  0.00    +0.019 C 
ATOM      8  C   LIG    1       23.680 -20.416   6.422  0.00  0.00    +0.015 C 
ATOM      9  C   LIG    1       23.212 -21.313   7.590  0.00  0.00    +0.005 C 
ATOM     10  C   LIG    1       24.328 -22.385   7.683  0.00  0.00    +0.003 C 
ATOM     11  C   LIG    1       26.886 -22.442   7.196  0.00  0.00    +0.012 C 
ENDROOT
TORSDOF 0
ENDMDL
MODEL 9
REMARK VINA RESULT:      -5.8      1.238      2.657
REMARK  Name = *****
REMARK                            x       y       z     vdW  Elec       q    Type
REMARK                         _______ _______ _______ _____ _____    ______ ____
ROOT
ATOM      1  C   LIG    1       22.963 -20.868   4.782  0.00  0.00    +0.012 C 
ATOM      2  C   LIG    1       24.240 -21.078   5.620  0.00  0.00    -0.020 C 
ATOM      3  C   LIG    1       24.531 -22.556   6.000  0.00  0.00    +0.032 C 
ATOM      4  C   LIG    1       25.675 -22.354   6.997  0.00  0.00    +0.140 C 
ATOM      5  C   LIG    1       25.448 -21.060   7.753  0.00  0.00    +0.079 C 
ATOM      6  O   LIG    1       26.608 -23.119   7.185  0.00  0.00    -0.297 OA
ATOM      7  C   LIG    1       24.831 -23.525   4.881  0.00  0.00    +0.019 C 
ATOM      8  C   LIG    1       23.336 -22.946   6.901  0.00  0.00    +0.015 C 
ATOM      9  C   LIG    1       23.025 -21.631   7.650  0.00  0.00    +0.005 C 
ATOM     10  C   LIG    1       24.099 -20.653   7.109  0.00  0.00    +0.003 C 
ATOM     11  C   LIG    1       25.381 -20.372   4.860  0.00  0.00    +0.012 C 
ENDROOT
TORSDOF 0
ENDMDL
