MODEL 1
REMARK VINA RESULT:      -3.9      0.000      0.000
REMARK  Name = *****
REMARK                            x       y       z     vdW  Elec       q    Type
REMARK                         _______ _______ _______ _____ _____    ______ ____
ROOT
ATOM      1  C   LIG    1       27.535 -13.610   3.993  0.00  0.00    +0.086 C 
ENDROOT
BRANCH   1   2
ATOM      2  N   LIG    1       27.920 -15.056   3.961  0.00  0.00    -0.319 NA
ATOM      3  H   LIG    1       27.054 -15.591   4.073  0.00  0.00    +0.119 HD
ATOM      4  H   LIG    1       28.225 -15.251   3.001  0.00  0.00    +0.119 HD
ENDBRANCH   1   2
BRANCH   1   5
ATOM      5  C   LIG    1       26.804 -13.247   2.678  0.00  0.00    +0.182 C 
BRANCH   5   6
ATOM      6  O   LIG    1       26.493 -14.427   1.928  0.00  0.00    -0.393 OA
ATOM      7  H   LIG    1       27.039 -15.140   2.296  0.00  0.00    +0.209 HD
ENDBRANCH   5   6
ENDBRANCH   1   5
BRANCH   1   8
ATOM      8  C   LIG    1       28.795 -12.728   4.150  0.00  0.00    +0.182 C 
BRANCH   8   9
ATOM      9  O   LIG    1       28.799 -12.081   5.427  0.00  0.00    -0.393 OA
ATOM     10  H   LIG    1       27.900 -12.159   5.783  0.00  0.00    +0.209 HD
ENDBRANCH   8   9
ENDBRANCH   1   8
BRANCH   1  11
ATOM     11  C   LIG    1       26.590 -13.419   5.199  0.00  0.00    +0.182 C 
BRANCH  11  12
ATOM     12  O   LIG    1       25.236 -13.648   4.802  0.00  0.00    -0.393 OA
ATOM     13  H   LIG    1       25.284 -13.694   3.823  0.00  0.00    +0.209 HD
ENDBRANCH  11  12
ENDBRANCH   1  11
TORSDOF 7
ENDMDL
MODEL 2
REMARK VINA RESULT:      -3.8      0.089      2.910
REMARK  Name = *****
REMARK                            x       y       z     vdW  Elec       q    Type
REMARK                         _______ _______ _______ _____ _____    ______ ____
ROOT
ATOM      1  C   LIG    1       27.519 -13.614   4.003  0.00  0.00    +0.086 C 
ENDROOT
BRANCH   1   2
ATOM      2  N   LIG    1       27.911 -15.056   3.929  0.00  0.00    -0.319 NA
ATOM      3  H   LIG    1       27.847 -15.425   4.883  0.00  0.00    +0.119 HD
ATOM      4  H   LIG    1       27.161 -15.532   3.416  0.00  0.00    +0.119 HD
ENDBRANCH   1   2
BRANCH   1   5
ATOM      5  C   LIG    1       28.790 -12.746   4.165  0.00  0.00    +0.182 C 
BRANCH   5   6
ATOM      6  O   LIG    1       28.793 -12.083   5.434  0.00  0.00    -0.393 OA
ATOM      7  H   LIG    1       28.241 -11.290   5.332  0.00  0.00    +0.209 HD
ENDBRANCH   5   6
ENDBRANCH   1   5
BRANCH   1   8
ATOM      8  C   LIG    1       26.572 -13.382   5.204  0.00  0.00    +0.182 C 
BRANCH   8   9
ATOM      9  O   LIG    1       25.205 -13.416   4.780  0.00  0.00    -0.393 OA
ATOM     10  H   LIG    1       24.970 -14.351   4.671  0.00  0.00    +0.209 HD
ENDBRANCH   8   9
ENDBRANCH   1   8
BRANCH   1  11
ATOM     11  C   LIG    1       26.802 -13.270   2.679  0.00  0.00    +0.182 C 
BRANCH  11  12
ATOM     12  O   LIG    1       26.479 -14.470   1.971  0.00  0.00    -0.393 OA
ATOM     13  H   LIG    1       26.347 -14.167   1.047  0.00  0.00    +0.209 HD
ENDBRANCH  11  12
ENDBRANCH   1  11
TORSDOF 7
ENDMDL
MODEL 3
REMARK VINA RESULT:      -3.8      0.037      2.924
REMARK  Name = *****
REMARK                            x       y       z     vdW  Elec       q    Type
REMARK                         _______ _______ _______ _____ _____    ______ ____
ROOT
ATOM      1  C   LIG    1       27.516 -13.607   3.988  0.00  0.00    +0.086 C 
ENDROOT
BRANCH   1   2
ATOM      2  N   LIG    1       27.949 -15.039   3.959  0.00  0.00    -0.319 NA
ATOM      3  H   LIG    1       28.182 -15.253   2.985  0.00  0.00    +0.119 HD
ATOM      4  H   LIG    1       28.846 -15.078   4.456  0.00  0.00    +0.119 HD
ENDBRANCH   1   2
BRANCH   1   5
ATOM      5  C   LIG    1       26.564 -13.385   5.188  0.00  0.00    +0.182 C 
BRANCH   5   6
ATOM      6  O   LIG    1       25.201 -13.583   4.798  0.00  0.00    -0.393 OA
ATOM      7  H   LIG    1       25.096 -14.534   4.637  0.00  0.00    +0.209 HD
ENDBRANCH   5   6
ENDBRANCH   1   5
BRANCH   1   8
ATOM      8  C   LIG    1       26.788 -13.245   2.672  0.00  0.00    +0.182 C 
BRANCH   8   9
ATOM      9  O   LIG    1       26.470 -14.428   1.932  0.00  0.00    -0.393 OA
ATOM     10  H   LIG    1       27.248 -15.006   1.979  0.00  0.00    +0.209 HD
ENDBRANCH   8   9
ENDBRANCH   1   8
BRANCH   1  11
ATOM     11  C   LIG    1       28.790 -12.750   4.151  0.00  0.00    +0.182 C 
BRANCH  11  12
ATOM     12  O   LIG    1       28.781 -12.095   5.421  0.00  0.00    -0.393 OA
ATOM     13  H   LIG    1       29.319 -11.288   5.271  0.00  0.00    +0.209 HD
ENDBRANCH  11  12
ENDBRANCH   1  11
TORSDOF 7
ENDMDL
MODEL 4
REMARK VINA RESULT:      -3.6      1.912      2.335
REMARK  Name = *****
REMARK                            x       y       z     vdW  Elec       q    Type
REMARK                         _______ _______ _______ _____ _____    ______ ____
ROOT
ATOM      1  C   LIG    1       26.913 -14.148   3.514  0.00  0.00    +0.086 C 
ENDROOT
BRANCH   1   2
ATOM      2  N   LIG    1       26.792 -13.966   2.034  0.00  0.00    -0.319 NA
ATOM      3  H   LIG    1       27.160 -13.034   1.823  0.00  0.00    +0.119 HD
ATOM      4  H   LIG    1       27.465 -14.613   1.609  0.00  0.00    +0.119 HD
ENDBRANCH   1   2
BRANCH   1   5
ATOM      5  C   LIG    1       25.580 -13.743   4.189  0.00  0.00    +0.182 C 
BRANCH   5   6
ATOM      6  O   LIG    1       24.481 -13.923   3.290  0.00  0.00    -0.393 OA
ATOM      7  H   LIG    1       23.919 -14.614   3.676  0.00  0.00    +0.209 HD
ENDBRANCH   5   6
ENDBRANCH   1   5
BRANCH   1   8
ATOM      8  C   LIG    1       28.063 -13.272   4.065  0.00  0.00    +0.182 C 
BRANCH   8   9
ATOM      9  O   LIG    1       29.217 -13.372   3.225  0.00  0.00    -0.393 OA
ATOM     10  H   LIG    1       29.928 -12.881   3.666  0.00  0.00    +0.209 HD
ENDBRANCH   8   9
ENDBRANCH   1   8
BRANCH   1  11
ATOM     11  C   LIG    1       27.208 -15.642   3.767  0.00  0.00    +0.182 C 
BRANCH  11  12
ATOM     12  O   LIG    1       26.193 -16.450   3.166  0.00  0.00    -0.393 OA
ATOM     13  H   LIG    1       25.448 -16.401   3.803  0.00  0.00    +0.209 HD
ENDBRANCH  11  12
ENDBRANCH   1  11
TORSDOF 7
ENDMDL
MODEL 5
REMARK VINA RESULT:      -3.6      7.324      8.182
REMARK  Name = *****
REMARK                            x       y       z     vdW  Elec       q    Type
REMARK                         _______ _______ _______ _____ _____    ______ ____
ROOT
ATOM      1  C   LIG    1       23.867 -20.500   4.548  0.00  0.00    +0.086 C 
ENDROOT
BRANCH   1   2
ATOM      2  N   LIG    1       23.920 -21.571   3.504  0.00  0.00    -0.319 NA
ATOM      3  H   LIG    1       23.766 -21.108   2.603  0.00  0.00    +0.119 HD
ATOM      4  H   LIG    1       24.894 -21.890   3.469  0.00  0.00    +0.119 HD
ENDBRANCH   1   2
BRANCH   1   5
ATOM      5  C   LIG    1       22.753 -20.836   5.568  0.00  0.00    +0.182 C 
BRANCH   5   6
ATOM      6  O   LIG    1       21.663 -21.508   4.927  0.00  0.00    -0.393 OA
ATOM      7  H   LIG    1       21.604 -21.143   4.029  0.00  0.00    +0.209 HD
ENDBRANCH   5   6
ENDBRANCH   1   5
BRANCH   1   8
ATOM      8  C   LIG    1       23.576 -19.131   3.890  0.00  0.00    +0.182 C 
BRANCH   8   9
ATOM      9  O   LIG    1       22.321 -18.612   4.343  0.00  0.00    -0.393 OA
ATOM     10  H   LIG    1       22.413 -17.647   4.377  0.00  0.00    +0.209 HD
ENDBRANCH   8   9
ENDBRANCH   1   8
BRANCH   1  11
ATOM     11  C   LIG    1       25.243 -20.479   5.247  0.00  0.00    +0.182 C 
BRANCH  11  12
ATOM     12  O   LIG    1       26.278 -20.256   4.285  0.00  0.00    -0.393 OA
ATOM     13  H   LIG    1       26.727 -19.447   4.610  0.00  0.00    +0.209 HD
ENDBRANCH  11  12
ENDBRANCH   1  11
TORSDOF 7
ENDMDL
MODEL 6
REMARK VINA RESULT:      -3.6      1.873      2.665
REMARK  Name = *****
REMARK                            x       y       z     vdW  Elec       q    Type
REMARK                         _______ _______ _______ _____ _____    ______ ____
ROOT
ATOM      1  C   LIG    1       27.036 -14.331   3.464  0.00  0.00    +0.086 C 
ENDROOT
BRANCH   1   2
ATOM      2  N   LIG    1       26.735 -14.095   2.017  0.00  0.00    -0.319 NA
ATOM      3  H   LIG    1       27.398 -14.666   1.485  0.00  0.00    +0.119 HD
ATOM      4  H   LIG    1       25.821 -14.524   1.840  0.00  0.00    +0.119 HD
ENDBRANCH   1   2
BRANCH   1   5
ATOM      5  C   LIG    1       27.154 -15.852   3.720  0.00  0.00    +0.182 C 
BRANCH   5   6
ATOM      6  O   LIG    1       26.065 -16.555   3.112  0.00  0.00    -0.393 OA
ATOM      7  H   LIG    1       25.420 -16.728   3.816  0.00  0.00    +0.209 HD
ENDBRANCH   5   6
ENDBRANCH   1   5
BRANCH   1   8
ATOM      8  C   LIG    1       25.910 -13.739   4.344  0.00  0.00    +0.182 C 
BRANCH   8   9
ATOM      9  O   LIG    1       26.458 -13.112   5.508  0.00  0.00    -0.393 OA
ATOM     10  H   LIG    1       26.897 -12.301   5.208  0.00  0.00    +0.209 HD
ENDBRANCH   8   9
ENDBRANCH   1   8
BRANCH   1  11
ATOM     11  C   LIG    1       28.379 -13.632   3.769  0.00  0.00    +0.182 C 
BRANCH  11  12
ATOM     12  O   LIG    1       28.393 -12.324   3.191  0.00  0.00    -0.393 OA
ATOM     13  H   LIG    1       28.950 -12.429   2.390  0.00  0.00    +0.209 HD
ENDBRANCH  11  12
ENDBRANCH   1  11
TORSDOF 7
ENDMDL
MODEL 7
REMARK VINA RESULT:      -3.6      1.685      3.091
REMARK  Name = *****
REMARK                            x       y       z     vdW  Elec       q    Type
REMARK                         _______ _______ _______ _____ _____    ______ ____
ROOT
ATOM      1  C   LIG    1       26.475 -14.390   3.449  0.00  0.00    +0.086 C 
ENDROOT
BRANCH   1   2
ATOM      2  N   LIG    1       26.349 -15.869   3.258  0.00  0.00    -0.319 NA
ATOM      3  H   LIG    1       26.090 -16.015   2.278  0.00  0.00    +0.119 HD
ATOM      4  H   LIG    1       27.298 -16.251   3.335  0.00  0.00    +0.119 HD
ENDBRANCH   1   2
BRANCH   1   5
ATOM      5  C   LIG    1       25.595 -13.952   4.643  0.00  0.00    +0.182 C 
BRANCH   5   6
ATOM      6  O   LIG    1       26.280 -12.991   5.454  0.00  0.00    -0.393 OA
ATOM      7  H   LIG    1       26.495 -13.437   6.288  0.00  0.00    +0.209 HD
ENDBRANCH   5   6
ENDBRANCH   1   5
BRANCH   1   8
ATOM      8  C   LIG    1       26.023 -13.649   2.169  0.00  0.00    +0.182 C 
BRANCH   8   9
ATOM      9  O   LIG    1       25.324 -12.446   2.505  0.00  0.00    -0.393 OA
ATOM     10  H   LIG    1       25.006 -12.065   1.671  0.00  0.00    +0.209 HD
ENDBRANCH   8   9
ENDBRANCH   1   8
BRANCH   1  11
ATOM     11  C   LIG    1       27.962 -14.096   3.744  0.00  0.00    +0.182 C 
BRANCH  11  12
ATOM     12  O   LIG    1       28.324 -12.821   3.208  0.00  0.00    -0.393 OA
ATOM     13  H   LIG    1       27.524 -12.538   2.716  0.00  0.00    +0.209 HD
ENDBRANCH  11  12
ENDBRANCH   1  11
TORSDOF 7
ENDMDL
MODEL 8
REMARK VINA RESULT:      -3.6      2.469      3.598
REMARK  Name = *****
REMARK                            x       y       z     vdW  Elec       q    Type
REMARK                         _______ _______ _______ _____ _____    ______ ____
ROOT
ATOM      1  C   LIG    1       25.470 -13.422   3.867  0.00  0.00    +0.086 C 
ENDROOT
BRANCH   1   2
ATOM      2  N   LIG    1       25.974 -13.031   5.221  0.00  0.00    -0.319 NA
ATOM      3  H   LIG    1       26.435 -13.859   5.610  0.00  0.00    +0.119 HD
ATOM      4  H   LIG    1       26.734 -12.361   5.063  0.00  0.00    +0.119 HD
ENDBRANCH   1   2
BRANCH   1   5
ATOM      5  C   LIG    1       24.353 -12.442   3.435  0.00  0.00    +0.182 C 
BRANCH   5   6
ATOM      6  O   LIG    1       23.847 -12.788   2.141  0.00  0.00    -0.393 OA
ATOM      7  H   LIG    1       23.622 -11.952   1.701  0.00  0.00    +0.209 HD
ENDBRANCH   5   6
ENDBRANCH   1   5
BRANCH   1   8
ATOM      8  C   LIG    1       24.914 -14.864   3.903  0.00  0.00    +0.182 C 
BRANCH   8   9
ATOM      9  O   LIG    1       23.521 -14.857   4.233  0.00  0.00    -0.393 OA
ATOM     10  H   LIG    1       23.343 -15.681   4.715  0.00  0.00    +0.209 HD
ENDBRANCH   8   9
ENDBRANCH   1   8
BRANCH   1  11
ATOM     11  C   LIG    1       26.666 -13.331   2.894  0.00  0.00    +0.182 C 
BRANCH  11  12
ATOM     12  O   LIG    1       26.518 -14.292   1.846  0.00  0.00    -0.393 OA
ATOM     13  H   LIG    1       25.556 -14.281   1.654  0.00  0.00    +0.209 HD
ENDBRANCH  11  12
ENDBRANCH   1  11
TORSDOF 7
ENDMDL
MODEL 9
REMARK VINA RESULT:      -3.6      1.850      2.856
REMARK  Name = *****
REMARK                            x       y       z     vdW  Elec       q    Type
REMARK                         _______ _______ _______ _____ _____    ______ ____
ROOT
ATOM      1  C   LIG    1       26.926 -14.031   3.481  0.00  0.00    +0.086 C 
ENDROOT
BRANCH   1   2
ATOM      2  N   LIG    1       26.872 -13.954   1.987  0.00  0.00    -0.319 NA
ATOM      3  H   LIG    1       25.880 -13.969   1.730  0.00  0.00    +0.119 HD
ATOM      4  H   LIG    1       27.190 -13.012   1.736  0.00  0.00    +0.119 HD
ENDBRANCH   1   2
BRANCH   1   5
ATOM      5  C   LIG    1       28.082 -13.142   3.997  0.00  0.00    +0.182 C 
BRANCH   5   6
ATOM      6  O   LIG    1       29.272 -13.362   3.231  0.00  0.00    -0.393 OA
ATOM      7  H   LIG    1       29.235 -12.746   2.481  0.00  0.00    +0.209 HD
ENDBRANCH   5   6
ENDBRANCH   1   5
BRANCH   1   8
ATOM      8  C   LIG    1       27.152 -15.494   3.929  0.00  0.00    +0.182 C 
BRANCH   8   9
ATOM      9  O   LIG    1       26.392 -16.393   3.116  0.00  0.00    -0.393 OA
ATOM     10  H   LIG    1       26.935 -16.594   2.338  0.00  0.00    +0.209 HD
ENDBRANCH   8   9
ENDBRANCH   1   8
BRANCH   1  11
ATOM     11  C   LIG    1       25.573 -13.510   4.012  0.00  0.00    +0.182 C 
BRANCH  11  12
ATOM     12  O   LIG    1       24.640 -14.588   4.119  0.00  0.00    -0.393 OA
ATOM     13  H   LIG    1       24.615 -14.780   5.081  0.00  0.00    +0.209 HD
ENDBRANCH  11  12
ENDBRANCH   1  11
TORSDOF 7
ENDMDL
