MODEL 1
REMARK VINA RESULT:       3.7      0.000      0.000
REMARK  Name = *****
REMARK                            x       y       z     vdW  Elec       q    Type
REMARK                         _______ _______ _______ _____ _____    ______ ____
ROOT
ATOM      1  C   LIG    1       23.885 -21.450   2.843  0.00  0.00    +0.015 C 
ATOM      2  C   LIG    1       24.006 -20.192   3.752  0.00  0.00    +0.008 C 
ATOM      3  C   LIG    1       24.144 -20.708   5.221  0.00  0.00    +0.183 C 
ATOM      4  C   LIG    1       22.766 -20.526   5.872  0.00  0.00    +0.045 C 
ATOM      5  C   LIG    1       21.807 -20.183   4.737  0.00  0.00    +0.008 C 
ATOM      6  C   LIG    1       22.662 -19.411   3.721  0.00  0.00    +0.002 C 
ATOM      7  C   LIG    1       22.706 -17.862   3.936  0.00  0.00    +0.001 C 
ATOM      8  C   LIG    1       23.947 -17.187   3.288  0.00  0.00    +0.023 C 
ATOM      9  C   LIG    1       24.116 -15.712   3.644  0.00  0.00    -0.041 A 
ATOM     10  C   LIG    1       23.388 -15.112   4.686  0.00  0.00    -0.041 A 
ATOM     11  C   LIG    1       22.298 -15.857   5.400  0.00  0.00    +0.036 C 
ATOM     12  C   LIG    1       23.648 -13.781   5.047  0.00  0.00    +0.049 A 
ATOM     13  C   LIG    1       24.641 -13.061   4.399  0.00  0.00    +0.117 A 
ATOM     14  C   LIG    1       25.354 -13.624   3.351  0.00  0.00    +0.045 A 
ATOM     15  C   LIG    1       25.082 -14.940   2.967  0.00  0.00    +0.008 A 
ATOM     16  C   LIG    1       25.235 -17.935   3.665  0.00  0.00    +0.009 C 
ATOM     17  C   LIG    1       22.526 -17.364   5.380  0.00  0.00    +0.009 C 
ATOM     18  C   LIG    1       25.193 -19.384   3.214  0.00  0.00    +0.011 C 
ENDROOT
BRANCH  13  19
ATOM     19  O   LIG    1       24.894 -11.794   4.834  0.00  0.00    -0.507 OA
ATOM     20  H   LIG    1       25.548 -11.391   4.240  0.00  0.00    +0.292 HD
ENDBRANCH  13  19
BRANCH   3  21
ATOM     21  O   LIG    1       25.152 -20.000   5.958  0.00  0.00    -0.461 OA
BRANCH  21  22
ATOM     22  C   LIG    1       26.299 -20.697   6.211  0.00  0.00    +0.307 C 
ATOM     23  O   LIG    1       26.420 -21.568   7.062  0.00  0.00    -0.251 OA
BRANCH  22  24
ATOM     24  C   LIG    1       27.381 -20.251   5.254  0.00  0.00    +0.121 C 
BRANCH  24  25
ATOM     25  C   LIG    1       28.647 -19.794   5.989  0.00  0.00    +0.015 C 
BRANCH  25  26
ATOM     26  C   LIG    1       29.269 -18.521   5.395  0.00  0.00    -0.010 C 
ATOM     27  C   LIG    1       28.396 -17.939   4.266  0.00  0.00    +0.003 C 
ATOM     28  C   LIG    1       28.424 -16.432   4.469  0.00  0.00    +0.000 C 
ATOM     29  C   LIG    1       28.461 -16.292   5.979  0.00  0.00    +0.000 C 
ATOM     30  C   LIG    1       29.441 -17.374   6.408  0.00  0.00    +0.003 C 
ENDBRANCH  25  26
ENDBRANCH  24  25
ENDBRANCH  22  24
ENDBRANCH  21  22
ENDBRANCH   3  21
TORSDOF 6
ENDMDL
MODEL 2
REMARK VINA RESULT:       4.2      1.492      7.051
REMARK  Name = *****
REMARK                            x       y       z     vdW  Elec       q    Type
REMARK                         _______ _______ _______ _____ _____    ______ ____
ROOT
ATOM      1  C   LIG    1       26.207 -12.222   1.931  0.00  0.00    +0.015 C 
ATOM      2  C   LIG    1       26.224 -13.360   2.995  0.00  0.00    +0.008 C 
ATOM      3  C   LIG    1       26.226 -12.666   4.396  0.00  0.00    +0.183 C 
ATOM      4  C   LIG    1       27.670 -12.738   4.910  0.00  0.00    +0.045 C 
ATOM      5  C   LIG    1       28.515 -13.201   3.727  0.00  0.00    +0.008 C 
ATOM      6  C   LIG    1       27.583 -14.111   2.913  0.00  0.00    +0.002 C 
ATOM      7  C   LIG    1       27.613 -15.621   3.319  0.00  0.00    +0.001 C 
ATOM      8  C   LIG    1       26.334 -16.397   2.897  0.00  0.00    +0.023 C 
ATOM      9  C   LIG    1       26.253 -17.819   3.447  0.00  0.00    -0.041 A 
ATOM     10  C   LIG    1       27.106 -18.269   4.469  0.00  0.00    -0.041 A 
ATOM     11  C   LIG    1       28.240 -17.419   4.964  0.00  0.00    +0.036 C 
ATOM     12  C   LIG    1       26.931 -19.549   5.017  0.00  0.00    +0.049 A 
ATOM     13  C   LIG    1       25.899 -20.364   4.574  0.00  0.00    +0.117 A 
ATOM     14  C   LIG    1       25.061 -19.951   3.548  0.00  0.00    +0.045 A 
ATOM     15  C   LIG    1       25.247 -18.689   2.979  0.00  0.00    +0.008 A 
ATOM     16  C   LIG    1       25.069 -15.633   3.319  0.00  0.00    +0.009 C 
ATOM     17  C   LIG    1       27.962 -15.931   4.785  0.00  0.00    +0.009 C 
ATOM     18  C   LIG    1       25.015 -14.251   2.692  0.00  0.00    +0.011 C 
ENDROOT
BRANCH  13  19
ATOM     19  O   LIG    1       25.736 -21.572   5.185  0.00  0.00    -0.507 OA
ATOM     20  H   LIG    1       26.142 -21.527   6.065  0.00  0.00    +0.292 HD
ENDBRANCH  13  19
BRANCH   3  21
ATOM     21  O   LIG    1       25.326 -13.296   5.319  0.00  0.00    -0.461 OA
BRANCH  21  22
ATOM     22  C   LIG    1       24.005 -12.988   5.161  0.00  0.00    +0.307 C 
ATOM     23  O   LIG    1       23.577 -11.939   4.698  0.00  0.00    -0.251 OA
BRANCH  22  24
ATOM     24  C   LIG    1       23.157 -14.157   5.610  0.00  0.00    +0.121 C 
BRANCH  24  25
ATOM     25  C   LIG    1       23.105 -15.270   4.556  0.00  0.00    +0.015 C 
BRANCH  25  26
ATOM     26  C   LIG    1       22.005 -16.308   4.822  0.00  0.00    -0.010 C 
ATOM     27  C   LIG    1       21.684 -17.129   3.558  0.00  0.00    +0.003 C 
ATOM     28  C   LIG    1       21.501 -18.560   4.041  0.00  0.00    +0.000 C 
ATOM     29  C   LIG    1       22.512 -18.671   5.166  0.00  0.00    +0.000 C 
ATOM     30  C   LIG    1       22.369 -17.346   5.900  0.00  0.00    +0.003 C 
ENDBRANCH  25  26
ENDBRANCH  24  25
ENDBRANCH  22  24
ENDBRANCH  21  22
ENDBRANCH   3  21
TORSDOF 6
ENDMDL
MODEL 3
REMARK VINA RESULT:       5.4      1.423      5.866
REMARK  Name = *****
REMARK                            x       y       z     vdW  Elec       q    Type
REMARK                         _______ _______ _______ _____ _____    ______ ____
ROOT
ATOM      1  C   LIG    1       23.852 -11.712   4.046  0.00  0.00    +0.015 C 
ATOM      2  C   LIG    1       24.430 -13.140   4.273  0.00  0.00    +0.008 C 
ATOM      3  C   LIG    1       25.933 -12.960   4.661  0.00  0.00    +0.183 C 
ATOM      4  C   LIG    1       26.745 -13.290   3.402  0.00  0.00    +0.045 C 
ATOM      5  C   LIG    1       25.735 -13.379   2.262  0.00  0.00    +0.008 C 
ATOM      6  C   LIG    1       24.449 -13.902   2.918  0.00  0.00    +0.002 C 
ATOM      7  C   LIG    1       24.308 -15.459   2.949  0.00  0.00    +0.001 C 
ATOM      8  C   LIG    1       23.333 -15.967   4.047  0.00  0.00    +0.023 C 
ATOM      9  C   LIG    1       23.324 -17.484   4.226  0.00  0.00    -0.041 A 
ATOM     10  C   LIG    1       24.314 -18.303   3.657  0.00  0.00    -0.041 A 
ATOM     11  C   LIG    1       25.344 -17.741   2.720  0.00  0.00    +0.036 C 
ATOM     12  C   LIG    1       24.328 -19.680   3.930  0.00  0.00    +0.049 A 
ATOM     13  C   LIG    1       23.383 -20.232   4.784  0.00  0.00    +0.117 A 
ATOM     14  C   LIG    1       22.382 -19.447   5.335  0.00  0.00    +0.045 A 
ATOM     15  C   LIG    1       22.346 -18.081   5.045  0.00  0.00    +0.008 A 
ATOM     16  C   LIG    1       23.649 -15.314   5.402  0.00  0.00    +0.009 C 
ATOM     17  C   LIG    1       25.618 -16.266   2.988  0.00  0.00    +0.009 C 
ATOM     18  C   LIG    1       23.540 -13.801   5.332  0.00  0.00    +0.011 C 
ENDROOT
BRANCH  13  19
ATOM     19  O   LIG    1       23.482 -21.563   5.064  0.00  0.00    -0.507 OA
ATOM     20  H   LIG    1       23.607 -22.043   4.230  0.00  0.00    +0.292 HD
ENDBRANCH  13  19
BRANCH   3  21
ATOM     21  O   LIG    1       26.321 -13.808   5.753  0.00  0.00    -0.461 OA
BRANCH  21  22
ATOM     22  C   LIG    1       27.665 -13.963   5.934  0.00  0.00    +0.307 C 
ATOM     23  O   LIG    1       28.477 -13.048   6.002  0.00  0.00    -0.251 OA
BRANCH  22  24
ATOM     24  C   LIG    1       27.990 -15.433   6.074  0.00  0.00    +0.121 C 
BRANCH  24  25
ATOM     25  C   LIG    1       28.075 -16.137   4.714  0.00  0.00    +0.015 C 
BRANCH  25  26
ATOM     26  C   LIG    1       28.757 -17.511   4.782  0.00  0.00    -0.010 C 
ATOM     27  C   LIG    1       29.475 -17.720   6.130  0.00  0.00    +0.003 C 
ATOM     28  C   LIG    1       29.190 -19.162   6.520  0.00  0.00    +0.000 C 
ATOM     29  C   LIG    1       27.778 -19.381   6.010  0.00  0.00    +0.000 C 
ATOM     30  C   LIG    1       27.787 -18.700   4.649  0.00  0.00    +0.003 C 
ENDBRANCH  25  26
ENDBRANCH  24  25
ENDBRANCH  22  24
ENDBRANCH  21  22
ENDBRANCH   3  21
TORSDOF 6
ENDMDL
