MODEL 1
REMARK VINA RESULT:      -4.3      0.000      0.000
REMARK  Name = *****
REMARK                            x       y       z     vdW  Elec       q    Type
REMARK                         _______ _______ _______ _____ _____    ______ ____
ROOT
ATOM      1  N   LIG    1       23.683 -16.373   4.044  0.00  0.00    -0.075 NA
ATOM      2  C   LIG    1       22.667 -17.024   4.476  0.00  0.00    +0.313 C 
ENDROOT
BRANCH   1   3
ATOM      3  S   LIG    1       23.736 -14.762   4.195  0.00  0.00    +0.103 S 
ATOM      4  O   LIG    1       23.034 -14.151   3.079  0.00  0.00    -0.146 OA
ATOM      5  O   LIG    1       23.332 -14.428   5.549  0.00  0.00    -0.146 OA
BRANCH   3  10
ATOM      6  C   LIG    1       29.441 -12.752   3.708  0.00  0.00    +0.044 C 
ATOM      7  C   LIG    1       28.061 -13.320   3.865  0.00  0.00    -0.050 A 
ATOM      8  C   LIG    1       27.446 -13.961   2.782  0.00  0.00    +0.005 A 
ATOM      9  C   LIG    1       26.140 -14.437   2.893  0.00  0.00    +0.029 A 
ATOM     10  C   LIG    1       25.452 -14.282   4.098  0.00  0.00    +0.113 A 
ATOM     11  C   LIG    1       26.074 -13.704   5.209  0.00  0.00    +0.029 A 
ATOM     12  C   LIG    1       27.383 -13.230   5.089  0.00  0.00    +0.005 A 
ENDBRANCH   3  10
ENDBRANCH   1   3
BRANCH   2  13
ATOM     13  N   LIG    1       22.544 -18.388   4.454  0.00  0.00    -0.231 N 
ATOM     14  H   LIG    1       22.136 -18.789   5.299  0.00  0.00    +0.171 HD
BRANCH  13  15
ATOM     15  N   LIG    1       23.509 -19.133   3.728  0.00  0.00    -0.225 NA
ATOM     16  C   LIG    1       24.868 -18.686   4.111  0.00  0.00    +0.109 C 
ATOM     17  C   LIG    1       25.700 -19.963   4.195  0.00  0.00    +0.009 C 
ATOM     18  C   LIG    1       24.700 -20.993   4.691  0.00  0.00    +0.009 C 
ATOM     19  C   LIG    1       24.763 -20.846   6.210  0.00  0.00    +0.005 C 
ATOM     20  C   LIG    1       26.244 -20.626   6.487  0.00  0.00    +0.001 C 
ATOM     21  C   LIG    1       26.808 -19.927   5.245  0.00  0.00    +0.005 C 
ATOM     22  C   LIG    1       23.384 -20.567   4.064  0.00  0.00    +0.109 C 
ENDBRANCH  13  15
ENDBRANCH   2  13
BRANCH   2  23
ATOM     23  O   LIG    1       21.582 -16.438   5.002  0.00  0.00    -0.480 OA
ATOM     24  H   LIG    1       21.113 -17.144   5.490  0.00  0.00    +0.295 HD
ENDBRANCH   2  23
TORSDOF 5
ENDMDL
MODEL 2
REMARK VINA RESULT:      -4.1      2.231      6.416
REMARK  Name = *****
REMARK                            x       y       z     vdW  Elec       q    Type
REMARK                         _______ _______ _______ _____ _____    ______ ____
ROOT
ATOM      1  N   LIG    1       23.948 -18.267   3.580  0.00  0.00    -0.075 NA
ATOM      2  C   LIG    1       23.178 -17.393   4.115  0.00  0.00    +0.313 C 
ENDROOT
BRANCH   1   3
ATOM      3  S   LIG    1       23.869 -19.814   4.052  0.00  0.00    +0.103 S 
ATOM      4  O   LIG    1       22.709 -19.997   4.908  0.00  0.00    -0.146 OA
ATOM      5  O   LIG    1       24.012 -20.647   2.872  0.00  0.00    -0.146 OA
BRANCH   3  10
ATOM      6  C   LIG    1       28.956 -21.207   7.053  0.00  0.00    +0.044 C 
ATOM      7  C   LIG    1       27.682 -20.803   6.370  0.00  0.00    -0.050 A 
ATOM      8  C   LIG    1       26.514 -21.546   6.582  0.00  0.00    +0.005 A 
ATOM      9  C   LIG    1       25.339 -21.222   5.906  0.00  0.00    +0.029 A 
ATOM     10  C   LIG    1       25.330 -20.140   5.023  0.00  0.00    +0.113 A 
ATOM     11  C   LIG    1       26.468 -19.348   4.850  0.00  0.00    +0.029 A 
ATOM     12  C   LIG    1       27.643 -19.679   5.532  0.00  0.00    +0.005 A 
ENDBRANCH   3  10
ENDBRANCH   1   3
BRANCH   2  13
ATOM     13  N   LIG    1       23.118 -16.074   3.752  0.00  0.00    -0.231 N 
ATOM     14  H   LIG    1       22.991 -15.916   2.752  0.00  0.00    +0.171 HD
BRANCH  13  15
ATOM     15  N   LIG    1       23.868 -15.140   4.512  0.00  0.00    -0.225 NA
ATOM     16  C   LIG    1       25.256 -15.086   4.000  0.00  0.00    +0.109 C 
ATOM     17  C   LIG    1       25.638 -13.609   4.034  0.00  0.00    +0.009 C 
ATOM     18  C   LIG    1       24.325 -12.906   3.731  0.00  0.00    +0.009 C 
ATOM     19  C   LIG    1       24.289 -12.867   2.204  0.00  0.00    +0.005 C 
ATOM     20  C   LIG    1       25.732 -12.572   1.819  0.00  0.00    +0.001 C 
ATOM     21  C   LIG    1       26.599 -13.178   2.928  0.00  0.00    +0.005 C 
ATOM     22  C   LIG    1       23.272 -13.794   4.371  0.00  0.00    +0.109 C 
ENDBRANCH  13  15
ENDBRANCH   2  13
BRANCH   2  23
ATOM     23  O   LIG    1       22.330 -17.669   5.116  0.00  0.00    -0.480 OA
ATOM     24  H   LIG    1       22.683 -17.196   5.896  0.00  0.00    +0.295 HD
ENDBRANCH   2  23
TORSDOF 5
ENDMDL
MODEL 3
REMARK VINA RESULT:      -3.5      2.703      3.621
REMARK  Name = *****
REMARK                            x       y       z     vdW  Elec       q    Type
REMARK                         _______ _______ _______ _____ _____    ______ ____
ROOT
ATOM      1  N   LIG    1       27.399 -15.838   3.862  0.00  0.00    -0.075 NA
ATOM      2  C   LIG    1       26.455 -16.620   3.489  0.00  0.00    +0.313 C 
ENDROOT
BRANCH   1   3
ATOM      3  S   LIG    1       27.513 -14.350   3.232  0.00  0.00    +0.103 S 
ATOM      4  O   LIG    1       28.763 -13.742   3.658  0.00  0.00    -0.146 OA
ATOM      5  O   LIG    1       27.225 -14.444   1.813  0.00  0.00    -0.146 OA
BRANCH   3  10
ATOM      6  C   LIG    1       22.726 -11.447   5.574  0.00  0.00    +0.044 C 
ATOM      7  C   LIG    1       23.952 -12.091   4.995  0.00  0.00    -0.050 A 
ATOM      8  C   LIG    1       24.041 -12.302   3.613  0.00  0.00    +0.005 A 
ATOM      9  C   LIG    1       25.145 -12.956   3.069  0.00  0.00    +0.029 A 
ATOM     10  C   LIG    1       26.171 -13.389   3.910  0.00  0.00    +0.113 A 
ATOM     11  C   LIG    1       26.131 -13.128   5.283  0.00  0.00    +0.029 A 
ATOM     12  C   LIG    1       25.020 -12.472   5.821  0.00  0.00    +0.005 A 
ENDBRANCH   3  10
ENDBRANCH   1   3
BRANCH   2  13
ATOM     13  N   LIG    1       26.228 -17.872   3.997  0.00  0.00    -0.231 N 
ATOM     14  H   LIG    1       27.027 -18.281   4.483  0.00  0.00    +0.171 HD
BRANCH  13  15
ATOM     15  N   LIG    1       25.330 -18.721   3.301  0.00  0.00    -0.225 NA
ATOM     16  C   LIG    1       25.425 -20.094   3.846  0.00  0.00    +0.109 C 
ATOM     17  C   LIG    1       23.988 -20.606   3.894  0.00  0.00    +0.009 C 
ATOM     18  C   LIG    1       23.186 -19.352   4.203  0.00  0.00    +0.009 C 
ATOM     19  C   LIG    1       23.216 -19.279   5.728  0.00  0.00    +0.005 C 
ATOM     20  C   LIG    1       23.070 -20.732   6.159  0.00  0.00    +0.001 C 
ATOM     21  C   LIG    1       23.698 -21.571   5.041  0.00  0.00    +0.005 C 
ATOM     22  C   LIG    1       23.944 -18.243   3.495  0.00  0.00    +0.109 C 
ENDBRANCH  13  15
ENDBRANCH   2  13
BRANCH   2  23
ATOM     23  O   LIG    1       25.566 -16.306   2.535  0.00  0.00    -0.480 OA
ATOM     24  H   LIG    1       25.680 -15.347   2.378  0.00  0.00    +0.295 HD
ENDBRANCH   2  23
TORSDOF 5
ENDMDL
MODEL 4
REMARK VINA RESULT:      -3.0      3.036      6.899
REMARK  Name = *****
REMARK                            x       y       z     vdW  Elec       q    Type
REMARK                         _______ _______ _______ _____ _____    ______ ____
ROOT
ATOM      1  N   LIG    1       25.949 -18.673   4.781  0.00  0.00    -0.075 NA
ATOM      2  C   LIG    1       26.251 -18.059   3.698  0.00  0.00    +0.313 C 
ENDROOT
BRANCH   1   3
ATOM      3  S   LIG    1       25.148 -20.080   4.718  0.00  0.00    +0.103 S 
ATOM      4  O   LIG    1       25.615 -20.848   3.576  0.00  0.00    -0.146 OA
ATOM      5  O   LIG    1       25.198 -20.680   6.038  0.00  0.00    -0.146 OA
BRANCH   3  10
ATOM      6  C   LIG    1       19.356 -18.831   3.408  0.00  0.00    +0.044 C 
ATOM      7  C   LIG    1       20.769 -19.130   3.815  0.00  0.00    -0.050 A 
ATOM      8  C   LIG    1       21.735 -18.117   3.770  0.00  0.00    +0.005 A 
ATOM      9  C   LIG    1       23.064 -18.395   4.084  0.00  0.00    +0.029 A 
ATOM     10  C   LIG    1       23.426 -19.691   4.456  0.00  0.00    +0.113 A 
ATOM     11  C   LIG    1       22.464 -20.699   4.569  0.00  0.00    +0.029 A 
ATOM     12  C   LIG    1       21.133 -20.412   4.253  0.00  0.00    +0.005 A 
ENDBRANCH   3  10
ENDBRANCH   1   3
BRANCH   2  13
ATOM     13  N   LIG    1       26.975 -16.898   3.633  0.00  0.00    -0.231 N 
ATOM     14  H   LIG    1       27.523 -16.694   4.469  0.00  0.00    +0.171 HD
BRANCH  13  15
ATOM     15  N   LIG    1       26.446 -15.825   2.870  0.00  0.00    -0.225 NA
ATOM     16  C   LIG    1       25.131 -15.427   3.423  0.00  0.00    +0.109 C 
ATOM     17  C   LIG    1       25.115 -13.902   3.360  0.00  0.00    +0.009 C 
ATOM     18  C   LIG    1       26.569 -13.532   3.604  0.00  0.00    +0.009 C 
ATOM     19  C   LIG    1       26.670 -13.474   5.127  0.00  0.00    +0.005 C 
ATOM     20  C   LIG    1       25.355 -12.831   5.548  0.00  0.00    +0.001 C 
ATOM     21  C   LIG    1       24.328 -13.231   4.484  0.00  0.00    +0.005 C 
ATOM     22  C   LIG    1       27.353 -14.660   2.956  0.00  0.00    +0.109 C 
ENDBRANCH  13  15
ENDBRANCH   2  13
BRANCH   2  23
ATOM     23  O   LIG    1       25.881 -18.480   2.480  0.00  0.00    -0.480 OA
ATOM     24  H   LIG    1       25.548 -17.685   2.018  0.00  0.00    +0.295 HD
ENDBRANCH   2  23
TORSDOF 5
ENDMDL
MODEL 5
REMARK VINA RESULT:      -3.0      3.690      7.250
REMARK  Name = *****
REMARK                            x       y       z     vdW  Elec       q    Type
REMARK                         _______ _______ _______ _____ _____    ______ ____
ROOT
ATOM      1  N   LIG    1       28.427 -17.814   5.702  0.00  0.00    -0.075 NA
ATOM      2  C   LIG    1       28.035 -17.240   4.626  0.00  0.00    +0.313 C 
ENDROOT
BRANCH   1   3
ATOM      3  S   LIG    1       28.524 -19.429   5.770  0.00  0.00    +0.103 S 
ATOM      4  O   LIG    1       29.167 -19.923   4.564  0.00  0.00    -0.146 OA
ATOM      5  O   LIG    1       29.080 -19.787   7.062  0.00  0.00    -0.146 OA
BRANCH   3  10
ATOM      6  C   LIG    1       22.710 -21.156   5.974  0.00  0.00    +0.044 C 
ATOM      7  C   LIG    1       24.168 -20.808   5.898  0.00  0.00    -0.050 A 
ATOM      8  C   LIG    1       24.948 -20.821   7.062  0.00  0.00    +0.005 A 
ATOM      9  C   LIG    1       26.287 -20.439   7.018  0.00  0.00    +0.029 A 
ATOM     10  C   LIG    1       26.853 -20.054   5.802  0.00  0.00    +0.113 A 
ATOM     11  C   LIG    1       26.108 -20.097   4.619  0.00  0.00    +0.029 A 
ATOM     12  C   LIG    1       24.765 -20.482   4.671  0.00  0.00    +0.005 A 
ENDBRANCH   3  10
ENDBRANCH   1   3
BRANCH   2  13
ATOM     13  N   LIG    1       27.972 -15.884   4.438  0.00  0.00    -0.231 N 
ATOM     14  H   LIG    1       27.971 -15.339   5.300  0.00  0.00    +0.171 HD
BRANCH  13  15
ATOM     15  N   LIG    1       27.262 -15.400   3.309  0.00  0.00    -0.225 NA
ATOM     16  C   LIG    1       25.810 -15.606   3.513  0.00  0.00    +0.109 C 
ATOM     17  C   LIG    1       25.147 -14.342   2.973  0.00  0.00    +0.009 C 
ATOM     18  C   LIG    1       26.161 -13.257   3.295  0.00  0.00    +0.009 C 
ATOM     19  C   LIG    1       25.797 -12.844   4.720  0.00  0.00    +0.005 C 
ATOM     20  C   LIG    1       24.275 -12.871   4.723  0.00  0.00    +0.001 C 
ATOM     21  C   LIG    1       23.867 -13.938   3.702  0.00  0.00    +0.005 C 
ATOM     22  C   LIG    1       27.504 -13.950   3.155  0.00  0.00    +0.109 C 
ENDBRANCH  13  15
ENDBRANCH   2  13
BRANCH   2  23
ATOM     23  O   LIG    1       27.624 -17.909   3.538  0.00  0.00    -0.480 OA
ATOM     24  H   LIG    1       28.259 -17.677   2.833  0.00  0.00    +0.295 HD
ENDBRANCH   2  23
TORSDOF 5
ENDMDL
MODEL 6
REMARK VINA RESULT:      -2.5      2.983      4.105
REMARK  Name = *****
REMARK                            x       y       z     vdW  Elec       q    Type
REMARK                         _______ _______ _______ _____ _____    ______ ____
ROOT
ATOM      1  N   LIG    1       25.930 -18.559   4.838  0.00  0.00    -0.075 NA
ATOM      2  C   LIG    1       26.468 -19.655   5.227  0.00  0.00    +0.313 C 
ENDROOT
BRANCH   1   3
ATOM      3  S   LIG    1       26.604 -17.709   3.635  0.00  0.00    +0.103 S 
ATOM      4  O   LIG    1       28.015 -17.508   3.921  0.00  0.00    -0.146 OA
ATOM      5  O   LIG    1       26.222 -18.331   2.381  0.00  0.00    -0.146 OA
BRANCH   3  10
ATOM      6  C   LIG    1       23.996 -12.241   3.983  0.00  0.00    +0.044 C 
ATOM      7  C   LIG    1       24.627 -13.592   3.812  0.00  0.00    -0.050 A 
ATOM      8  C   LIG    1       23.880 -14.746   4.078  0.00  0.00    +0.005 A 
ATOM      9  C   LIG    1       24.470 -16.006   3.986  0.00  0.00    +0.029 A 
ATOM     10  C   LIG    1       25.811 -16.111   3.614  0.00  0.00    +0.113 A 
ATOM     11  C   LIG    1       26.554 -14.974   3.282  0.00  0.00    +0.029 A 
ATOM     12  C   LIG    1       25.954 -13.715   3.376  0.00  0.00    +0.005 A 
ENDBRANCH   3  10
ENDBRANCH   1   3
BRANCH   2  13
ATOM     13  N   LIG    1       25.952 -20.481   6.191  0.00  0.00    -0.231 N 
ATOM     14  H   LIG    1       26.636 -20.817   6.869  0.00  0.00    +0.171 HD
BRANCH  13  15
ATOM     15  N   LIG    1       24.857 -21.312   5.840  0.00  0.00    -0.225 NA
ATOM     16  C   LIG    1       23.598 -20.702   6.327  0.00  0.00    +0.109 C 
ATOM     17  C   LIG    1       22.585 -20.930   5.209  0.00  0.00    +0.009 C 
ATOM     18  C   LIG    1       23.434 -20.846   3.951  0.00  0.00    +0.009 C 
ATOM     19  C   LIG    1       23.453 -19.351   3.636  0.00  0.00    +0.005 C 
ATOM     20  C   LIG    1       22.035 -18.899   3.958  0.00  0.00    +0.001 C 
ATOM     21  C   LIG    1       21.537 -19.827   5.071  0.00  0.00    +0.005 C 
ATOM     22  C   LIG    1       24.774 -21.427   4.368  0.00  0.00    +0.109 C 
ENDBRANCH  13  15
ENDBRANCH   2  13
BRANCH   2  23
ATOM     23  O   LIG    1       27.623 -20.128   4.737  0.00  0.00    -0.480 OA
ATOM     24  H   LIG    1       27.545 -21.102   4.776  0.00  0.00    +0.295 HD
ENDBRANCH   2  23
TORSDOF 5
ENDMDL
MODEL 7
REMARK VINA RESULT:      -1.9      1.624      1.844
REMARK  Name = *****
REMARK                            x       y       z     vdW  Elec       q    Type
REMARK                         _______ _______ _______ _____ _____    ______ ____
ROOT
ATOM      1  N   LIG    1       23.282 -14.799   4.131  0.00  0.00    -0.075 NA
ATOM      2  C   LIG    1       23.826 -15.956   4.039  0.00  0.00    +0.313 C 
ENDROOT
BRANCH   1   3
ATOM      3  S   LIG    1       23.880 -13.553   3.287  0.00  0.00    +0.103 S 
ATOM      4  O   LIG    1       23.936 -13.909   1.879  0.00  0.00    -0.146 OA
ATOM      5  O   LIG    1       23.157 -12.359   3.683  0.00  0.00    -0.146 OA
BRANCH   3  10
ATOM      6  C   LIG    1       29.474 -12.229   5.231  0.00  0.00    +0.044 C 
ATOM      7  C   LIG    1       28.111 -12.639   4.757  0.00  0.00    -0.050 A 
ATOM      8  C   LIG    1       27.830 -12.666   3.385  0.00  0.00    +0.005 A 
ATOM      9  C   LIG    1       26.551 -12.984   2.933  0.00  0.00    +0.029 A 
ATOM     10  C   LIG    1       25.550 -13.288   3.857  0.00  0.00    +0.113 A 
ATOM     11  C   LIG    1       25.829 -13.330   5.227  0.00  0.00    +0.029 A 
ATOM     12  C   LIG    1       27.115 -13.011   5.672  0.00  0.00    +0.005 A 
ENDBRANCH   3  10
ENDBRANCH   1   3
BRANCH   2  13
ATOM     13  N   LIG    1       23.369 -17.088   4.660  0.00  0.00    -0.231 N 
ATOM     14  H   LIG    1       23.677 -17.194   5.626  0.00  0.00    +0.171 HD
BRANCH  13  15
ATOM     15  N   LIG    1       23.164 -18.246   3.865  0.00  0.00    -0.225 NA
ATOM     16  C   LIG    1       24.365 -19.110   3.932  0.00  0.00    +0.109 C 
ATOM     17  C   LIG    1       23.829 -20.536   4.018  0.00  0.00    +0.009 C 
ATOM     18  C   LIG    1       22.545 -20.373   4.815  0.00  0.00    +0.009 C 
ATOM     19  C   LIG    1       23.015 -20.457   6.266  0.00  0.00    +0.005 C 
ATOM     20  C   LIG    1       24.082 -21.543   6.234  0.00  0.00    +0.001 C 
ATOM     21  C   LIG    1       24.699 -21.490   4.833  0.00  0.00    +0.005 C 
ATOM     22  C   LIG    1       22.016 -19.013   4.393  0.00  0.00    +0.109 C 
ENDBRANCH  13  15
ENDBRANCH   2  13
BRANCH   2  23
ATOM     23  O   LIG    1       24.932 -16.198   3.320  0.00  0.00    -0.480 OA
ATOM     24  H   LIG    1       25.681 -15.999   3.918  0.00  0.00    +0.295 HD
ENDBRANCH   2  23
TORSDOF 5
ENDMDL
