MODEL 1
REMARK VINA RESULT:       6.6      0.000      0.000
REMARK  Name = *****
REMARK                            x       y       z     vdW  Elec       q    Type
REMARK                         _______ _______ _______ _____ _____    ______ ____
ROOT
ATOM      1  C   LIG    1       25.568 -14.321   5.761  0.00  0.00    +0.015 C 
ATOM      2  C   LIG    1       25.512 -14.348   4.225  0.00  0.00    +0.013 C 
ATOM      3  C   LIG    1       26.181 -13.070   3.604  0.00  0.00    +0.132 C 
ATOM      4  C   LIG    1       25.656 -13.075   2.159  0.00  0.00    +0.043 C 
ATOM      5  C   LIG    1       24.274 -13.736   2.221  0.00  0.00    +0.007 C 
ATOM      6  C   LIG    1       24.063 -14.177   3.689  0.00  0.00    +0.002 C 
ATOM      7  C   LIG    1       23.110 -15.383   3.813  0.00  0.00    +0.004 C 
ATOM      8  C   LIG    1       22.412 -15.458   5.195  0.00  0.00    +0.009 C 
ATOM      9  C   LIG    1       22.558 -16.766   5.980  0.00  0.00    +0.032 C 
ATOM     10  C   LIG    1       22.578 -18.035   5.166  0.00  0.00    -0.056 C 
ATOM     11  C   LIG    1       22.761 -17.914   3.659  0.00  0.00    +0.017 C 
ATOM     12  C   LIG    1       21.365 -17.691   3.013  0.00  0.00    +0.021 C 
ATOM     13  C   LIG    1       23.252 -19.212   3.035  0.00  0.00    -0.012 C 
ATOM     14  C   LIG    1       23.262 -20.391   3.671  0.00  0.00    +0.047 C 
ATOM     15  C   LIG    1       22.823 -20.494   5.082  0.00  0.00    +0.179 C 
ATOM     16  O   LIG    1       22.703 -21.572   5.634  0.00  0.00    -0.288 OA
ATOM     17  C   LIG    1       22.580 -19.222   5.803  0.00  0.00    +0.051 C 
ATOM     18  C   LIG    1       23.725 -16.722   3.352  0.00  0.00    +0.072 C 
ATOM     19  C   LIG    1       25.144 -16.858   3.933  0.00  0.00    +0.138 C 
ATOM     20  O   LIG    1       25.563 -17.892   4.453  0.00  0.00    -0.297 OA
ATOM     21  C   LIG    1       26.098 -15.685   3.719  0.00  0.00    +0.084 C 
ENDROOT
BRANCH   3  22
ATOM     22  O   LIG    1       25.617 -11.913   4.245  0.00  0.00    -0.380 OA
ATOM     23  H   LIG    1       26.343 -11.360   4.595  0.00  0.00    +0.211 HD
ENDBRANCH   3  22
BRANCH   3  24
ATOM     24  C   LIG    1       27.726 -12.976   3.647  0.00  0.00    +0.190 C 
ATOM     25  O   LIG    1       28.422 -13.087   2.634  0.00  0.00    -0.292 OA
BRANCH  24  26
ATOM     26  C   LIG    1       28.371 -12.597   4.978  0.00  0.00    +0.233 C 
BRANCH  26  27
ATOM     27  O   LIG    1       29.474 -11.726   4.755  0.00  0.00    -0.387 OA
ATOM     28  H   LIG    1       29.701 -11.331   5.618  0.00  0.00    +0.210 HD
ENDBRANCH  26  27
ENDBRANCH  24  26
ENDBRANCH   3  24
TORSDOF 4
ENDMDL
MODEL 2
REMARK VINA RESULT:       8.8      1.986      7.021
REMARK  Name = *****
REMARK                            x       y       z     vdW  Elec       q    Type
REMARK                         _______ _______ _______ _____ _____    ______ ____
ROOT
ATOM      1  C   LIG    1       25.316 -19.225   5.859  0.00  0.00    +0.015 C 
ATOM      2  C   LIG    1       24.590 -19.259   4.504  0.00  0.00    +0.013 C 
ATOM      3  C   LIG    1       24.166 -20.721   4.118  0.00  0.00    +0.132 C 
ATOM      4  C   LIG    1       23.868 -20.607   2.613  0.00  0.00    +0.043 C 
ATOM      5  C   LIG    1       24.792 -19.500   2.091  0.00  0.00    +0.007 C 
ATOM      6  C   LIG    1       25.544 -18.937   3.320  0.00  0.00    +0.002 C 
ATOM      7  C   LIG    1       25.973 -17.468   3.130  0.00  0.00    +0.004 C 
ATOM      8  C   LIG    1       27.195 -17.080   4.002  0.00  0.00    +0.009 C 
ATOM      9  C   LIG    1       27.035 -15.870   4.927  0.00  0.00    +0.032 C 
ATOM     10  C   LIG    1       26.197 -14.732   4.400  0.00  0.00    -0.056 C 
ATOM     11  C   LIG    1       25.342 -14.987   3.166  0.00  0.00    +0.017 C 
ATOM     12  C   LIG    1       26.216 -14.738   1.905  0.00  0.00    +0.021 C 
ATOM     13  C   LIG    1       24.210 -13.980   3.034  0.00  0.00    -0.012 C 
ATOM     14  C   LIG    1       24.129 -12.848   3.747  0.00  0.00    +0.047 C 
ATOM     15  C   LIG    1       25.147 -12.525   4.773  0.00  0.00    +0.179 C 
ATOM     16  O   LIG    1       25.162 -11.447   5.337  0.00  0.00    -0.288 OA
ATOM     17  C   LIG    1       26.120 -13.591   5.111  0.00  0.00    +0.051 C 
ATOM     18  C   LIG    1       24.809 -16.457   3.205  0.00  0.00    +0.072 C 
ATOM     19  C   LIG    1       23.912 -16.799   4.409  0.00  0.00    +0.138 C 
ATOM     20  O   LIG    1       23.492 -15.953   5.198  0.00  0.00    -0.297 OA
ATOM     21  C   LIG    1       23.427 -18.242   4.525  0.00  0.00    +0.084 C 
ENDROOT
BRANCH   3  22
ATOM     22  O   LIG    1       25.318 -21.571   4.247  0.00  0.00    -0.380 OA
ATOM     23  H   LIG    1       25.610 -21.567   5.181  0.00  0.00    +0.211 HD
ENDBRANCH   3  22
BRANCH   3  24
ATOM     24  C   LIG    1       22.978 -21.351   4.885  0.00  0.00    +0.190 C 
ATOM     25  O   LIG    1       23.018 -21.569   6.100  0.00  0.00    -0.292 OA
BRANCH  24  26
ATOM     26  C   LIG    1       21.679 -21.572   4.114  0.00  0.00    +0.233 C 
BRANCH  26  27
ATOM     27  O   LIG    1       20.733 -20.565   4.452  0.00  0.00    -0.387 OA
ATOM     28  H   LIG    1       21.068 -19.726   4.083  0.00  0.00    +0.210 HD
ENDBRANCH  26  27
ENDBRANCH  24  26
ENDBRANCH   3  24
TORSDOF 4
ENDMDL
MODEL 3
REMARK VINA RESULT:       9.4      1.447      6.755
REMARK  Name = *****
REMARK                            x       y       z     vdW  Elec       q    Type
REMARK                         _______ _______ _______ _____ _____    ______ ____
ROOT
ATOM      1  C   LIG    1       23.305 -18.082   2.196  0.00  0.00    +0.015 C 
ATOM      2  C   LIG    1       23.460 -18.178   3.723  0.00  0.00    +0.013 C 
ATOM      3  C   LIG    1       22.771 -19.471   4.290  0.00  0.00    +0.132 C 
ATOM      4  C   LIG    1       22.660 -19.170   5.793  0.00  0.00    +0.043 C 
ATOM      5  C   LIG    1       22.517 -17.647   5.903  0.00  0.00    +0.007 C 
ATOM      6  C   LIG    1       22.634 -17.090   4.465  0.00  0.00    +0.002 C 
ATOM      7  C   LIG    1       23.170 -15.644   4.432  0.00  0.00    +0.004 C 
ATOM      8  C   LIG    1       22.735 -14.870   3.161  0.00  0.00    +0.009 C 
ATOM      9  C   LIG    1       23.846 -14.239   2.316  0.00  0.00    +0.032 C 
ATOM     10  C   LIG    1       25.026 -13.683   3.070  0.00  0.00    -0.056 C 
ATOM     11  C   LIG    1       25.173 -14.055   4.540  0.00  0.00    +0.017 C 
ATOM     12  C   LIG    1       24.342 -13.049   5.385  0.00  0.00    +0.021 C 
ATOM     13  C   LIG    1       26.598 -13.866   5.040  0.00  0.00    -0.012 C 
ATOM     14  C   LIG    1       27.545 -13.200   4.365  0.00  0.00    +0.047 C 
ATOM     15  C   LIG    1       27.263 -12.629   3.028  0.00  0.00    +0.179 C 
ATOM     16  O   LIG    1       28.066 -11.914   2.459  0.00  0.00    -0.288 OA
ATOM     17  C   LIG    1       25.976 -13.006   2.397  0.00  0.00    +0.051 C 
ATOM     18  C   LIG    1       24.675 -15.522   4.751  0.00  0.00    +0.072 C 
ATOM     19  C   LIG    1       25.450 -16.599   3.971  0.00  0.00    +0.138 C 
ATOM     20  O   LIG    1       26.494 -16.367   3.359  0.00  0.00    -0.297 OA
ATOM     21  C   LIG    1       24.953 -18.037   4.091  0.00  0.00    +0.084 C 
ENDROOT
BRANCH   3  22
ATOM     22  O   LIG    1       21.428 -19.523   3.779  0.00  0.00    -0.380 OA
ATOM     23  H   LIG    1       21.072 -18.613   3.732  0.00  0.00    +0.211 HD
ENDBRANCH   3  22
BRANCH   3  24
ATOM     24  C   LIG    1       23.469 -20.828   4.032  0.00  0.00    +0.190 C 
ATOM     25  O   LIG    1       23.667 -21.263   2.894  0.00  0.00    -0.292 OA
BRANCH  24  26
ATOM     26  C   LIG    1       24.043 -21.565   5.239  0.00  0.00    +0.233 C 
BRANCH  26  27
ATOM     27  O   LIG    1       25.465 -21.528   5.203  0.00  0.00    -0.387 OA
ATOM     28  H   LIG    1       25.735 -20.668   5.576  0.00  0.00    +0.210 HD
ENDBRANCH  26  27
ENDBRANCH  24  26
ENDBRANCH   3  24
TORSDOF 4
ENDMDL
