MODEL 1
REMARK VINA RESULT:      -0.9      0.000      0.000
REMARK  Name = *****
REMARK                            x       y       z     vdW  Elec       q    Type
REMARK                         _______ _______ _______ _____ _____    ______ ____
ROOT
ATOM      1  C   LIG    1       25.828 -16.146   3.703  0.00  0.00    +0.093 A 
ATOM      2  C   LIG    1       24.456 -16.204   3.935  0.00  0.00    +0.060 A 
ATOM      3  N   LIG    1       24.146 -17.559   3.862  0.00  0.00    -0.302 N 
ATOM      4  C   LIG    1       25.325 -18.228   3.554  0.00  0.00    +0.139 A 
ATOM      5  C   LIG    1       25.264 -19.642   3.412  0.00  0.00    +0.047 A 
ATOM      6  C   LIG    1       24.103 -20.289   3.625  0.00  0.00    +0.008 A 
ATOM      7  C   LIG    1       22.887 -19.575   4.003  0.00  0.00    -0.034 A 
ATOM      8  C   LIG    1       21.664 -20.390   4.279  0.00  0.00    +0.045 C 
ATOM      9  C   LIG    1       22.939 -18.232   4.097  0.00  0.00    +0.096 A 
ATOM     10  N   LIG    1       26.343 -17.405   3.481  0.00  0.00    -0.228 NA
ENDROOT
BRANCH   1  15
ATOM     11  C   LIG    1       29.413 -11.603   3.916  0.00  0.00    +0.044 C 
ATOM     12  C   LIG    1       28.479 -12.776   3.862  0.00  0.00    -0.050 A 
ATOM     13  C   LIG    1       27.937 -13.190   2.642  0.00  0.00    +0.004 A 
ATOM     14  C   LIG    1       27.088 -14.300   2.577  0.00  0.00    +0.010 A 
ATOM     15  C   LIG    1       26.711 -14.984   3.735  0.00  0.00    +0.002 A 
ATOM     16  C   LIG    1       27.246 -14.554   4.961  0.00  0.00    +0.010 A 
ATOM     17  C   LIG    1       28.121 -13.462   5.026  0.00  0.00    +0.004 A 
ENDBRANCH   1  15
BRANCH   2  18
ATOM     18  C   LIG    1       23.432 -15.171   4.307  0.00  0.00    +0.152 C 
BRANCH  18  19
ATOM     19  C   LIG    1       23.536 -13.893   3.462  0.00  0.00    +0.221 C 
ATOM     20  N   LIG    1       23.983 -12.742   4.118  0.00  0.00    -0.307 N 
ATOM     21  C   LIG    1       23.768 -11.450   3.483  0.00  0.00    +0.131 C 
ATOM     22  C   LIG    1       24.361 -12.713   5.522  0.00  0.00    +0.131 C 
ATOM     23  O   LIG    1       23.226 -13.876   2.264  0.00  0.00    -0.275 OA
ENDBRANCH  18  19
ENDBRANCH   2  18
TORSDOF 3
ENDMDL
MODEL 2
REMARK VINA RESULT:      -0.7      2.342      7.145
REMARK  Name = *****
REMARK                            x       y       z     vdW  Elec       q    Type
REMARK                         _______ _______ _______ _____ _____    ______ ____
ROOT
ATOM      1  C   LIG    1       24.663 -16.962   3.911  0.00  0.00    +0.093 A 
ATOM      2  C   LIG    1       26.032 -16.952   3.652  0.00  0.00    +0.060 A 
ATOM      3  N   LIG    1       26.377 -15.604   3.655  0.00  0.00    -0.302 N 
ATOM      4  C   LIG    1       25.207 -14.886   3.871  0.00  0.00    +0.139 A 
ATOM      5  C   LIG    1       25.299 -13.467   3.904  0.00  0.00    +0.047 A 
ATOM      6  C   LIG    1       26.498 -12.868   3.780  0.00  0.00    +0.008 A 
ATOM      7  C   LIG    1       27.725 -13.642   3.610  0.00  0.00    -0.034 A 
ATOM      8  C   LIG    1       29.015 -12.886   3.544  0.00  0.00    +0.045 C 
ATOM      9  C   LIG    1       27.629 -14.984   3.537  0.00  0.00    +0.096 A 
ATOM     10  N   LIG    1       24.179 -15.680   4.052  0.00  0.00    -0.228 NA
ENDROOT
BRANCH   1  15
ATOM     11  C   LIG    1       21.252 -21.571   4.722  0.00  0.00    +0.044 C 
ATOM     12  C   LIG    1       22.135 -20.377   4.506  0.00  0.00    -0.050 A 
ATOM     13  C   LIG    1       21.619 -19.086   4.644  0.00  0.00    +0.004 A 
ATOM     14  C   LIG    1       22.440 -17.967   4.471  0.00  0.00    +0.010 A 
ATOM     15  C   LIG    1       23.779 -18.109   4.097  0.00  0.00    +0.002 A 
ATOM     16  C   LIG    1       24.288 -19.409   3.944  0.00  0.00    +0.010 A 
ATOM     17  C   LIG    1       23.476 -20.533   4.147  0.00  0.00    +0.004 A 
ENDBRANCH   1  15
BRANCH   2  18
ATOM     18  C   LIG    1       27.058 -18.038   3.502  0.00  0.00    +0.152 C 
BRANCH  18  19
ATOM     19  C   LIG    1       27.999 -18.145   4.710  0.00  0.00    +0.221 C 
ATOM     20  N   LIG    1       27.891 -19.301   5.488  0.00  0.00    -0.307 N 
ATOM     21  C   LIG    1       28.484 -19.305   6.817  0.00  0.00    +0.131 C 
ATOM     22  C   LIG    1       26.966 -20.384   5.195  0.00  0.00    +0.131 C 
ATOM     23  O   LIG    1       28.803 -17.248   4.993  0.00  0.00    -0.275 OA
ENDBRANCH  18  19
ENDBRANCH   2  18
TORSDOF 3
ENDMDL
MODEL 3
REMARK VINA RESULT:       0.6      2.398      4.363
REMARK  Name = *****
REMARK                            x       y       z     vdW  Elec       q    Type
REMARK                         _______ _______ _______ _____ _____    ______ ____
ROOT
ATOM      1  C   LIG    1       24.911 -16.587   3.873  0.00  0.00    +0.093 A 
ATOM      2  C   LIG    1       25.145 -17.960   3.907  0.00  0.00    +0.060 A 
ATOM      3  N   LIG    1       23.885 -18.523   4.089  0.00  0.00    -0.302 N 
ATOM      4  C   LIG    1       22.982 -17.472   4.194  0.00  0.00    +0.139 A 
ATOM      5  C   LIG    1       21.612 -17.797   4.400  0.00  0.00    +0.047 A 
ATOM      6  C   LIG    1       21.225 -19.085   4.436  0.00  0.00    +0.008 A 
ATOM      7  C   LIG    1       22.181 -20.176   4.266  0.00  0.00    -0.034 A 
ATOM      8  C   LIG    1       21.642 -21.572   4.259  0.00  0.00    +0.045 C 
ATOM      9  C   LIG    1       23.483 -19.866   4.113  0.00  0.00    +0.096 A 
ATOM     10  N   LIG    1       23.572 -16.311   4.041  0.00  0.00    -0.228 NA
ENDROOT
BRANCH   1  15
ATOM     11  C   LIG    1       28.584 -12.207   2.942  0.00  0.00    +0.044 C 
ATOM     12  C   LIG    1       27.634 -13.344   3.177  0.00  0.00    -0.050 A 
ATOM     13  C   LIG    1       28.061 -14.490   3.854  0.00  0.00    +0.004 A 
ATOM     14  C   LIG    1       27.175 -15.544   4.103  0.00  0.00    +0.010 A 
ATOM     15  C   LIG    1       25.861 -15.505   3.629  0.00  0.00    +0.002 A 
ATOM     16  C   LIG    1       25.442 -14.358   2.935  0.00  0.00    +0.010 A 
ATOM     17  C   LIG    1       26.318 -13.287   2.711  0.00  0.00    +0.004 A 
ENDBRANCH   1  15
BRANCH   2  18
ATOM     18  C   LIG    1       26.372 -18.799   3.695  0.00  0.00    +0.152 C 
BRANCH  18  19
ATOM     19  C   LIG    1       26.698 -19.696   4.898  0.00  0.00    +0.221 C 
ATOM     20  N   LIG    1       27.900 -19.439   5.564  0.00  0.00    -0.307 N 
ATOM     21  C   LIG    1       28.429 -20.453   6.464  0.00  0.00    +0.131 C 
ATOM     22  C   LIG    1       28.816 -18.374   5.187  0.00  0.00    +0.131 C 
ATOM     23  O   LIG    1       25.945 -20.611   5.253  0.00  0.00    -0.275 OA
ENDBRANCH  18  19
ENDBRANCH   2  18
TORSDOF 3
ENDMDL
MODEL 4
REMARK VINA RESULT:       0.6      2.244      7.161
REMARK  Name = *****
REMARK                            x       y       z     vdW  Elec       q    Type
REMARK                         _______ _______ _______ _____ _____    ______ ____
ROOT
ATOM      1  C   LIG    1       23.939 -17.012   4.052  0.00  0.00    +0.093 A 
ATOM      2  C   LIG    1       25.250 -17.007   3.582  0.00  0.00    +0.060 A 
ATOM      3  N   LIG    1       25.635 -15.671   3.637  0.00  0.00    -0.302 N 
ATOM      4  C   LIG    1       24.537 -14.951   4.092  0.00  0.00    +0.139 A 
ATOM      5  C   LIG    1       24.680 -13.541   4.223  0.00  0.00    +0.047 A 
ATOM      6  C   LIG    1       25.864 -12.959   3.958  0.00  0.00    +0.008 A 
ATOM      7  C   LIG    1       27.023 -13.740   3.535  0.00  0.00    -0.034 A 
ATOM      8  C   LIG    1       28.311 -13.007   3.326  0.00  0.00    +0.045 C 
ATOM      9  C   LIG    1       26.873 -15.068   3.372  0.00  0.00    +0.096 A 
ATOM     10  N   LIG    1       23.525 -15.737   4.370  0.00  0.00    -0.228 NA
ENDROOT
BRANCH   1  15
ATOM     11  C   LIG    1       20.426 -21.548   4.839  0.00  0.00    +0.044 C 
ATOM     12  C   LIG    1       21.333 -20.370   4.639  0.00  0.00    -0.050 A 
ATOM     13  C   LIG    1       22.502 -20.245   5.394  0.00  0.00    +0.004 A 
ATOM     14  C   LIG    1       23.368 -19.164   5.196  0.00  0.00    +0.010 A 
ATOM     15  C   LIG    1       23.057 -18.152   4.285  0.00  0.00    +0.002 A 
ATOM     16  C   LIG    1       21.872 -18.275   3.540  0.00  0.00    +0.010 A 
ATOM     17  C   LIG    1       21.017 -19.372   3.714  0.00  0.00    +0.004 A 
ENDBRANCH   1  15
BRANCH   2  18
ATOM     18  C   LIG    1       26.203 -18.097   3.185  0.00  0.00    +0.152 C 
BRANCH  18  19
ATOM     19  C   LIG    1       26.518 -19.065   4.334  0.00  0.00    +0.221 C 
ATOM     20  N   LIG    1       27.695 -18.826   5.051  0.00  0.00    -0.307 N 
ATOM     21  C   LIG    1       28.224 -19.886   5.896  0.00  0.00    +0.131 C 
ATOM     22  C   LIG    1       28.595 -17.718   4.772  0.00  0.00    +0.131 C 
ATOM     23  O   LIG    1       25.779 -20.019   4.605  0.00  0.00    -0.275 OA
ENDBRANCH  18  19
ENDBRANCH   2  18
TORSDOF 3
ENDMDL
MODEL 5
REMARK VINA RESULT:       1.5      2.185      4.095
REMARK  Name = *****
REMARK                            x       y       z     vdW  Elec       q    Type
REMARK                         _______ _______ _______ _____ _____    ______ ____
ROOT
ATOM      1  C   LIG    1       25.083 -16.045   4.001  0.00  0.00    +0.093 A 
ATOM      2  C   LIG    1       25.207 -17.418   3.804  0.00  0.00    +0.060 A 
ATOM      3  N   LIG    1       23.918 -17.913   3.981  0.00  0.00    -0.302 N 
ATOM      4  C   LIG    1       23.110 -16.832   4.311  0.00  0.00    +0.139 A 
ATOM      5  C   LIG    1       21.732 -17.088   4.556  0.00  0.00    +0.047 A 
ATOM      6  C   LIG    1       21.245 -18.334   4.416  0.00  0.00    +0.008 A 
ATOM      7  C   LIG    1       22.099 -19.448   4.013  0.00  0.00    -0.034 A 
ATOM      8  C   LIG    1       21.450 -20.783   3.824  0.00  0.00    +0.045 C 
ATOM      9  C   LIG    1       23.411 -19.210   3.822  0.00  0.00    +0.096 A 
ATOM     10  N   LIG    1       23.782 -15.706   4.302  0.00  0.00    -0.228 NA
ENDROOT
BRANCH   1  15
ATOM     11  C   LIG    1       29.187 -11.981   3.576  0.00  0.00    +0.044 C 
ATOM     12  C   LIG    1       28.119 -13.029   3.686  0.00  0.00    -0.050 A 
ATOM     13  C   LIG    1       27.685 -13.714   2.548  0.00  0.00    +0.004 A 
ATOM     14  C   LIG    1       26.711 -14.713   2.643  0.00  0.00    +0.010 A 
ATOM     15  C   LIG    1       26.102 -15.008   3.866  0.00  0.00    +0.002 A 
ATOM     16  C   LIG    1       26.531 -14.304   5.004  0.00  0.00    +0.010 A 
ATOM     17  C   LIG    1       27.529 -13.325   4.917  0.00  0.00    +0.004 A 
ENDBRANCH   1  15
BRANCH   2  18
ATOM     18  C   LIG    1       26.348 -18.297   3.381  0.00  0.00    +0.152 C 
BRANCH  18  19
ATOM     19  C   LIG    1       27.332 -18.591   4.522  0.00  0.00    +0.221 C 
ATOM     20  N   LIG    1       27.100 -19.751   5.267  0.00  0.00    -0.307 N 
ATOM     21  C   LIG    1       27.763 -19.898   6.554  0.00  0.00    +0.131 C 
ATOM     22  C   LIG    1       26.007 -20.673   4.999  0.00  0.00    +0.131 C 
ATOM     23  O   LIG    1       28.276 -17.835   4.781  0.00  0.00    -0.275 OA
ENDBRANCH  18  19
ENDBRANCH   2  18
TORSDOF 3
ENDMDL
MODEL 6
REMARK VINA RESULT:       2.1      2.728      6.090
REMARK  Name = *****
REMARK                            x       y       z     vdW  Elec       q    Type
REMARK                         _______ _______ _______ _____ _____    ______ ____
ROOT
ATOM      1  C   LIG    1       27.130 -16.620   4.429  0.00  0.00    +0.093 A 
ATOM      2  C   LIG    1       25.823 -16.295   4.072  0.00  0.00    +0.060 A 
ATOM      3  N   LIG    1       25.912 -15.003   3.561  0.00  0.00    -0.302 N 
ATOM      4  C   LIG    1       27.241 -14.613   3.676  0.00  0.00    +0.139 A 
ATOM      5  C   LIG    1       27.587 -13.308   3.226  0.00  0.00    +0.047 A 
ATOM      6  C   LIG    1       26.650 -12.520   2.666  0.00  0.00    +0.008 A 
ATOM      7  C   LIG    1       25.271 -12.970   2.503  0.00  0.00    -0.034 A 
ATOM      8  C   LIG    1       24.319 -12.044   1.812  0.00  0.00    +0.045 C 
ATOM      9  C   LIG    1       24.938 -14.190   2.967  0.00  0.00    +0.096 A 
ATOM     10  N   LIG    1       27.987 -15.573   4.166  0.00  0.00    -0.228 NA
ENDROOT
BRANCH   1  15
ATOM     11  C   LIG    1       29.233 -21.560   6.600  0.00  0.00    +0.044 C 
ATOM     12  C   LIG    1       28.690 -20.281   6.032  0.00  0.00    -0.050 A 
ATOM     13  C   LIG    1       27.394 -20.235   5.513  0.00  0.00    +0.004 A 
ATOM     14  C   LIG    1       26.869 -19.042   5.006  0.00  0.00    +0.010 A 
ATOM     15  C   LIG    1       27.647 -17.882   4.949  0.00  0.00    +0.002 A 
ATOM     16  C   LIG    1       28.955 -17.938   5.458  0.00  0.00    +0.010 A 
ATOM     17  C   LIG    1       29.474 -19.124   5.995  0.00  0.00    +0.004 A 
ENDBRANCH   1  15
BRANCH   2  18
ATOM     18  C   LIG    1       24.538 -17.071   4.061  0.00  0.00    +0.152 C 
BRANCH  18  19
ATOM     19  C   LIG    1       24.653 -18.411   3.321  0.00  0.00    +0.221 C 
ATOM     20  N   LIG    1       23.769 -19.421   3.712  0.00  0.00    -0.307 N 
ATOM     21  C   LIG    1       24.055 -20.791   3.313  0.00  0.00    +0.131 C 
ATOM     22  C   LIG    1       22.761 -19.251   4.746  0.00  0.00    +0.131 C 
ATOM     23  O   LIG    1       25.495 -18.596   2.434  0.00  0.00    -0.275 OA
ENDBRANCH  18  19
ENDBRANCH   2  18
TORSDOF 3
ENDMDL
