MODEL 1
REMARK VINA RESULT:      -8.4      0.000      0.000
REMARK  Name = *****
REMARK                            x       y       z     vdW  Elec       q    Type
REMARK                         _______ _______ _______ _____ _____    ______ ____
ROOT
ATOM      1  C   LIG    1       25.797 -26.654   4.586  0.00  0.00    +0.192 C 
ATOM      2  N   LIG    1       25.256 -25.681   5.635  0.00  0.00    +0.239 N 
ATOM      3  C   LIG    1       24.330 -24.669   4.925  0.00  0.00    +0.137 C 
ATOM      4  C   LIG    1       23.913 -23.515   5.844  0.00  0.00    +0.082 C 
ATOM      5  C   LIG    1       25.134 -22.813   6.418  0.00  0.00    -0.051 C 
ATOM      6  C   LIG    1       25.415 -21.495   6.246  0.00  0.00    -0.011 C 
ATOM      7  C   LIG    1       26.012 -23.790   7.181  0.00  0.00    +0.082 C 
ATOM      8  C   LIG    1       26.454 -24.948   6.278  0.00  0.00    +0.137 C 
ATOM      9  C   LIG    1       24.489 -26.494   6.672  0.00  0.00    +0.192 C 
ENDROOT
BRANCH   6  10
ATOM     10  C   LIG    1       26.646 -20.921   6.835  0.00  0.00    -0.017 A 
ATOM     11  C   LIG    1       26.675 -20.539   8.183  0.00  0.00    +0.008 A 
ATOM     12  C   LIG    1       27.834 -19.987   8.732  0.00  0.00    +0.001 A 
ATOM     13  C   LIG    1       28.968 -19.816   7.939  0.00  0.00    +0.000 A 
ATOM     14  C   LIG    1       28.949 -20.201   6.599  0.00  0.00    +0.001 A 
ATOM     15  C   LIG    1       27.792 -20.752   6.047  0.00  0.00    +0.008 A 
ENDBRANCH   6  10
BRANCH   6  16
ATOM     16  C   LIG    1       24.493 -20.637   5.469  0.00  0.00    -0.017 A 
ATOM     17  C   LIG    1       24.847 -20.202   4.185  0.00  0.00    +0.008 A 
ATOM     18  C   LIG    1       23.983 -19.385   3.456  0.00  0.00    +0.001 A 
ATOM     19  C   LIG    1       22.761 -18.998   4.005  0.00  0.00    +0.000 A 
ATOM     20  C   LIG    1       22.398 -19.430   5.280  0.00  0.00    +0.001 A 
ATOM     21  C   LIG    1       23.260 -20.250   6.011  0.00  0.00    +0.008 A 
ENDBRANCH   6  16
TORSDOF 2
ENDMDL
MODEL 2
REMARK VINA RESULT:      -6.2      5.259      9.065
REMARK  Name = *****
REMARK                            x       y       z     vdW  Elec       q    Type
REMARK                         _______ _______ _______ _____ _____    ______ ____
ROOT
ATOM      1  C   LIG    1       23.839 -33.824   4.470  0.00  0.00    +0.192 C 
ATOM      2  N   LIG    1       24.951 -33.078   5.210  0.00  0.00    +0.239 N 
ATOM      3  C   LIG    1       24.604 -33.063   6.715  0.00  0.00    +0.137 C 
ATOM      4  C   LIG    1       25.535 -32.148   7.519  0.00  0.00    +0.082 C 
ATOM      5  C   LIG    1       25.527 -30.737   6.953  0.00  0.00    -0.051 C 
ATOM      6  C   LIG    1       25.171 -29.629   7.654  0.00  0.00    -0.011 C 
ATOM      7  C   LIG    1       25.939 -30.737   5.491  0.00  0.00    +0.082 C 
ATOM      8  C   LIG    1       25.013 -31.635   4.663  0.00  0.00    +0.137 C 
ATOM      9  C   LIG    1       26.259 -33.820   4.955  0.00  0.00    +0.192 C 
ENDROOT
BRANCH   6  10
ATOM     10  C   LIG    1       25.180 -28.303   6.994  0.00  0.00    -0.017 A 
ATOM     11  C   LIG    1       26.219 -27.396   7.242  0.00  0.00    +0.008 A 
ATOM     12  C   LIG    1       26.220 -26.143   6.626  0.00  0.00    +0.001 A 
ATOM     13  C   LIG    1       25.185 -25.791   5.760  0.00  0.00    +0.000 A 
ATOM     14  C   LIG    1       24.152 -26.692   5.503  0.00  0.00    +0.001 A 
ATOM     15  C   LIG    1       24.148 -27.945   6.117  0.00  0.00    +0.008 A 
ENDBRANCH   6  10
BRANCH   6  16
ATOM     16  C   LIG    1       24.771 -29.748   9.075  0.00  0.00    -0.017 A 
ATOM     17  C   LIG    1       23.470 -30.146   9.410  0.00  0.00    +0.008 A 
ATOM     18  C   LIG    1       23.090 -30.248  10.748  0.00  0.00    +0.001 A 
ATOM     19  C   LIG    1       24.005 -29.955  11.758  0.00  0.00    +0.000 A 
ATOM     20  C   LIG    1       25.304 -29.564  11.433  0.00  0.00    +0.001 A 
ATOM     21  C   LIG    1       25.688 -29.462  10.094  0.00  0.00    +0.008 A 
ENDBRANCH   6  16
TORSDOF 2
ENDMDL
MODEL 3
REMARK VINA RESULT:      -6.2      5.028      8.070
REMARK  Name = *****
REMARK                            x       y       z     vdW  Elec       q    Type
REMARK                         _______ _______ _______ _____ _____    ______ ____
ROOT
ATOM      1  C   LIG    1       27.383 -33.453   5.076  0.00  0.00    +0.192 C 
ATOM      2  N   LIG    1       26.139 -32.759   5.634  0.00  0.00    +0.239 N 
ATOM      3  C   LIG    1       26.014 -31.375   4.961  0.00  0.00    +0.137 C 
ATOM      4  C   LIG    1       24.931 -30.506   5.611  0.00  0.00    +0.082 C 
ATOM      5  C   LIG    1       25.181 -30.355   7.103  0.00  0.00    -0.051 C 
ATOM      6  C   LIG    1       25.364 -29.167   7.736  0.00  0.00    -0.011 C 
ATOM      7  C   LIG    1       25.232 -31.713   7.783  0.00  0.00    +0.082 C 
ATOM      8  C   LIG    1       26.318 -32.596   7.160  0.00  0.00    +0.137 C 
ATOM      9  C   LIG    1       24.934 -33.637   5.314  0.00  0.00    +0.192 C 
ENDROOT
BRANCH   6  10
ATOM     10  C   LIG    1       25.622 -29.141   9.194  0.00  0.00    -0.017 A 
ATOM     11  C   LIG    1       24.603 -29.466  10.100  0.00  0.00    +0.008 A 
ATOM     12  C   LIG    1       24.846 -29.429  11.474  0.00  0.00    +0.001 A 
ATOM     13  C   LIG    1       26.107 -29.070  11.949  0.00  0.00    +0.000 A 
ATOM     14  C   LIG    1       27.127 -28.752  11.054  0.00  0.00    +0.001 A 
ATOM     15  C   LIG    1       26.887 -28.787   9.680  0.00  0.00    +0.008 A 
ENDBRANCH   6  10
BRANCH   6  16
ATOM     16  C   LIG    1       25.308 -27.903   6.968  0.00  0.00    -0.017 A 
ATOM     17  C   LIG    1       26.422 -27.055   6.924  0.00  0.00    +0.008 A 
ATOM     18  C   LIG    1       26.366 -25.858   6.209  0.00  0.00    +0.001 A 
ATOM     19  C   LIG    1       25.199 -25.502   5.535  0.00  0.00    +0.000 A 
ATOM     20  C   LIG    1       24.087 -26.343   5.570  0.00  0.00    +0.001 A 
ATOM     21  C   LIG    1       24.140 -27.542   6.283  0.00  0.00    +0.008 A 
ENDBRANCH   6  16
TORSDOF 2
ENDMDL
MODEL 4
REMARK VINA RESULT:      -5.9      5.855     10.011
REMARK  Name = *****
REMARK                            x       y       z     vdW  Elec       q    Type
REMARK                         _______ _______ _______ _____ _____    ______ ____
ROOT
ATOM      1  C   LIG    1       24.853 -31.643  12.614  0.00  0.00    +0.192 C 
ATOM      2  N   LIG    1       24.109 -31.620  11.278  0.00  0.00    +0.239 N 
ATOM      3  C   LIG    1       24.848 -32.557  10.297  0.00  0.00    +0.137 C 
ATOM      4  C   LIG    1       24.319 -32.435   8.863  0.00  0.00    +0.082 C 
ATOM      5  C   LIG    1       24.387 -30.994   8.382  0.00  0.00    -0.051 C 
ATOM      6  C   LIG    1       25.082 -30.579   7.292  0.00  0.00    -0.011 C 
ATOM      7  C   LIG    1       23.599 -30.078   9.304  0.00  0.00    +0.082 C 
ATOM      8  C   LIG    1       24.120 -30.171  10.742  0.00  0.00    +0.137 C 
ATOM      9  C   LIG    1       22.684 -32.102  11.530  0.00  0.00    +0.192 C 
ENDROOT
BRANCH   6  10
ATOM     10  C   LIG    1       25.095 -29.143   6.927  0.00  0.00    -0.017 A 
ATOM     11  C   LIG    1       24.233 -28.658   5.935  0.00  0.00    +0.008 A 
ATOM     12  C   LIG    1       24.255 -27.306   5.585  0.00  0.00    +0.001 A 
ATOM     13  C   LIG    1       25.136 -26.435   6.226  0.00  0.00    +0.000 A 
ATOM     14  C   LIG    1       25.991 -26.910   7.218  0.00  0.00    +0.001 A 
ATOM     15  C   LIG    1       25.972 -28.261   7.570  0.00  0.00    +0.008 A 
ENDBRANCH   6  10
BRANCH   6  16
ATOM     16  C   LIG    1       25.828 -31.560   6.472  0.00  0.00    -0.017 A 
ATOM     17  C   LIG    1       26.979 -32.175   6.982  0.00  0.00    +0.008 A 
ATOM     18  C   LIG    1       27.689 -33.092   6.205  0.00  0.00    +0.001 A 
ATOM     19  C   LIG    1       27.252 -33.401   4.918  0.00  0.00    +0.000 A 
ATOM     20  C   LIG    1       26.104 -32.798   4.405  0.00  0.00    +0.001 A 
ATOM     21  C   LIG    1       25.391 -31.881   5.180  0.00  0.00    +0.008 A 
ENDBRANCH   6  16
TORSDOF 2
ENDMDL
MODEL 5
REMARK VINA RESULT:      -5.9      5.864     10.003
REMARK  Name = *****
REMARK                            x       y       z     vdW  Elec       q    Type
REMARK                         _______ _______ _______ _____ _____    ______ ____
ROOT
ATOM      1  C   LIG    1       24.877 -31.706  12.584  0.00  0.00    +0.192 C 
ATOM      2  N   LIG    1       24.131 -31.674  11.249  0.00  0.00    +0.239 N 
ATOM      3  C   LIG    1       24.870 -32.601  10.259  0.00  0.00    +0.137 C 
ATOM      4  C   LIG    1       24.338 -32.469   8.827  0.00  0.00    +0.082 C 
ATOM      5  C   LIG    1       24.402 -31.025   8.358  0.00  0.00    -0.051 C 
ATOM      6  C   LIG    1       25.095 -30.599   7.269  0.00  0.00    -0.011 C 
ATOM      7  C   LIG    1       23.614 -30.117   9.288  0.00  0.00    +0.082 C 
ATOM      8  C   LIG    1       24.137 -30.221  10.725  0.00  0.00    +0.137 C 
ATOM      9  C   LIG    1       22.707 -32.161  11.499  0.00  0.00    +0.192 C 
ENDROOT
BRANCH   6  10
ATOM     10  C   LIG    1       25.104 -29.161   6.916  0.00  0.00    -0.017 A 
ATOM     11  C   LIG    1       25.983 -28.280   7.559  0.00  0.00    +0.008 A 
ATOM     12  C   LIG    1       25.981 -26.922   7.232  0.00  0.00    +0.001 A 
ATOM     13  C   LIG    1       25.103 -26.440   6.261  0.00  0.00    +0.000 A 
ATOM     14  C   LIG    1       24.231 -27.313   5.613  0.00  0.00    +0.001 A 
ATOM     15  C   LIG    1       24.230 -28.670   5.938  0.00  0.00    +0.008 A 
ENDBRANCH   6  10
BRANCH   6  16
ATOM     16  C   LIG    1       25.841 -31.573   6.441  0.00  0.00    -0.017 A 
ATOM     17  C   LIG    1       25.400 -31.883   5.148  0.00  0.00    +0.008 A 
ATOM     18  C   LIG    1       26.097 -32.808   4.371  0.00  0.00    +0.001 A 
ATOM     19  C   LIG    1       27.238 -33.427   4.879  0.00  0.00    +0.000 A 
ATOM     20  C   LIG    1       27.687 -33.120   6.163  0.00  0.00    +0.001 A 
ATOM     21  C   LIG    1       26.993 -32.193   6.943  0.00  0.00    +0.008 A 
ENDBRANCH   6  16
TORSDOF 2
ENDMDL
MODEL 6
REMARK VINA RESULT:      -5.5      7.222     10.247
REMARK  Name = *****
REMARK                            x       y       z     vdW  Elec       q    Type
REMARK                         _______ _______ _______ _____ _____    ______ ____
ROOT
ATOM      1  C   LIG    1       26.817 -27.192  12.889  0.00  0.00    +0.192 C 
ATOM      2  N   LIG    1       26.865 -28.520  12.131  0.00  0.00    +0.239 N 
ATOM      3  C   LIG    1       27.011 -28.212  10.625  0.00  0.00    +0.137 C 
ATOM      4  C   LIG    1       26.842 -29.463   9.754  0.00  0.00    +0.082 C 
ATOM      5  C   LIG    1       25.512 -30.143  10.037  0.00  0.00    -0.051 C 
ATOM      6  C   LIG    1       24.547 -30.362   9.106  0.00  0.00    -0.011 C 
ATOM      7  C   LIG    1       25.395 -30.515  11.505  0.00  0.00    +0.082 C 
ATOM      8  C   LIG    1       25.546 -29.277  12.396  0.00  0.00    +0.137 C 
ATOM      9  C   LIG    1       28.064 -29.308  12.649  0.00  0.00    +0.192 C 
ENDROOT
BRANCH   6  10
ATOM     10  C   LIG    1       23.278 -31.017   9.499  0.00  0.00    -0.017 A 
ATOM     11  C   LIG    1       22.324 -30.318  10.250  0.00  0.00    +0.008 A 
ATOM     12  C   LIG    1       21.134 -30.943  10.629  0.00  0.00    +0.001 A 
ATOM     13  C   LIG    1       20.891 -32.265  10.257  0.00  0.00    +0.000 A 
ATOM     14  C   LIG    1       21.833 -32.963   9.504  0.00  0.00    +0.001 A 
ATOM     15  C   LIG    1       23.024 -32.343   9.125  0.00  0.00    +0.008 A 
ENDBRANCH   6  10
BRANCH   6  16
ATOM     16  C   LIG    1       24.764 -29.943   7.703  0.00  0.00    -0.017 A 
ATOM     17  C   LIG    1       24.400 -28.656   7.287  0.00  0.00    +0.008 A 
ATOM     18  C   LIG    1       24.594 -28.264   5.962  0.00  0.00    +0.001 A 
ATOM     19  C   LIG    1       25.153 -29.155   5.046  0.00  0.00    +0.000 A 
ATOM     20  C   LIG    1       25.523 -30.436   5.453  0.00  0.00    +0.001 A 
ATOM     21  C   LIG    1       25.331 -30.831   6.779  0.00  0.00    +0.008 A 
ENDBRANCH   6  16
TORSDOF 2
ENDMDL
