MODEL 1
REMARK VINA RESULT:       7.5      0.000      0.000
REMARK  Name = *****
REMARK                            x       y       z     vdW  Elec       q    Type
REMARK                         _______ _______ _______ _____ _____    ______ ____
ROOT
ATOM      1  C   LIG    1       26.687 -11.778   4.522  0.00  0.00    +0.042 C 
ATOM      2  C   LIG    1       26.639 -13.207   3.987  0.00  0.00    +0.069 C 
ATOM      3  C   LIG    1       25.579 -14.161   4.643  0.00  0.00    -0.000 C 
ATOM      4  C   LIG    1       25.556 -14.006   6.184  0.00  0.00    +0.014 C 
ATOM      5  C   LIG    1       26.139 -15.600   4.321  0.00  0.00    +0.001 C 
ATOM      6  C   LIG    1       25.404 -16.370   3.211  0.00  0.00    -0.004 C 
ATOM      7  C   LIG    1       23.874 -16.247   3.331  0.00  0.00    -0.001 C 
ATOM      8  C   LIG    1       23.549 -14.758   3.138  0.00  0.00    +0.005 C 
ATOM      9  C   LIG    1       22.979 -17.356   4.224  0.00  0.00    -0.022 C 
ATOM     10  C   LIG    1       21.541 -16.795   4.136  0.00  0.00    +0.012 C 
ATOM     11  C   LIG    1       23.383 -18.608   3.363  0.00  0.00    +0.001 C 
ATOM     12  C   LIG    1       22.902 -20.045   3.495  0.00  0.00    +0.059 C 
ATOM     13  C   LIG    1       22.942 -20.355   4.909  0.00  0.00    +0.040 A 
ATOM     14  C   LIG    1       23.012 -19.405   5.949  0.00  0.00    -0.006 A 
ATOM     15  C   LIG    1       23.100 -20.261   7.061  0.00  0.00    +0.138 A 
ATOM     16  N   LIG    1       23.195 -21.571   6.755  0.00  0.00    -0.182 NA
ATOM     17  N   LIG    1       23.163 -21.560   5.416  0.00  0.00    -0.281 N 
ATOM     18  H   LIG    1       23.361 -22.452   4.896  0.00  0.00    +0.189 HD
ATOM     19  C   LIG    1       24.938 -18.760   3.679  0.00  0.00    +0.005 C 
ATOM     20  C   LIG    1       23.110 -17.849   5.766  0.00  0.00    +0.045 C 
ATOM     21  C   LIG    1       25.858 -17.803   3.002  0.00  0.00    +0.004 C 
ATOM     22  C   LIG    1       27.633 -15.394   3.936  0.00  0.00    +0.007 C 
ATOM     23  C   LIG    1       24.128 -13.854   4.192  0.00  0.00    +0.010 C 
ATOM     24  C   LIG    1       27.964 -13.936   4.223  0.00  0.00    +0.035 C 
ENDROOT
BRANCH   2  25
ATOM     25  O   LIG    1       26.420 -13.077   2.576  0.00  0.00    -0.388 OA
ATOM     26  H   LIG    1       26.344 -13.956   2.176  0.00  0.00    +0.210 HD
ENDBRANCH   2  25
TORSDOF 1
ENDMDL
MODEL 2
REMARK VINA RESULT:       9.0      1.573      1.961
REMARK  Name = *****
REMARK                            x       y       z     vdW  Elec       q    Type
REMARK                         _______ _______ _______ _____ _____    ______ ____
ROOT
ATOM      1  C   LIG    1       23.409 -11.471   4.625  0.00  0.00    +0.042 C 
ATOM      2  C   LIG    1       24.291 -12.637   4.186  0.00  0.00    +0.069 C 
ATOM      3  C   LIG    1       23.878 -14.058   4.710  0.00  0.00    -0.000 C 
ATOM      4  C   LIG    1       23.494 -14.018   6.210  0.00  0.00    +0.014 C 
ATOM      5  C   LIG    1       25.212 -14.891   4.586  0.00  0.00    +0.001 C 
ATOM      6  C   LIG    1       25.268 -15.891   3.420  0.00  0.00    -0.004 C 
ATOM      7  C   LIG    1       23.957 -16.681   3.264  0.00  0.00    -0.001 C 
ATOM      8  C   LIG    1       22.874 -15.648   2.919  0.00  0.00    +0.005 C 
ATOM      9  C   LIG    1       23.723 -18.144   4.060  0.00  0.00    -0.022 C 
ATOM     10  C   LIG    1       22.268 -18.515   3.687  0.00  0.00    +0.012 C 
ATOM     11  C   LIG    1       24.921 -18.890   3.367  0.00  0.00    +0.001 C 
ATOM     12  C   LIG    1       25.342 -20.344   3.509  0.00  0.00    +0.059 C 
ATOM     13  C   LIG    1       25.299 -20.640   4.926  0.00  0.00    +0.040 A 
ATOM     14  C   LIG    1       24.621 -19.874   5.897  0.00  0.00    -0.006 A 
ATOM     15  C   LIG    1       24.984 -20.574   7.062  0.00  0.00    +0.138 A 
ATOM     16  N   LIG    1       25.870 -21.571   6.865  0.00  0.00    -0.182 NA
ATOM     17  N   LIG    1       26.079 -21.517   5.542  0.00  0.00    -0.281 N 
ATOM     18  H   LIG    1       26.844 -22.105   5.125  0.00  0.00    +0.189 HD
ATOM     19  C   LIG    1       26.191 -18.129   3.957  0.00  0.00    +0.005 C 
ATOM     20  C   LIG    1       23.834 -18.542   5.631  0.00  0.00    +0.045 C 
ATOM     21  C   LIG    1       26.495 -16.785   3.388  0.00  0.00    +0.004 C 
ATOM     22  C   LIG    1       26.353 -13.841   4.453  0.00  0.00    +0.007 C 
ATOM     23  C   LIG    1       22.625 -14.626   3.995  0.00  0.00    +0.010 C 
ATOM     24  C   LIG    1       25.725 -12.475   4.695  0.00  0.00    +0.035 C 
ENDROOT
BRANCH   2  25
ATOM     25  O   LIG    1       24.294 -12.591   2.753  0.00  0.00    -0.388 OA
ATOM     26  H   LIG    1       25.035 -12.046   2.447  0.00  0.00    +0.210 HD
ENDBRANCH   2  25
TORSDOF 1
ENDMDL
