MODEL 1
REMARK VINA RESULT:      -5.8      0.000      0.000
REMARK  Name = *****
REMARK                            x       y       z     vdW  Elec       q    Type
REMARK                         _______ _______ _______ _____ _____    ______ ____
ROOT
ATOM      1  C   LIG    1       23.325 -20.082   5.263  0.00  0.00    +0.120 A 
ATOM      2  C   LIG    1       24.412 -20.065   4.389  0.00  0.00    +0.046 A 
ATOM      3  C   LIG    1       25.703 -20.354   4.857  0.00  0.00    +0.007 A 
ATOM      4  C   LIG    1       25.918 -20.712   6.194  0.00  0.00    -0.038 A 
ATOM      5  C   LIG    1       24.811 -20.802   7.049  0.00  0.00    +0.007 A 
ATOM      6  C   LIG    1       23.528 -20.488   6.584  0.00  0.00    +0.046 A 
ENDROOT
BRANCH   1   7
ATOM      7  O   LIG    1       22.038 -19.724   4.942  0.00  0.00    -0.492 OA
BRANCH   7   8
ATOM      8  C   LIG    1       21.905 -18.573   4.101  0.00  0.00    +0.229 C 
BRANCH   8   9
ATOM      9  C   LIG    1       22.288 -17.293   4.855  0.00  0.00    +0.041 C 
BRANCH   9  11
ATOM     10  C   LIG    1       23.235 -14.967   4.545  0.00  0.00    +0.004 C 
ATOM     11  C   LIG    1       23.339 -16.436   4.145  0.00  0.00    +0.000 C 
ENDBRANCH   9  11
ENDBRANCH   8   9
ENDBRANCH   7   8
ENDBRANCH   1   7
BRANCH   4  12
ATOM     12  C   LIG    1       27.327 -20.975   6.699  0.00  0.00    +0.133 C 
BRANCH  12  13
ATOM     13  C   LIG    1       28.388 -19.944   6.348  0.00  0.00    +0.240 C 
ATOM     14  N   LIG    1       28.146 -19.196   5.223  0.00  0.00    -0.197 N 
ATOM     15  H   LIG    1       27.414 -19.369   4.528  0.00  0.00    +0.182 HD
ATOM     16  O   LIG    1       29.376 -19.736   7.062  0.00  0.00    -0.273 OA
BRANCH  14  17
ATOM     17  O   LIG    1       29.108 -18.211   4.895  0.00  0.00    -0.295 OA
ATOM     18  H   LIG    1       28.625 -17.671   4.230  0.00  0.00    +0.241 HD
ENDBRANCH  14  17
ENDBRANCH  12  13
ENDBRANCH   4  12
TORSDOF 7
ENDMDL
MODEL 2
REMARK VINA RESULT:      -5.6      3.087      5.269
REMARK  Name = *****
REMARK                            x       y       z     vdW  Elec       q    Type
REMARK                         _______ _______ _______ _____ _____    ______ ____
ROOT
ATOM      1  C   LIG    1       24.282 -17.805   3.745  0.00  0.00    +0.120 A 
ATOM      2  C   LIG    1       25.599 -17.537   3.371  0.00  0.00    +0.046 A 
ATOM      3  C   LIG    1       26.065 -16.215   3.313  0.00  0.00    +0.007 A 
ATOM      4  C   LIG    1       25.236 -15.145   3.676  0.00  0.00    -0.038 A 
ATOM      5  C   LIG    1       23.939 -15.427   4.125  0.00  0.00    +0.007 A 
ATOM      6  C   LIG    1       23.470 -16.747   4.157  0.00  0.00    +0.046 A 
ENDROOT
BRANCH   1   7
ATOM      7  O   LIG    1       23.690 -19.045   3.745  0.00  0.00    -0.492 OA
BRANCH   7   8
ATOM      8  C   LIG    1       22.577 -19.202   4.631  0.00  0.00    +0.229 C 
BRANCH   8   9
ATOM      9  C   LIG    1       22.628 -20.560   5.343  0.00  0.00    +0.041 C 
BRANCH   9  11
ATOM     10  C   LIG    1       24.816 -20.768   6.594  0.00  0.00    +0.004 C 
ATOM     11  C   LIG    1       23.314 -20.527   6.710  0.00  0.00    +0.000 C 
ENDBRANCH   9  11
ENDBRANCH   8   9
ENDBRANCH   7   8
ENDBRANCH   1   7
BRANCH   4  12
ATOM     12  C   LIG    1       25.737 -13.716   3.563  0.00  0.00    +0.133 C 
BRANCH  12  13
ATOM     13  C   LIG    1       27.160 -13.446   4.028  0.00  0.00    +0.240 C 
ATOM     14  N   LIG    1       28.104 -13.342   3.036  0.00  0.00    -0.197 N 
ATOM     15  H   LIG    1       27.971 -13.576   2.048  0.00  0.00    +0.182 HD
ATOM     16  O   LIG    1       27.449 -13.263   5.216  0.00  0.00    -0.273 OA
BRANCH  14  17
ATOM     17  O   LIG    1       29.429 -13.064   3.446  0.00  0.00    -0.295 OA
ATOM     18  H   LIG    1       29.647 -12.274   2.902  0.00  0.00    +0.241 HD
ENDBRANCH  14  17
ENDBRANCH  12  13
ENDBRANCH   4  12
TORSDOF 7
ENDMDL
MODEL 3
REMARK VINA RESULT:      -5.4      3.363      5.488
REMARK  Name = *****
REMARK                            x       y       z     vdW  Elec       q    Type
REMARK                         _______ _______ _______ _____ _____    ______ ____
ROOT
ATOM      1  C   LIG    1       23.583 -16.643   4.074  0.00  0.00    +0.120 A 
ATOM      2  C   LIG    1       23.464 -15.262   4.232  0.00  0.00    +0.046 A 
ATOM      3  C   LIG    1       24.569 -14.426   4.008  0.00  0.00    +0.007 A 
ATOM      4  C   LIG    1       25.793 -14.953   3.578  0.00  0.00    -0.038 A 
ATOM      5  C   LIG    1       25.883 -16.332   3.347  0.00  0.00    +0.007 A 
ATOM      6  C   LIG    1       24.785 -17.167   3.595  0.00  0.00    +0.046 A 
ENDROOT
BRANCH   1   7
ATOM      7  O   LIG    1       22.603 -17.564   4.357  0.00  0.00    -0.492 OA
BRANCH   7   8
ATOM      8  C   LIG    1       22.954 -18.934   4.132  0.00  0.00    +0.229 C 
BRANCH   8   9
ATOM      9  C   LIG    1       22.704 -19.779   5.388  0.00  0.00    +0.041 C 
BRANCH   9  11
ATOM     10  C   LIG    1       24.989 -20.658   4.750  0.00  0.00    +0.004 C 
ATOM     11  C   LIG    1       23.771 -20.845   5.650  0.00  0.00    +0.000 C 
ENDBRANCH   9  11
ENDBRANCH   8   9
ENDBRANCH   7   8
ENDBRANCH   1   7
BRANCH   4  12
ATOM     12  C   LIG    1       26.994 -14.043   3.386  0.00  0.00    +0.133 C 
BRANCH  12  13
ATOM     13  C   LIG    1       27.527 -13.338   4.623  0.00  0.00    +0.240 C 
ATOM     14  N   LIG    1       28.605 -12.511   4.423  0.00  0.00    -0.197 N 
ATOM     15  H   LIG    1       29.167 -12.446   3.568  0.00  0.00    +0.182 HD
ATOM     16  O   LIG    1       26.991 -13.440   5.731  0.00  0.00    -0.273 OA
BRANCH  14  17
ATOM     17  O   LIG    1       29.099 -11.824   5.556  0.00  0.00    -0.295 OA
ATOM     18  H   LIG    1       29.209 -10.911   5.207  0.00  0.00    +0.241 HD
ENDBRANCH  14  17
ENDBRANCH  12  13
ENDBRANCH   4  12
TORSDOF 7
ENDMDL
MODEL 4
REMARK VINA RESULT:      -5.4      2.814      5.196
REMARK  Name = *****
REMARK                            x       y       z     vdW  Elec       q    Type
REMARK                         _______ _______ _______ _____ _____    ______ ____
ROOT
ATOM      1  C   LIG    1       24.117 -18.889   3.769  0.00  0.00    +0.120 A 
ATOM      2  C   LIG    1       23.182 -17.904   4.089  0.00  0.00    +0.046 A 
ATOM      3  C   LIG    1       23.552 -16.551   4.096  0.00  0.00    +0.007 A 
ATOM      4  C   LIG    1       24.848 -16.159   3.736  0.00  0.00    -0.038 A 
ATOM      5  C   LIG    1       25.759 -17.147   3.341  0.00  0.00    +0.007 A 
ATOM      6  C   LIG    1       25.394 -18.499   3.359  0.00  0.00    +0.046 A 
ENDROOT
BRANCH   1   7
ATOM      7  O   LIG    1       23.897 -20.244   3.822  0.00  0.00    -0.492 OA
BRANCH   7   8
ATOM      8  C   LIG    1       24.775 -20.983   4.678  0.00  0.00    +0.229 C 
BRANCH   8   9
ATOM      9  C   LIG    1       24.434 -20.745   6.155  0.00  0.00    +0.041 C 
BRANCH   9  11
ATOM     10  C   LIG    1       26.930 -20.348   6.253  0.00  0.00    +0.004 C 
ATOM     11  C   LIG    1       25.655 -20.567   7.061  0.00  0.00    +0.000 C 
ENDBRANCH   9  11
ENDBRANCH   8   9
ENDBRANCH   7   8
ENDBRANCH   1   7
BRANCH   4  12
ATOM     12  C   LIG    1       25.250 -14.695   3.794  0.00  0.00    +0.133 C 
BRANCH  12  13
ATOM     13  C   LIG    1       26.537 -14.306   3.086  0.00  0.00    +0.240 C 
ATOM     14  N   LIG    1       27.613 -14.045   3.898  0.00  0.00    -0.197 N 
ATOM     15  H   LIG    1       27.588 -13.938   4.917  0.00  0.00    +0.182 HD
ATOM     16  O   LIG    1       26.641 -14.290   1.854  0.00  0.00    -0.273 OA
BRANCH  14  17
ATOM     17  O   LIG    1       28.828 -13.708   3.257  0.00  0.00    -0.295 OA
ATOM     18  H   LIG    1       28.720 -12.742   3.114  0.00  0.00    +0.241 HD
ENDBRANCH  14  17
ENDBRANCH  12  13
ENDBRANCH   4  12
TORSDOF 7
ENDMDL
MODEL 5
REMARK VINA RESULT:      -5.4      2.929      5.189
REMARK  Name = *****
REMARK                            x       y       z     vdW  Elec       q    Type
REMARK                         _______ _______ _______ _____ _____    ______ ____
ROOT
ATOM      1  C   LIG    1       23.286 -18.977   4.171  0.00  0.00    +0.120 A 
ATOM      2  C   LIG    1       22.265 -18.097   4.532  0.00  0.00    +0.046 A 
ATOM      3  C   LIG    1       22.484 -16.711   4.511  0.00  0.00    +0.007 A 
ATOM      4  C   LIG    1       23.709 -16.184   4.082  0.00  0.00    -0.038 A 
ATOM      5  C   LIG    1       24.702 -17.071   3.647  0.00  0.00    +0.007 A 
ATOM      6  C   LIG    1       24.489 -18.454   3.693  0.00  0.00    +0.046 A 
ENDROOT
BRANCH   1   7
ATOM      7  O   LIG    1       23.220 -20.347   4.245  0.00  0.00    -0.492 OA
BRANCH   7   8
ATOM      8  C   LIG    1       22.478 -20.875   5.350  0.00  0.00    +0.229 C 
BRANCH   8   9
ATOM      9  C   LIG    1       23.306 -20.829   6.641  0.00  0.00    +0.041 C 
BRANCH   9  11
ATOM     10  C   LIG    1       25.786 -20.553   7.058  0.00  0.00    +0.004 C 
ATOM     11  C   LIG    1       24.691 -21.470   6.522  0.00  0.00    +0.000 C 
ENDBRANCH   9  11
ENDBRANCH   8   9
ENDBRANCH   7   8
ENDBRANCH   1   7
BRANCH   4  12
ATOM     12  C   LIG    1       23.949 -14.684   4.110  0.00  0.00    +0.133 C 
BRANCH  12  13
ATOM     13  C   LIG    1       25.385 -14.214   3.947  0.00  0.00    +0.240 C 
ATOM     14  N   LIG    1       25.804 -14.003   2.656  0.00  0.00    -0.197 N 
ATOM     15  H   LIG    1       25.301 -14.274   1.806  0.00  0.00    +0.182 HD
ATOM     16  O   LIG    1       26.119 -13.969   4.911  0.00  0.00    -0.273 OA
BRANCH  14  17
ATOM     17  O   LIG    1       27.129 -13.539   2.485  0.00  0.00    -0.295 OA
ATOM     18  H   LIG    1       27.026 -12.573   2.636  0.00  0.00    +0.241 HD
ENDBRANCH  14  17
ENDBRANCH  12  13
ENDBRANCH   4  12
TORSDOF 7
ENDMDL
MODEL 6
REMARK VINA RESULT:      -5.2      2.835      4.809
REMARK  Name = *****
REMARK                            x       y       z     vdW  Elec       q    Type
REMARK                         _______ _______ _______ _____ _____    ______ ____
ROOT
ATOM      1  C   LIG    1       26.825 -17.250   3.625  0.00  0.00    +0.120 A 
ATOM      2  C   LIG    1       27.609 -18.075   4.432  0.00  0.00    +0.046 A 
ATOM      3  C   LIG    1       27.093 -19.286   4.920  0.00  0.00    +0.007 A 
ATOM      4  C   LIG    1       25.806 -19.711   4.570  0.00  0.00    -0.038 A 
ATOM      5  C   LIG    1       25.053 -18.914   3.697  0.00  0.00    +0.007 A 
ATOM      6  C   LIG    1       25.561 -17.695   3.231  0.00  0.00    +0.046 A 
ENDROOT
BRANCH   1   7
ATOM      7  O   LIG    1       27.186 -16.005   3.171  0.00  0.00    -0.492 OA
BRANCH   7   8
ATOM      8  C   LIG    1       26.584 -14.897   3.850  0.00  0.00    +0.229 C 
BRANCH   8   9
ATOM      9  C   LIG    1       25.934 -13.928   2.853  0.00  0.00    +0.041 C 
BRANCH   9  11
ATOM     10  C   LIG    1       23.857 -14.483   4.185  0.00  0.00    +0.004 C 
ATOM     11  C   LIG    1       24.519 -13.489   3.235  0.00  0.00    +0.000 C 
ENDBRANCH   9  11
ENDBRANCH   8   9
ENDBRANCH   7   8
ENDBRANCH   1   7
BRANCH   4  12
ATOM     12  C   LIG    1       25.242 -21.000   5.144  0.00  0.00    +0.133 C 
BRANCH  12  13
ATOM     13  C   LIG    1       23.768 -21.000   5.517  0.00  0.00    +0.240 C 
ATOM     14  N   LIG    1       22.914 -21.533   4.583  0.00  0.00    -0.197 N 
ATOM     15  H   LIG    1       23.152 -21.782   3.619  0.00  0.00    +0.182 HD
ATOM     16  O   LIG    1       23.360 -20.611   6.617  0.00  0.00    -0.273 OA
BRANCH  14  17
ATOM     17  O   LIG    1       21.541 -21.568   4.923  0.00  0.00    -0.295 OA
ATOM     18  H   LIG    1       21.403 -22.523   5.107  0.00  0.00    +0.241 HD
ENDBRANCH  14  17
ENDBRANCH  12  13
ENDBRANCH   4  12
TORSDOF 7
ENDMDL
MODEL 7
REMARK VINA RESULT:      -5.1      3.145      5.385
REMARK  Name = *****
REMARK                            x       y       z     vdW  Elec       q    Type
REMARK                         _______ _______ _______ _____ _____    ______ ____
ROOT
ATOM      1  C   LIG    1       24.500 -18.023   3.701  0.00  0.00    +0.120 A 
ATOM      2  C   LIG    1       23.549 -17.064   4.055  0.00  0.00    +0.046 A 
ATOM      3  C   LIG    1       23.893 -15.704   4.091  0.00  0.00    +0.007 A 
ATOM      4  C   LIG    1       25.178 -15.279   3.728  0.00  0.00    -0.038 A 
ATOM      5  C   LIG    1       26.104 -16.239   3.300  0.00  0.00    +0.007 A 
ATOM      6  C   LIG    1       25.765 -17.598   3.288  0.00  0.00    +0.046 A 
ENDROOT
BRANCH   1   7
ATOM      7  O   LIG    1       24.307 -19.383   3.724  0.00  0.00    -0.492 OA
BRANCH   7   8
ATOM      8  C   LIG    1       25.218 -20.126   4.540  0.00  0.00    +0.229 C 
BRANCH   8   9
ATOM      9  C   LIG    1       24.511 -20.697   5.776  0.00  0.00    +0.041 C 
BRANCH   9  11
ATOM     10  C   LIG    1       22.114 -21.167   5.117  0.00  0.00    +0.004 C 
ATOM     11  C   LIG    1       23.049 -20.266   5.918  0.00  0.00    +0.000 C 
ENDBRANCH   9  11
ENDBRANCH   8   9
ENDBRANCH   7   8
ENDBRANCH   1   7
BRANCH   4  12
ATOM     12  C   LIG    1       25.551 -13.809   3.818  0.00  0.00    +0.133 C 
BRANCH  12  13
ATOM     13  C   LIG    1       26.983 -13.486   4.216  0.00  0.00    +0.240 C 
ATOM     14  N   LIG    1       27.850 -13.237   3.181  0.00  0.00    -0.197 N 
ATOM     15  H   LIG    1       27.666 -13.397   2.186  0.00  0.00    +0.182 HD
ATOM     16  O   LIG    1       27.339 -13.384   5.395  0.00  0.00    -0.273 OA
BRANCH  14  17
ATOM     17  O   LIG    1       29.181 -12.907   3.532  0.00  0.00    -0.295 OA
ATOM     18  H   LIG    1       29.282 -13.367   4.395  0.00  0.00    +0.241 HD
ENDBRANCH  14  17
ENDBRANCH  12  13
ENDBRANCH   4  12
TORSDOF 7
ENDMDL
MODEL 8
REMARK VINA RESULT:      -5.1      3.454      4.961
REMARK  Name = *****
REMARK                            x       y       z     vdW  Elec       q    Type
REMARK                         _______ _______ _______ _____ _____    ______ ____
ROOT
ATOM      1  C   LIG    1       25.824 -19.729   4.239  0.00  0.00    +0.120 A 
ATOM      2  C   LIG    1       25.164 -18.795   3.440  0.00  0.00    +0.046 A 
ATOM      3  C   LIG    1       25.697 -17.508   3.265  0.00  0.00    +0.007 A 
ATOM      4  C   LIG    1       26.921 -17.153   3.846  0.00  0.00    -0.038 A 
ATOM      5  C   LIG    1       27.616 -18.121   4.584  0.00  0.00    +0.007 A 
ATOM      6  C   LIG    1       27.069 -19.395   4.777  0.00  0.00    +0.046 A 
ENDROOT
BRANCH   1   7
ATOM      7  O   LIG    1       25.352 -20.978   4.560  0.00  0.00    -0.492 OA
BRANCH   7   8
ATOM      8  C   LIG    1       25.220 -21.253   5.959  0.00  0.00    +0.229 C 
BRANCH   8   9
ATOM      9  C   LIG    1       23.897 -20.698   6.505  0.00  0.00    +0.041 C 
BRANCH   9  11
ATOM     10  C   LIG    1       22.233 -19.466   5.052  0.00  0.00    +0.004 C 
ATOM     11  C   LIG    1       22.716 -20.828   5.541  0.00  0.00    +0.000 C 
ENDBRANCH   9  11
ENDBRANCH   8   9
ENDBRANCH   7   8
ENDBRANCH   1   7
BRANCH   4  12
ATOM     12  C   LIG    1       27.463 -15.743   3.689  0.00  0.00    +0.133 C 
BRANCH  12  13
ATOM     13  C   LIG    1       26.512 -14.699   3.127  0.00  0.00    +0.240 C 
ATOM     14  N   LIG    1       25.654 -14.122   4.030  0.00  0.00    -0.197 N 
ATOM     15  H   LIG    1       25.492 -14.433   4.993  0.00  0.00    +0.182 HD
ATOM     16  O   LIG    1       26.545 -14.334   1.946  0.00  0.00    -0.273 OA
BRANCH  14  17
ATOM     17  O   LIG    1       24.779 -13.128   3.533  0.00  0.00    -0.295 OA
ATOM     18  H   LIG    1       24.353 -13.593   2.778  0.00  0.00    +0.241 HD
ENDBRANCH  14  17
ENDBRANCH  12  13
ENDBRANCH   4  12
TORSDOF 7
ENDMDL
MODEL 9
REMARK VINA RESULT:      -5.0      3.903      5.566
REMARK  Name = *****
REMARK                            x       y       z     vdW  Elec       q    Type
REMARK                         _______ _______ _______ _____ _____    ______ ____
ROOT
ATOM      1  C   LIG    1       26.222 -17.760   3.748  0.00  0.00    +0.120 A 
ATOM      2  C   LIG    1       27.461 -17.237   4.120  0.00  0.00    +0.046 A 
ATOM      3  C   LIG    1       27.721 -15.864   3.983  0.00  0.00    +0.007 A 
ATOM      4  C   LIG    1       26.731 -14.990   3.517  0.00  0.00    -0.038 A 
ATOM      5  C   LIG    1       25.465 -15.511   3.219  0.00  0.00    +0.007 A 
ATOM      6  C   LIG    1       25.217 -16.884   3.334  0.00  0.00    +0.046 A 
ENDROOT
BRANCH   1   7
ATOM      7  O   LIG    1       25.889 -19.093   3.747  0.00  0.00    -0.492 OA
BRANCH   7   8
ATOM      8  C   LIG    1       24.514 -19.389   3.478  0.00  0.00    +0.229 C 
BRANCH   8   9
ATOM      9  C   LIG    1       23.917 -20.278   4.578  0.00  0.00    +0.041 C 
BRANCH   9  11
ATOM     10  C   LIG    1       22.121 -18.498   4.519  0.00  0.00    +0.004 C 
ATOM     11  C   LIG    1       22.721 -19.659   5.306  0.00  0.00    +0.000 C 
ENDBRANCH   9  11
ENDBRANCH   8   9
ENDBRANCH   7   8
ENDBRANCH   1   7
BRANCH   4  12
ATOM     12  C   LIG    1       27.040 -13.514   3.327  0.00  0.00    +0.133 C 
BRANCH  12  13
ATOM     13  C   LIG    1       28.297 -12.983   3.999  0.00  0.00    +0.240 C 
ATOM     14  N   LIG    1       28.105 -12.307   5.178  0.00  0.00    -0.197 N 
ATOM     15  H   LIG    1       27.205 -12.000   5.560  0.00  0.00    +0.182 HD
ATOM     16  O   LIG    1       29.431 -13.198   3.556  0.00  0.00    -0.273 OA
BRANCH  14  17
ATOM     17  O   LIG    1       29.265 -11.829   5.833  0.00  0.00    -0.295 OA
ATOM     18  H   LIG    1       29.492 -12.584   6.420  0.00  0.00    +0.241 HD
ENDBRANCH  14  17
ENDBRANCH  12  13
ENDBRANCH   4  12
TORSDOF 7
ENDMDL
