MODEL 1
REMARK VINA RESULT:       0.0      0.000      0.000
REMARK  Name = *****
REMARK                            x       y       z     vdW  Elec       q    Type
REMARK                         _______ _______ _______ _____ _____    ______ ____
ROOT
ATOM      1  C   LIG    1       23.768 -19.438   3.311  0.00  0.00    +0.299 C 
ATOM      2  C   LIG    1       22.769 -18.628   4.130  0.00  0.00    +0.253 C 
ATOM      3  O   LIG    1       21.624 -19.009   4.381  0.00  0.00    -0.273 OA
ATOM      4  N   LIG    1       23.100 -17.345   4.496  0.00  0.00    -0.283 N 
ATOM      5  H   LIG    1       22.303 -16.841   4.869  0.00  0.00    +0.155 HD
ATOM      6  C   LIG    1       24.246 -16.627   4.130  0.00  0.00    +0.043 A 
ATOM      7  C   LIG    1       25.484 -17.210   3.827  0.00  0.00    +0.023 A 
ATOM      8  C   LIG    1       26.504 -16.434   3.256  0.00  0.00    +0.032 A 
ATOM      9  C   LIG    1       26.329 -15.059   3.119  0.00  0.00    +0.042 A 
ATOM     10  C   LIG    1       25.149 -14.452   3.543  0.00  0.00    +0.022 A 
ATOM     11 CL   LIG    1       27.596 -14.096   2.470  0.00  0.00    -0.084 Cl
ATOM     12  C   LIG    1       25.799 -18.600   4.270  0.00  0.00    +0.079 C 
ATOM     13  C   LIG    1       24.107 -15.236   4.038  0.00  0.00    +0.025 A 
ATOM     14  N   LIG    1       25.034 -19.619   4.053  0.00  0.00    -0.259 NA
ENDROOT
BRANCH  12  15
ATOM     15  C   LIG    1       27.063 -18.847   5.053  0.00  0.00    +0.036 A 
ATOM     16  C   LIG    1       27.187 -19.893   5.977  0.00  0.00    +0.133 A 
ATOM     17  F   LIG    1       26.181 -20.750   6.200  0.00  0.00    -0.205 F 
ATOM     18  C   LIG    1       28.375 -20.097   6.681  0.00  0.00    +0.039 A 
ATOM     19  C   LIG    1       29.471 -19.269   6.452  0.00  0.00    +0.003 A 
ATOM     20  C   LIG    1       29.375 -18.241   5.516  0.00  0.00    +0.001 A 
ATOM     21  C   LIG    1       28.180 -18.031   4.818  0.00  0.00    +0.013 A 
ENDBRANCH  12  15
BRANCH   1  22
ATOM     22  C   LIG    1       23.208 -20.810   2.958  0.00  0.00    +0.341 C 
ATOM     23  O   LIG    1       23.197 -21.267   1.813  0.00  0.00    -0.248 OA
BRANCH  22  24
ATOM     24  O   LIG    1       22.742 -21.468   4.060  0.00  0.00    -0.463 OA
BRANCH  24  26
ATOM     25  C   LIG    1       22.850 -21.559   6.472  0.00  0.00    +0.048 C 
ATOM     26  C   LIG    1       23.637 -21.555   5.176  0.00  0.00    +0.229 C 
ENDBRANCH  24  26
ENDBRANCH  22  24
ENDBRANCH   1  22
TORSDOF 4
ENDMDL
MODEL 2
REMARK VINA RESULT:       1.2      0.981      1.374
REMARK  Name = *****
REMARK                            x       y       z     vdW  Elec       q    Type
REMARK                         _______ _______ _______ _____ _____    ______ ____
ROOT
ATOM      1  C   LIG    1       23.903 -19.454   3.324  0.00  0.00    +0.299 C 
ATOM      2  C   LIG    1       22.889 -18.646   4.126  0.00  0.00    +0.253 C 
ATOM      3  O   LIG    1       21.744 -19.034   4.366  0.00  0.00    -0.273 OA
ATOM      4  N   LIG    1       23.207 -17.360   4.491  0.00  0.00    -0.283 N 
ATOM      5  H   LIG    1       22.403 -16.860   4.852  0.00  0.00    +0.155 HD
ATOM      6  C   LIG    1       24.353 -16.637   4.135  0.00  0.00    +0.043 A 
ATOM      7  C   LIG    1       25.599 -17.212   3.850  0.00  0.00    +0.023 A 
ATOM      8  C   LIG    1       26.621 -16.433   3.288  0.00  0.00    +0.032 A 
ATOM      9  C   LIG    1       26.438 -15.059   3.142  0.00  0.00    +0.042 A 
ATOM     10  C   LIG    1       25.249 -14.458   3.549  0.00  0.00    +0.022 A 
ATOM     11 CL   LIG    1       27.707 -14.091   2.504  0.00  0.00    -0.084 Cl
ATOM     12  C   LIG    1       25.917 -18.599   4.303  0.00  0.00    +0.079 C 
ATOM     13  C   LIG    1       24.206 -15.247   4.036  0.00  0.00    +0.025 A 
ATOM     14  N   LIG    1       25.161 -19.623   4.081  0.00  0.00    -0.259 NA
ENDROOT
BRANCH  12  15
ATOM     15  C   LIG    1       27.173 -18.834   5.102  0.00  0.00    +0.036 A 
ATOM     16  C   LIG    1       28.313 -18.030   4.970  0.00  0.00    +0.133 A 
ATOM     17  F   LIG    1       28.338 -16.986   4.130  0.00  0.00    -0.205 F 
ATOM     18  C   LIG    1       29.459 -18.272   5.730  0.00  0.00    +0.039 A 
ATOM     19  C   LIG    1       29.473 -19.311   6.657  0.00  0.00    +0.003 A 
ATOM     20  C   LIG    1       28.338 -20.103   6.822  0.00  0.00    +0.001 A 
ATOM     21  C   LIG    1       27.194 -19.867   6.051  0.00  0.00    +0.013 A 
ENDBRANCH  12  15
BRANCH   1  22
ATOM     22  C   LIG    1       23.356 -20.831   2.970  0.00  0.00    +0.341 C 
ATOM     23  O   LIG    1       23.198 -21.224   1.812  0.00  0.00    -0.248 OA
BRANCH  22  24
ATOM     24  O   LIG    1       23.083 -21.571   4.084  0.00  0.00    -0.463 OA
BRANCH  24  26
ATOM     25  C   LIG    1       23.375 -21.513   6.482  0.00  0.00    +0.048 C 
ATOM     26  C   LIG    1       24.062 -21.532   5.131  0.00  0.00    +0.229 C 
ENDBRANCH  24  26
ENDBRANCH  22  24
ENDBRANCH   1  22
TORSDOF 4
ENDMDL
MODEL 3
REMARK VINA RESULT:       1.6      2.498      5.191
REMARK  Name = *****
REMARK                            x       y       z     vdW  Elec       q    Type
REMARK                         _______ _______ _______ _____ _____    ______ ____
ROOT
ATOM      1  C   LIG    1       25.279 -19.704   5.416  0.00  0.00    +0.299 C 
ATOM      2  C   LIG    1       26.267 -19.672   4.255  0.00  0.00    +0.253 C 
ATOM      3  O   LIG    1       27.164 -20.503   4.100  0.00  0.00    -0.273 OA
ATOM      4  N   LIG    1       26.256 -18.592   3.405  0.00  0.00    -0.283 N 
ATOM      5  H   LIG    1       27.063 -18.585   2.792  0.00  0.00    +0.155 HD
ATOM      6  C   LIG    1       25.481 -17.430   3.521  0.00  0.00    +0.043 A 
ATOM      7  C   LIG    1       24.224 -17.373   4.139  0.00  0.00    +0.023 A 
ATOM      8  C   LIG    1       23.629 -16.131   4.405  0.00  0.00    +0.032 A 
ATOM      9  C   LIG    1       24.226 -14.965   3.930  0.00  0.00    +0.042 A 
ATOM     10  C   LIG    1       25.409 -15.026   3.198  0.00  0.00    +0.022 A 
ATOM     11 CL   LIG    1       23.472 -13.445   4.207  0.00  0.00    -0.084 Cl
ATOM     12  C   LIG    1       23.426 -18.616   4.355  0.00  0.00    +0.079 C 
ATOM     13  C   LIG    1       26.039 -16.255   3.002  0.00  0.00    +0.025 A 
ATOM     14  N   LIG    1       23.885 -19.681   4.923  0.00  0.00    -0.259 NA
ENDROOT
BRANCH  12  15
ATOM     15  C   LIG    1       22.005 -18.665   3.853  0.00  0.00    +0.036 A 
ATOM     16  C   LIG    1       21.139 -19.727   4.142  0.00  0.00    +0.133 A 
ATOM     17  F   LIG    1       21.528 -20.757   4.906  0.00  0.00    -0.205 F 
ATOM     18  C   LIG    1       19.826 -19.738   3.667  0.00  0.00    +0.039 A 
ATOM     19  C   LIG    1       19.350 -18.670   2.912  0.00  0.00    +0.003 A 
ATOM     20  C   LIG    1       20.190 -17.591   2.638  0.00  0.00    +0.001 A 
ATOM     21  C   LIG    1       21.509 -17.586   3.106  0.00  0.00    +0.013 A 
ENDBRANCH  12  15
BRANCH   1  22
ATOM     22  C   LIG    1       25.474 -20.948   6.273  0.00  0.00    +0.341 C 
ATOM     23  O   LIG    1       24.544 -21.572   6.790  0.00  0.00    -0.248 OA
BRANCH  22  24
ATOM     24  O   LIG    1       26.791 -21.289   6.382  0.00  0.00    -0.463 OA
BRANCH  24  26
ATOM     25  C   LIG    1       29.091 -20.631   6.728  0.00  0.00    +0.048 C 
ATOM     26  C   LIG    1       27.638 -20.352   7.061  0.00  0.00    +0.229 C 
ENDBRANCH  24  26
ENDBRANCH  22  24
ENDBRANCH   1  22
TORSDOF 4
ENDMDL
