MODEL 1
REMARK VINA RESULT:      -5.7      0.000      0.000
REMARK  Name = *****
REMARK                            x       y       z     vdW  Elec       q    Type
REMARK                         _______ _______ _______ _____ _____    ______ ____
ROOT
ATOM      1  C   LIG    1       25.898 -28.880   8.837  0.00  0.00    +0.249 C 
ATOM      2  N   LIG    1       25.004 -29.404   9.758  0.00  0.00    -0.298 N 
ATOM      3  H   LIG    1       24.192 -29.881   9.377  0.00  0.00    +0.150 HD
ATOM      4  O   LIG    1       27.031 -28.554   9.179  0.00  0.00    -0.270 OA
ENDROOT
BRANCH   1   6
ATOM      5  C   LIG    1       24.936 -29.817   6.672  0.00  0.00    +0.133 A 
ATOM      6  C   LIG    1       25.412 -28.702   7.410  0.00  0.00    +0.086 A 
ATOM      7  C   LIG    1       25.425 -27.380   6.796  0.00  0.00    -0.002 A 
ATOM      8  C   LIG    1       24.926 -27.257   5.469  0.00  0.00    -0.017 A 
ATOM      9  C   LIG    1       24.889 -26.024   4.794  0.00  0.00    +0.008 A 
ATOM     10  C   LIG    1       25.361 -24.865   5.391  0.00  0.00    +0.001 A 
ATOM     11  C   LIG    1       25.858 -24.931   6.681  0.00  0.00    +0.001 A 
ATOM     12  C   LIG    1       24.474 -28.372   4.778  0.00  0.00    +0.012 A 
ATOM     13  C   LIG    1       25.880 -26.156   7.371  0.00  0.00    +0.009 A 
ATOM     14  C   LIG    1       24.515 -29.633   5.352  0.00  0.00    +0.047 A 
BRANCH   5  15
ATOM     15  O   LIG    1       24.937 -31.073   7.247  0.00  0.00    -0.491 OA
BRANCH  15  17
ATOM     16  C   LIG    1       26.992 -32.279   7.828  0.00  0.00    +0.048 C 
ATOM     17  C   LIG    1       25.930 -31.999   6.773  0.00  0.00    +0.226 C 
ENDBRANCH  15  17
ENDBRANCH   5  15
ENDBRANCH   1   6
BRANCH   2  18
ATOM     18  CA  LIG    1       25.354 -29.624  11.192  0.00  0.00    +0.190 C 
ATOM     19  C   LIG    1       24.189 -29.609  12.226  0.00  0.00    +0.165 C 
ATOM     20  S   LIG    1       22.518 -30.088  11.637  0.00  0.00    -0.127 S 
ATOM     21  C   LIG    1       22.419 -31.599  12.734  0.00  0.00    +0.042 C 
ATOM     22  CA  LIG    1       23.835 -31.845  13.324  0.00  0.00    +0.201 C 
ATOM     23  C   LIG    1       21.994 -32.784  11.852  0.00  0.00    +0.025 C 
ATOM     24  C   LIG    1       21.306 -31.329  13.760  0.00  0.00    +0.025 C 
ATOM     25  N   LIG    1       24.742 -30.851  12.771  0.00  0.00    -0.271 N 
ATOM     26  C   LIG    1       25.497 -31.099  11.660  0.00  0.00    +0.240 C 
ATOM     27  O   LIG    1       25.920 -32.152  11.221  0.00  0.00    -0.273 OA
BRANCH  22  28
ATOM     28  C   LIG    1       23.908 -31.770  14.847  0.00  0.00    +0.327 C 
ATOM     29  O   LIG    1       24.179 -30.773  15.500  0.00  0.00    -0.249 OA
BRANCH  28  30
ATOM     30  OXT LIG    1       23.770 -32.961  15.470  0.00  0.00    -0.479 OA
ATOM     31  HXT LIG    1       23.730 -32.742  16.424  0.00  0.00    +0.295 HD
ENDBRANCH  28  30
ENDBRANCH  22  28
ENDBRANCH   2  18
TORSDOF 6
ENDMDL
MODEL 2
REMARK VINA RESULT:      -5.7      2.944      6.846
REMARK  Name = *****
REMARK                            x       y       z     vdW  Elec       q    Type
REMARK                         _______ _______ _______ _____ _____    ______ ____
ROOT
ATOM      1  C   LIG    1       24.997 -29.553  12.503  0.00  0.00    +0.249 C 
ATOM      2  N   LIG    1       24.795 -29.964  11.194  0.00  0.00    -0.298 N 
ATOM      3  H   LIG    1       24.296 -29.317  10.590  0.00  0.00    +0.150 HD
ATOM      4  O   LIG    1       25.824 -30.113  13.215  0.00  0.00    -0.270 OA
ENDROOT
BRANCH   1   6
ATOM      5  C   LIG    1       22.744 -28.589  13.200  0.00  0.00    +0.133 A 
ATOM      6  C   LIG    1       24.140 -28.411  13.020  0.00  0.00    +0.086 A 
ATOM      7  C   LIG    1       24.753 -27.128  13.341  0.00  0.00    -0.002 A 
ATOM      8  C   LIG    1       23.916 -26.099  13.856  0.00  0.00    -0.017 A 
ATOM      9  C   LIG    1       24.414 -24.832  14.203  0.00  0.00    +0.008 A 
ATOM     10  C   LIG    1       25.754 -24.518  14.038  0.00  0.00    +0.001 A 
ATOM     11  C   LIG    1       26.611 -25.483  13.540  0.00  0.00    +0.001 A 
ATOM     12  C   LIG    1       22.553 -26.311  14.013  0.00  0.00    +0.012 A 
ATOM     13  C   LIG    1       26.125 -26.761  13.208  0.00  0.00    +0.009 A 
ATOM     14  C   LIG    1       21.971 -27.517  13.655  0.00  0.00    +0.047 A 
BRANCH   5  15
ATOM     15  O   LIG    1       22.158 -29.799  12.882  0.00  0.00    -0.491 OA
BRANCH  15  17
ATOM     16  C   LIG    1       21.041 -30.649  10.870  0.00  0.00    +0.048 C 
ATOM     17  C   LIG    1       20.956 -29.747  12.095  0.00  0.00    +0.226 C 
ENDBRANCH  15  17
ENDBRANCH   5  15
ENDBRANCH   1   6
BRANCH   2  18
ATOM     18  CA  LIG    1       25.566 -31.077  10.567  0.00  0.00    +0.190 C 
ATOM     19  C   LIG    1       24.937 -31.773   9.323  0.00  0.00    +0.165 C 
ATOM     20  S   LIG    1       23.793 -30.788   8.279  0.00  0.00    -0.127 S 
ATOM     21  C   LIG    1       24.898 -30.854   6.772  0.00  0.00    +0.042 C 
ATOM     22  CA  LIG    1       26.277 -31.408   7.225  0.00  0.00    +0.201 C 
ATOM     23  C   LIG    1       25.045 -29.418   6.244  0.00  0.00    +0.025 C 
ATOM     24  C   LIG    1       24.157 -31.690   5.717  0.00  0.00    +0.025 C 
ATOM     25  N   LIG    1       26.237 -31.623   8.663  0.00  0.00    -0.271 N 
ATOM     26  C   LIG    1       26.670 -30.678   9.549  0.00  0.00    +0.240 C 
ATOM     27  O   LIG    1       27.502 -29.801   9.412  0.00  0.00    -0.273 OA
BRANCH  22  28
ATOM     28  C   LIG    1       26.686 -32.716   6.553  0.00  0.00    +0.327 C 
ATOM     29  O   LIG    1       26.641 -33.825   7.064  0.00  0.00    -0.249 OA
BRANCH  28  30
ATOM     30  OXT LIG    1       27.247 -32.564   5.333  0.00  0.00    -0.479 OA
ATOM     31  HXT LIG    1       28.175 -32.857   5.446  0.00  0.00    +0.295 HD
ENDBRANCH  28  30
ENDBRANCH  22  28
ENDBRANCH   2  18
TORSDOF 6
ENDMDL
MODEL 3
REMARK VINA RESULT:      -5.6      3.102      7.267
REMARK  Name = *****
REMARK                            x       y       z     vdW  Elec       q    Type
REMARK                         _______ _______ _______ _____ _____    ______ ____
ROOT
ATOM      1  C   LIG    1       25.153 -29.299  12.805  0.00  0.00    +0.249 C 
ATOM      2  N   LIG    1       25.162 -29.528  11.437  0.00  0.00    -0.298 N 
ATOM      3  H   LIG    1       25.011 -28.718  10.842  0.00  0.00    +0.150 HD
ATOM      4  O   LIG    1       25.609 -30.131  13.582  0.00  0.00    -0.270 OA
ENDROOT
BRANCH   1   6
ATOM      5  C   LIG    1       25.366 -26.941  13.746  0.00  0.00    +0.133 A 
ATOM      6  C   LIG    1       24.537 -28.001  13.294  0.00  0.00    +0.086 A 
ATOM      7  C   LIG    1       23.089 -27.836  13.294  0.00  0.00    -0.002 A 
ATOM      8  C   LIG    1       22.559 -26.589  13.728  0.00  0.00    -0.017 A 
ATOM      9  C   LIG    1       21.177 -26.331  13.755  0.00  0.00    +0.008 A 
ATOM     10  C   LIG    1       20.259 -27.297  13.376  0.00  0.00    +0.001 A 
ATOM     11  C   LIG    1       20.722 -28.528  12.946  0.00  0.00    +0.001 A 
ATOM     12  C   LIG    1       23.403 -25.578  14.168  0.00  0.00    +0.012 A 
ATOM     13  C   LIG    1       22.104 -28.789  12.896  0.00  0.00    +0.009 A 
ATOM     14  C   LIG    1       24.775 -25.764  14.215  0.00  0.00    +0.047 A 
BRANCH   5  15
ATOM     15  O   LIG    1       26.738 -27.100  13.762  0.00  0.00    -0.491 OA
BRANCH  15  17
ATOM     16  C   LIG    1       28.288 -25.782  15.133  0.00  0.00    +0.048 C 
ATOM     17  C   LIG    1       27.384 -27.005  15.043  0.00  0.00    +0.226 C 
ENDBRANCH  15  17
ENDBRANCH   5  15
ENDBRANCH   1   6
BRANCH   2  18
ATOM     18  CA  LIG    1       25.732 -30.765  10.827  0.00  0.00    +0.190 C 
ATOM     19  C   LIG    1       24.923 -31.436   9.677  0.00  0.00    +0.165 C 
ATOM     20  S   LIG    1       23.836 -30.365   8.658  0.00  0.00    -0.127 S 
ATOM     21  C   LIG    1       24.801 -30.656   7.083  0.00  0.00    +0.042 C 
ATOM     22  CA  LIG    1       26.128 -31.363   7.470  0.00  0.00    +0.201 C 
ATOM     23  C   LIG    1       25.088 -29.282   6.457  0.00  0.00    +0.025 C 
ATOM     24  C   LIG    1       23.877 -31.441   6.138  0.00  0.00    +0.025 C 
ATOM     25  N   LIG    1       26.175 -31.495   8.918  0.00  0.00    -0.271 N 
ATOM     26  C   LIG    1       26.794 -30.571   9.710  0.00  0.00    +0.240 C 
ATOM     27  O   LIG    1       27.718 -29.820   9.459  0.00  0.00    -0.273 OA
BRANCH  22  28
ATOM     28  C   LIG    1       26.311 -32.748   6.854  0.00  0.00    +0.327 C 
ATOM     29  O   LIG    1       25.977 -33.806   7.365  0.00  0.00    -0.249 OA
BRANCH  28  30
ATOM     30  OXT LIG    1       27.015 -32.755   5.700  0.00  0.00    -0.479 OA
ATOM     31  HXT LIG    1       27.907 -33.071   5.951  0.00  0.00    +0.295 HD
ENDBRANCH  28  30
ENDBRANCH  22  28
ENDBRANCH   2  18
TORSDOF 6
ENDMDL
MODEL 4
REMARK VINA RESULT:      -5.5      4.062      8.142
REMARK  Name = *****
REMARK                            x       y       z     vdW  Elec       q    Type
REMARK                         _______ _______ _______ _____ _____    ______ ____
ROOT
ATOM      1  C   LIG    1       25.083 -28.528   6.368  0.00  0.00    +0.249 C 
ATOM      2  N   LIG    1       24.460 -27.288   6.373  0.00  0.00    -0.298 N 
ATOM      3  H   LIG    1       24.089 -26.974   7.265  0.00  0.00    +0.150 HD
ATOM      4  O   LIG    1       25.808 -28.860   5.436  0.00  0.00    -0.270 OA
ENDROOT
BRANCH   1   6
ATOM      5  C   LIG    1       23.942 -30.568   7.382  0.00  0.00    +0.133 A 
ATOM      6  C   LIG    1       24.810 -29.455   7.538  0.00  0.00    +0.086 A 
ATOM      7  C   LIG    1       25.445 -29.209   8.826  0.00  0.00    -0.002 A 
ATOM      8  C   LIG    1       25.187 -30.126   9.883  0.00  0.00    -0.017 A 
ATOM      9  C   LIG    1       25.760 -29.979  11.159  0.00  0.00    +0.008 A 
ATOM     10  C   LIG    1       26.594 -28.912  11.452  0.00  0.00    +0.001 A 
ATOM     11  C   LIG    1       26.878 -27.991  10.458  0.00  0.00    +0.001 A 
ATOM     12  C   LIG    1       24.328 -31.199   9.693  0.00  0.00    +0.012 A 
ATOM     13  C   LIG    1       26.325 -28.141   9.174  0.00  0.00    +0.009 A 
ATOM     14  C   LIG    1       23.687 -31.394   8.480  0.00  0.00    +0.047 A 
BRANCH   5  15
ATOM     15  O   LIG    1       23.326 -30.794   6.167  0.00  0.00    -0.491 OA
BRANCH  15  17
ATOM     16  C   LIG    1       24.939 -32.343   5.156  0.00  0.00    +0.048 C 
ATOM     17  C   LIG    1       23.499 -32.100   5.589  0.00  0.00    +0.226 C 
ENDBRANCH  15  17
ENDBRANCH   5  15
ENDBRANCH   1   6
BRANCH   2  18
ATOM     18  CA  LIG    1       24.640 -26.287   5.281  0.00  0.00    +0.190 C 
ATOM     19  C   LIG    1       23.780 -24.990   5.349  0.00  0.00    +0.165 C 
ATOM     20  S   LIG    1       23.236 -24.410   7.003  0.00  0.00    -0.127 S 
ATOM     21  C   LIG    1       24.209 -22.816   6.913  0.00  0.00    +0.042 C 
ATOM     22  CA  LIG    1       25.170 -22.921   5.696  0.00  0.00    +0.201 C 
ATOM     23  C   LIG    1       25.011 -22.689   8.218  0.00  0.00    +0.025 C 
ATOM     24  C   LIG    1       23.182 -21.674   6.856  0.00  0.00    +0.025 C 
ATOM     25  N   LIG    1       25.012 -24.238   5.098  0.00  0.00    -0.271 N 
ATOM     26  C   LIG    1       25.819 -25.287   5.435  0.00  0.00    +0.240 C 
ATOM     27  O   LIG    1       26.964 -25.292   5.847  0.00  0.00    -0.273 OA
BRANCH  22  28
ATOM     28  C   LIG    1       24.938 -21.869   4.614  0.00  0.00    +0.327 C 
ATOM     29  O   LIG    1       24.099 -21.930   3.728  0.00  0.00    -0.249 OA
BRANCH  28  30
ATOM     30  OXT LIG    1       25.843 -20.865   4.611  0.00  0.00    -0.479 OA
ATOM     31  HXT LIG    1       25.638 -20.340   5.412  0.00  0.00    +0.295 HD
ENDBRANCH  28  30
ENDBRANCH  22  28
ENDBRANCH   2  18
TORSDOF 6
ENDMDL
MODEL 5
REMARK VINA RESULT:      -5.4      2.842      6.808
REMARK  Name = *****
REMARK                            x       y       z     vdW  Elec       q    Type
REMARK                         _______ _______ _______ _____ _____    ______ ____
ROOT
ATOM      1  C   LIG    1       24.577 -30.093  12.106  0.00  0.00    +0.249 C 
ATOM      2  N   LIG    1       24.561 -30.553  10.798  0.00  0.00    -0.298 N 
ATOM      3  H   LIG    1       24.042 -29.990  10.128  0.00  0.00    +0.150 HD
ATOM      4  O   LIG    1       25.397 -30.522  12.911  0.00  0.00    -0.270 OA
ENDROOT
BRANCH   1   6
ATOM      5  C   LIG    1       22.149 -29.378  12.402  0.00  0.00    +0.133 A 
ATOM      6  C   LIG    1       23.531 -29.067  12.502  0.00  0.00    +0.086 A 
ATOM      7  C   LIG    1       23.943 -27.758  12.994  0.00  0.00    -0.002 A 
ATOM      8  C   LIG    1       22.927 -26.843  13.388  0.00  0.00    -0.017 A 
ATOM      9  C   LIG    1       23.224 -25.562  13.883  0.00  0.00    +0.008 A 
ATOM     10  C   LIG    1       24.534 -25.121  13.993  0.00  0.00    +0.001 A 
ATOM     11  C   LIG    1       25.560 -25.973  13.624  0.00  0.00    +0.001 A 
ATOM     12  C   LIG    1       21.587 -27.183  13.270  0.00  0.00    +0.012 A 
ATOM     13  C   LIG    1       25.273 -27.264  13.145  0.00  0.00    +0.009 A 
ATOM     14  C   LIG    1       21.204 -28.409  12.750  0.00  0.00    +0.047 A 
BRANCH   5  15
ATOM     15  O   LIG    1       21.756 -30.611  11.921  0.00  0.00    -0.491 OA
BRANCH  15  17
ATOM     16  C   LIG    1       20.108 -31.868  10.607  0.00  0.00    +0.048 C 
ATOM     17  C   LIG    1       20.965 -30.613  10.720  0.00  0.00    +0.226 C 
ENDBRANCH  15  17
ENDBRANCH   5  15
ENDBRANCH   1   6
BRANCH   2  18
ATOM     18  CA  LIG    1       25.529 -31.564  10.282  0.00  0.00    +0.190 C 
ATOM     19  C   LIG    1       25.151 -32.318   8.973  0.00  0.00    +0.165 C 
ATOM     20  S   LIG    1       24.045 -31.463   7.783  0.00  0.00    -0.127 S 
ATOM     21  C   LIG    1       25.335 -31.388   6.432  0.00  0.00    +0.042 C 
ATOM     22  CA  LIG    1       26.698 -31.783   7.062  0.00  0.00    +0.201 C 
ATOM     23  C   LIG    1       25.381 -29.941   5.917  0.00  0.00    +0.025 C 
ATOM     24  C   LIG    1       24.837 -32.296   5.295  0.00  0.00    +0.025 C 
ATOM     25  N   LIG    1       26.498 -32.013   8.485  0.00  0.00    -0.271 N 
ATOM     26  C   LIG    1       26.702 -31.032   9.412  0.00  0.00    +0.240 C 
ATOM     27  O   LIG    1       27.437 -30.063   9.378  0.00  0.00    -0.273 OA
BRANCH  22  28
ATOM     28  C   LIG    1       27.339 -33.030   6.457  0.00  0.00    +0.327 C 
ATOM     29  O   LIG    1       27.234 -33.394   5.296  0.00  0.00    -0.249 OA
BRANCH  28  30
ATOM     30  OXT LIG    1       27.964 -33.825   7.354  0.00  0.00    -0.479 OA
ATOM     31  HXT LIG    1       28.400 -33.206   7.976  0.00  0.00    +0.295 HD
ENDBRANCH  28  30
ENDBRANCH  22  28
ENDBRANCH   2  18
TORSDOF 6
ENDMDL
MODEL 6
REMARK VINA RESULT:      -5.4      5.157      8.971
REMARK  Name = *****
REMARK                            x       y       z     vdW  Elec       q    Type
REMARK                         _______ _______ _______ _____ _____    ______ ____
ROOT
ATOM      1  C   LIG    1       24.851 -21.907   6.237  0.00  0.00    +0.249 C 
ATOM      2  N   LIG    1       24.631 -23.132   5.626  0.00  0.00    -0.298 N 
ATOM      3  H   LIG    1       25.089 -23.278   4.730  0.00  0.00    +0.150 HD
ATOM      4  O   LIG    1       24.596 -21.745   7.426  0.00  0.00    -0.270 OA
ENDROOT
BRANCH   1   6
ATOM      5  C   LIG    1       24.606 -20.250   4.316  0.00  0.00    +0.133 A 
ATOM      6  C   LIG    1       25.391 -20.780   5.375  0.00  0.00    +0.086 A 
ATOM      7  C   LIG    1       26.715 -20.232   5.637  0.00  0.00    -0.002 A 
ATOM      8  C   LIG    1       27.163 -19.152   4.826  0.00  0.00    -0.017 A 
ATOM      9  C   LIG    1       28.421 -18.550   5.007  0.00  0.00    +0.008 A 
ATOM     10  C   LIG    1       29.298 -19.001   5.981  0.00  0.00    +0.001 A 
ATOM     11  C   LIG    1       28.911 -20.049   6.797  0.00  0.00    +0.001 A 
ATOM     12  C   LIG    1       26.369 -18.665   3.797  0.00  0.00    +0.012 A 
ATOM     13  C   LIG    1       27.646 -20.644   6.636  0.00  0.00    +0.009 A 
ATOM     14  C   LIG    1       25.133 -19.229   3.521  0.00  0.00    +0.047 A 
BRANCH   5  15
ATOM     15  O   LIG    1       23.357 -20.779   4.056  0.00  0.00    -0.491 OA
BRANCH  15  17
ATOM     16  C   LIG    1       22.126 -18.723   4.582  0.00  0.00    +0.048 C 
ATOM     17  C   LIG    1       22.255 -20.225   4.796  0.00  0.00    +0.226 C 
ENDBRANCH  15  17
ENDBRANCH   5  15
ENDBRANCH   1   6
BRANCH   2  18
ATOM     18  CA  LIG    1       24.100 -24.319   6.358  0.00  0.00    +0.190 C 
ATOM     19  C   LIG    1       24.031 -25.668   5.583  0.00  0.00    +0.165 C 
ATOM     20  S   LIG    1       25.229 -25.933   4.218  0.00  0.00    -0.127 S 
ATOM     21  C   LIG    1       26.078 -27.368   5.063  0.00  0.00    +0.042 C 
ATOM     22  CA  LIG    1       25.576 -27.413   6.532  0.00  0.00    +0.201 C 
ATOM     23  C   LIG    1       27.591 -27.100   5.022  0.00  0.00    +0.025 C 
ATOM     24  C   LIG    1       25.780 -28.618   4.218  0.00  0.00    +0.025 C 
ATOM     25  N   LIG    1       24.673 -26.292   6.743  0.00  0.00    -0.271 N 
ATOM     26  C   LIG    1       25.103 -25.100   7.250  0.00  0.00    +0.240 C 
ATOM     27  O   LIG    1       26.042 -24.856   7.985  0.00  0.00    -0.273 OA
BRANCH  22  28
ATOM     28  C   LIG    1       24.847 -28.699   6.914  0.00  0.00    +0.327 C 
ATOM     29  O   LIG    1       23.659 -28.925   6.738  0.00  0.00    -0.249 OA
BRANCH  28  30
ATOM     30  OXT LIG    1       25.600 -29.580   7.609  0.00  0.00    -0.479 OA
ATOM     31  HXT LIG    1       25.128 -30.434   7.526  0.00  0.00    +0.295 HD
ENDBRANCH  28  30
ENDBRANCH  22  28
ENDBRANCH   2  18
TORSDOF 6
ENDMDL
MODEL 7
REMARK VINA RESULT:      -5.1      1.900      4.125
REMARK  Name = *****
REMARK                            x       y       z     vdW  Elec       q    Type
REMARK                         _______ _______ _______ _____ _____    ______ ____
ROOT
ATOM      1  C   LIG    1       25.067 -29.901   9.214  0.00  0.00    +0.249 C 
ATOM      2  N   LIG    1       23.830 -30.271   9.721  0.00  0.00    -0.298 N 
ATOM      3  H   LIG    1       23.374 -31.058   9.268  0.00  0.00    +0.150 HD
ATOM      4  O   LIG    1       25.817 -29.176   9.860  0.00  0.00    -0.270 OA
ENDROOT
BRANCH   1   6
ATOM      5  C   LIG    1       24.942 -29.745   6.674  0.00  0.00    +0.133 A 
ATOM      6  C   LIG    1       25.436 -30.403   7.830  0.00  0.00    +0.086 A 
ATOM      7  C   LIG    1       26.309 -31.562   7.684  0.00  0.00    -0.002 A 
ATOM      8  C   LIG    1       26.656 -31.973   6.367  0.00  0.00    -0.017 A 
ATOM      9  C   LIG    1       27.498 -33.073   6.124  0.00  0.00    +0.008 A 
ATOM     10  C   LIG    1       28.016 -33.824   7.167  0.00  0.00    +0.001 A 
ATOM     11  C   LIG    1       27.708 -33.466   8.468  0.00  0.00    +0.001 A 
ATOM     12  C   LIG    1       26.148 -31.306   5.262  0.00  0.00    +0.012 A 
ATOM     13  C   LIG    1       26.883 -32.356   8.721  0.00  0.00    +0.009 A 
ATOM     14  C   LIG    1       25.276 -30.239   5.410  0.00  0.00    +0.047 A 
BRANCH   5  15
ATOM     15  O   LIG    1       24.102 -28.656   6.809  0.00  0.00    -0.491 OA
BRANCH  15  17
ATOM     16  C   LIG    1       25.951 -27.047   6.910  0.00  0.00    +0.048 C 
ATOM     17  C   LIG    1       24.593 -27.397   6.317  0.00  0.00    +0.226 C 
ENDBRANCH  15  17
ENDBRANCH   5  15
ENDBRANCH   1   6
BRANCH   2  18
ATOM     18  CA  LIG    1       23.344 -29.841  11.065  0.00  0.00    +0.190 C 
ATOM     19  C   LIG    1       21.820 -29.981  11.355  0.00  0.00    +0.165 C 
ATOM     20  S   LIG    1       20.894 -31.284  10.452  0.00  0.00    -0.127 S 
ATOM     21  C   LIG    1       20.473 -32.245  12.000  0.00  0.00    +0.042 C 
ATOM     22  CA  LIG    1       21.326 -31.663  13.161  0.00  0.00    +0.201 C 
ATOM     23  C   LIG    1       20.846 -33.714  11.747  0.00  0.00    +0.025 C 
ATOM     24  C   LIG    1       18.949 -32.150  12.179  0.00  0.00    +0.025 C 
ATOM     25  N   LIG    1       22.186 -30.621  12.621  0.00  0.00    -0.271 N 
ATOM     26  C   LIG    1       23.466 -30.875  12.218  0.00  0.00    +0.240 C 
ATOM     27  O   LIG    1       24.247 -31.730  12.589  0.00  0.00    -0.273 OA
BRANCH  22  28
ATOM     28  C   LIG    1       20.513 -31.071  14.309  0.00  0.00    +0.327 C 
ATOM     29  O   LIG    1       20.120 -29.916  14.383  0.00  0.00    -0.249 OA
BRANCH  28  30
ATOM     30  OXT LIG    1       20.343 -31.905  15.359  0.00  0.00    -0.479 OA
ATOM     31  HXT LIG    1       20.985 -31.596  16.031  0.00  0.00    +0.295 HD
ENDBRANCH  28  30
ENDBRANCH  22  28
ENDBRANCH   2  18
TORSDOF 6
ENDMDL
MODEL 8
REMARK VINA RESULT:      -5.0      3.350      4.957
REMARK  Name = *****
REMARK                            x       y       z     vdW  Elec       q    Type
REMARK                         _______ _______ _______ _____ _____    ______ ____
ROOT
ATOM      1  C   LIG    1       24.890 -30.121   8.303  0.00  0.00    +0.249 C 
ATOM      2  N   LIG    1       25.672 -30.203   9.445  0.00  0.00    -0.298 N 
ATOM      3  H   LIG    1       25.997 -31.131   9.704  0.00  0.00    +0.150 HD
ATOM      4  O   LIG    1       24.699 -29.042   7.751  0.00  0.00    -0.270 OA
ENDROOT
BRANCH   1   6
ATOM      5  C   LIG    1       23.299 -32.094   8.569  0.00  0.00    +0.133 A 
ATOM      6  C   LIG    1       24.263 -31.404   7.788  0.00  0.00    +0.086 A 
ATOM      7  C   LIG    1       24.645 -31.928   6.483  0.00  0.00    -0.002 A 
ATOM      8  C   LIG    1       24.004 -33.114   6.026  0.00  0.00    -0.017 A 
ATOM      9  C   LIG    1       24.298 -33.691   4.779  0.00  0.00    +0.008 A 
ATOM     10  C   LIG    1       25.249 -33.136   3.938  0.00  0.00    +0.001 A 
ATOM     11  C   LIG    1       25.902 -31.982   4.334  0.00  0.00    +0.001 A 
ATOM     12  C   LIG    1       23.071 -33.762   6.822  0.00  0.00    +0.012 A 
ATOM     13  C   LIG    1       25.601 -31.386   5.572  0.00  0.00    +0.009 A 
ATOM     14  C   LIG    1       22.754 -33.286   8.085  0.00  0.00    +0.047 A 
BRANCH   5  15
ATOM     15  O   LIG    1       22.947 -31.608   9.813  0.00  0.00    -0.491 OA
BRANCH  15  17
ATOM     16  C   LIG    1       20.788 -30.762  10.614  0.00  0.00    +0.048 C 
ATOM     17  C   LIG    1       21.650 -31.980  10.308  0.00  0.00    +0.226 C 
ENDBRANCH  15  17
ENDBRANCH   5  15
ENDBRANCH   1   6
BRANCH   2  18
ATOM     18  CA  LIG    1       26.340 -29.017  10.057  0.00  0.00    +0.190 C 
ATOM     19  C   LIG    1       25.742 -28.464  11.385  0.00  0.00    +0.165 C 
ATOM     20  S   LIG    1       24.847 -29.638  12.475  0.00  0.00    -0.127 S 
ATOM     21  C   LIG    1       26.070 -29.474  13.880  0.00  0.00    +0.042 C 
ATOM     22  CA  LIG    1       27.312 -28.715  13.336  0.00  0.00    +0.201 C 
ATOM     23  C   LIG    1       26.461 -30.894  14.320  0.00  0.00    +0.025 C 
ATOM     24  C   LIG    1       25.325 -28.790  15.038  0.00  0.00    +0.025 C 
ATOM     25  N   LIG    1       27.107 -28.454  11.919  0.00  0.00    -0.271 N 
ATOM     26  C   LIG    1       27.579 -29.295  10.952  0.00  0.00    +0.240 C 
ATOM     27  O   LIG    1       28.532 -30.051  10.971  0.00  0.00    -0.273 OA
BRANCH  22  28
ATOM     28  C   LIG    1       27.599 -27.388  14.034  0.00  0.00    +0.327 C 
ATOM     29  O   LIG    1       27.043 -26.325  13.802  0.00  0.00    -0.249 OA
BRANCH  28  30
ATOM     30  OXT LIG    1       28.647 -27.424  14.886  0.00  0.00    -0.479 OA
ATOM     31  HXT LIG    1       28.972 -28.347  14.847  0.00  0.00    +0.295 HD
ENDBRANCH  28  30
ENDBRANCH  22  28
ENDBRANCH   2  18
TORSDOF 6
ENDMDL
MODEL 9
REMARK VINA RESULT:      -4.9      1.938      2.342
REMARK  Name = *****
REMARK                            x       y       z     vdW  Elec       q    Type
REMARK                         _______ _______ _______ _____ _____    ______ ____
ROOT
ATOM      1  C   LIG    1       24.718 -30.004   9.370  0.00  0.00    +0.249 C 
ATOM      2  N   LIG    1       23.432 -30.070   9.886  0.00  0.00    -0.298 N 
ATOM      3  H   LIG    1       22.717 -30.445   9.269  0.00  0.00    +0.150 HD
ATOM      4  O   LIG    1       25.683 -29.851  10.111  0.00  0.00    -0.270 OA
ENDROOT
BRANCH   1   6
ATOM      5  C   LIG    1       24.645 -31.333   7.197  0.00  0.00    +0.133 A 
ATOM      6  C   LIG    1       24.875 -30.101   7.863  0.00  0.00    +0.086 A 
ATOM      7  C   LIG    1       25.255 -28.923   7.093  0.00  0.00    -0.002 A 
ATOM      8  C   LIG    1       25.355 -29.054   5.680  0.00  0.00    -0.017 A 
ATOM      9  C   LIG    1       25.707 -27.974   4.851  0.00  0.00    +0.008 A 
ATOM     10  C   LIG    1       25.995 -26.727   5.381  0.00  0.00    +0.001 A 
ATOM     11  C   LIG    1       25.913 -26.546   6.751  0.00  0.00    +0.001 A 
ATOM     12  C   LIG    1       25.127 -30.278   5.066  0.00  0.00    +0.012 A 
ATOM     13  C   LIG    1       25.543 -27.615   7.586  0.00  0.00    +0.009 A 
ATOM     14  C   LIG    1       24.818 -31.404   5.812  0.00  0.00    +0.047 A 
BRANCH   5  15
ATOM     15  O   LIG    1       24.299 -32.454   7.926  0.00  0.00    -0.491 OA
BRANCH  15  17
ATOM     16  C   LIG    1       26.410 -33.318   8.830  0.00  0.00    +0.048 C 
ATOM     17  C   LIG    1       25.227 -33.552   7.900  0.00  0.00    +0.226 C 
ENDBRANCH  15  17
ENDBRANCH   5  15
ENDBRANCH   1   6
BRANCH   2  18
ATOM     18  CA  LIG    1       23.141 -29.982  11.347  0.00  0.00    +0.190 C 
ATOM     19  C   LIG    1       21.644 -29.972  11.780  0.00  0.00    +0.165 C 
ATOM     20  S   LIG    1       20.430 -30.801  10.682  0.00  0.00    -0.127 S 
ATOM     21  C   LIG    1       19.969 -32.097  11.948  0.00  0.00    +0.042 C 
ATOM     22  CA  LIG    1       21.003 -32.013  13.105  0.00  0.00    +0.201 C 
ATOM     23  C   LIG    1       20.050 -33.468  11.257  0.00  0.00    +0.025 C 
ATOM     24  C   LIG    1       18.506 -31.832  12.339  0.00  0.00    +0.025 C 
ATOM     25  N   LIG    1       21.990 -30.999  12.766  0.00  0.00    -0.271 N 
ATOM     26  C   LIG    1       23.167 -31.313  12.148  0.00  0.00    +0.240 C 
ATOM     27  O   LIG    1       23.809 -32.346  12.168  0.00  0.00    -0.273 OA
BRANCH  22  28
ATOM     28  C   LIG    1       20.403 -31.666  14.465  0.00  0.00    +0.327 C 
ATOM     29  O   LIG    1       20.268 -30.539  14.919  0.00  0.00    -0.249 OA
BRANCH  28  30
ATOM     30  OXT LIG    1       20.126 -32.738  15.241  0.00  0.00    -0.479 OA
ATOM     31  HXT LIG    1       20.708 -32.640  16.022  0.00  0.00    +0.295 HD
ENDBRANCH  28  30
ENDBRANCH  22  28
ENDBRANCH   2  18
TORSDOF 6
ENDMDL
