MODEL 1
REMARK VINA RESULT:      -7.7      0.000      0.000
REMARK  Name = *****
REMARK                            x       y       z     vdW  Elec       q    Type
REMARK                         _______ _______ _______ _____ _____    ______ ____
ROOT
ATOM      1  C   LIG    1       25.259 -22.696   6.882  0.00  0.00    +0.203 C 
ATOM      2  C   LIG    1       24.596 -21.702   5.914  0.00  0.00    +0.253 C 
ATOM      3  C   LIG    1       25.774 -20.763   5.609  0.00  0.00    +0.269 C 
ATOM      4  C   LIG    1       26.449 -20.674   6.999  0.00  0.00    +0.268 C 
ATOM      5  O   LIG    1       26.259 -21.966   7.620  0.00  0.00    -0.342 OA
ENDROOT
BRANCH   4   6
ATOM      6  N   LIG    1       27.882 -20.356   7.007  0.00  0.00    -0.270 N 
ATOM      7  C   LIG    1       28.687 -20.996   7.947  0.00  0.00    +0.331 C 
ATOM      8  O   LIG    1       28.270 -21.810   8.770  0.00  0.00    -0.246 OA
ATOM      9  N   LIG    1       30.021 -20.676   7.907  0.00  0.00    -0.275 N 
ATOM     10  H   LIG    1       30.617 -21.123   8.586  0.00  0.00    +0.173 HD
ATOM     11  C   LIG    1       30.615 -19.781   7.063  0.00  0.00    +0.254 C 
ATOM     12  O   LIG    1       31.807 -19.513   7.098  0.00  0.00    -0.268 OA
ATOM     13  C   LIG    1       29.721 -19.156   6.078  0.00  0.00    +0.088 C 
ATOM     14  C   LIG    1       28.423 -19.464   6.096  0.00  0.00    +0.098 C 
ENDBRANCH   4   6
BRANCH   1  15
ATOM     15  C   LIG    1       25.942 -23.881   6.163  0.00  0.00    +0.267 C 
BRANCH  15  16
ATOM     16  O   LIG    1       25.023 -24.414   5.207  0.00  0.00    -0.462 OA
BRANCH  16  18
ATOM     17  C   LIG    1       24.217 -26.447   6.044  0.00  0.00    +0.136 C 
ATOM     18  C   LIG    1       25.105 -25.768   5.039  0.00  0.00    +0.304 C 
ATOM     19  O   LIG    1       25.874 -26.344   4.294  0.00  0.00    -0.251 OA
ENDBRANCH  16  18
ENDBRANCH  15  16
ENDBRANCH   1  15
BRANCH   2  20
ATOM     20  O   LIG    1       23.563 -20.922   6.569  0.00  0.00    -0.455 OA
BRANCH  20  21
ATOM     21  C   LIG    1       22.621 -20.358   5.751  0.00  0.00    +0.304 C 
ATOM     22  O   LIG    1       22.370 -19.170   5.684  0.00  0.00    -0.251 OA
ATOM     23  C   LIG    1       21.885 -21.446   5.018  0.00  0.00    +0.136 C 
ENDBRANCH  20  21
ENDBRANCH   2  20
BRANCH   3  24
ATOM     24  O   LIG    1       25.342 -19.515   5.040  0.00  0.00    -0.453 OA
BRANCH  24  25
ATOM     25  C   LIG    1       25.365 -19.463   3.681  0.00  0.00    +0.304 C 
ATOM     26  O   LIG    1       24.920 -20.351   2.950  0.00  0.00    -0.251 OA
ATOM     27  C   LIG    1       25.881 -18.163   3.160  0.00  0.00    +0.136 C 
ENDBRANCH  24  25
ENDBRANCH   3  24
TORSDOF 8
ENDMDL
MODEL 2
REMARK VINA RESULT:      -6.5      7.042     10.741
REMARK  Name = *****
REMARK                            x       y       z     vdW  Elec       q    Type
REMARK                         _______ _______ _______ _____ _____    ______ ____
ROOT
ATOM      1  C   LIG    1       24.356 -30.587   6.240  0.00  0.00    +0.203 C 
ATOM      2  C   LIG    1       25.206 -29.401   6.725  0.00  0.00    +0.253 C 
ATOM      3  C   LIG    1       25.369 -29.749   8.213  0.00  0.00    +0.269 C 
ATOM      4  C   LIG    1       23.965 -30.313   8.540  0.00  0.00    +0.268 C 
ATOM      5  O   LIG    1       23.513 -30.982   7.340  0.00  0.00    -0.342 OA
ENDROOT
BRANCH   4   6
ATOM      6  N   LIG    1       23.888 -31.258   9.661  0.00  0.00    -0.270 N 
ATOM      7  C   LIG    1       22.677 -31.364  10.343  0.00  0.00    +0.331 C 
ATOM      8  O   LIG    1       21.670 -30.715  10.062  0.00  0.00    -0.246 OA
ATOM      9  N   LIG    1       22.651 -32.269  11.374  0.00  0.00    -0.275 N 
ATOM     10  H   LIG    1       21.785 -32.353  11.884  0.00  0.00    +0.173 HD
ATOM     11  C   LIG    1       23.694 -33.039  11.803  0.00  0.00    +0.254 C 
ATOM     12  O   LIG    1       23.618 -33.806  12.752  0.00  0.00    -0.268 OA
ATOM     13  C   LIG    1       24.937 -32.901  11.032  0.00  0.00    +0.088 C 
ATOM     14  C   LIG    1       24.977 -32.034  10.019  0.00  0.00    +0.098 C 
ENDBRANCH   4   6
BRANCH   1  15
ATOM     15  C   LIG    1       25.202 -31.804   5.804  0.00  0.00    +0.267 C 
BRANCH  15  16
ATOM     16  O   LIG    1       25.836 -31.487   4.563  0.00  0.00    -0.462 OA
BRANCH  16  18
ATOM     17  C   LIG    1       27.055 -33.476   4.364  0.00  0.00    +0.136 C 
ATOM     18  C   LIG    1       26.038 -32.561   3.742  0.00  0.00    +0.304 C 
ATOM     19  O   LIG    1       25.580 -32.694   2.624  0.00  0.00    -0.251 OA
ENDBRANCH  16  18
ENDBRANCH  15  16
ENDBRANCH   1  15
BRANCH   2  20
ATOM     20  O   LIG    1       24.481 -28.148   6.636  0.00  0.00    -0.455 OA
BRANCH  20  21
ATOM     21  C   LIG    1       24.970 -27.228   5.748  0.00  0.00    +0.304 C 
ATOM     22  O   LIG    1       25.910 -27.408   4.997  0.00  0.00    -0.251 OA
ATOM     23  C   LIG    1       24.222 -25.934   5.912  0.00  0.00    +0.136 C 
ENDBRANCH  20  21
ENDBRANCH   2  20
BRANCH   3  24
ATOM     24  O   LIG    1       25.787 -28.616   8.995  0.00  0.00    -0.453 OA
BRANCH  24  25
ATOM     25  C   LIG    1       26.735 -28.884   9.934  0.00  0.00    +0.304 C 
ATOM     26  O   LIG    1       27.647 -29.699   9.779  0.00  0.00    -0.251 OA
ATOM     27  C   LIG    1       26.627 -27.999  11.131  0.00  0.00    +0.136 C 
ENDBRANCH  24  25
ENDBRANCH   3  24
TORSDOF 8
ENDMDL
MODEL 3
REMARK VINA RESULT:      -6.4      6.396     10.031
REMARK  Name = *****
REMARK                            x       y       z     vdW  Elec       q    Type
REMARK                         _______ _______ _______ _____ _____    ______ ____
ROOT
ATOM      1  C   LIG    1       25.339 -29.538   7.679  0.00  0.00    +0.203 C 
ATOM      2  C   LIG    1       24.145 -30.364   8.184  0.00  0.00    +0.253 C 
ATOM      3  C   LIG    1       24.188 -30.050   9.687  0.00  0.00    +0.269 C 
ATOM      4  C   LIG    1       25.714 -30.038   9.943  0.00  0.00    +0.268 C 
ATOM      5  O   LIG    1       26.319 -29.519   8.736  0.00  0.00    -0.342 OA
ENDROOT
BRANCH   4   6
ATOM      6  N   LIG    1       26.177 -29.234  11.081  0.00  0.00    -0.270 N 
ATOM      7  C   LIG    1       27.525 -29.307  11.427  0.00  0.00    +0.331 C 
ATOM      8  O   LIG    1       28.350 -30.004  10.836  0.00  0.00    -0.246 OA
ATOM      9  N   LIG    1       27.912 -28.528  12.489  0.00  0.00    -0.275 N 
ATOM     10  H   LIG    1       28.882 -28.576  12.758  0.00  0.00    +0.173 HD
ATOM     11  C   LIG    1       27.103 -27.726  13.241  0.00  0.00    +0.254 C 
ATOM     12  O   LIG    1       27.502 -27.079  14.199  0.00  0.00    -0.268 OA
ATOM     13  C   LIG    1       25.698 -27.670  12.816  0.00  0.00    +0.088 C 
ATOM     14  C   LIG    1       25.307 -28.412  11.778  0.00  0.00    +0.098 C 
ENDBRANCH   4   6
BRANCH   1  15
ATOM     15  C   LIG    1       24.966 -28.081   7.326  0.00  0.00    +0.267 C 
BRANCH  15  16
ATOM     16  O   LIG    1       26.149 -27.283   7.407  0.00  0.00    -0.462 OA
BRANCH  16  18
ATOM     17  C   LIG    1       25.698 -25.109   6.663  0.00  0.00    +0.136 C 
ATOM     18  C   LIG    1       26.331 -26.436   6.349  0.00  0.00    +0.304 C 
ATOM     19  O   LIG    1       26.805 -26.738   5.272  0.00  0.00    -0.251 OA
ENDBRANCH  16  18
ENDBRANCH  15  16
ENDBRANCH   1  15
BRANCH   2  20
ATOM     20  O   LIG    1       24.368 -31.788   8.019  0.00  0.00    -0.455 OA
BRANCH  20  21
ATOM     21  C   LIG    1       23.531 -32.435   7.151  0.00  0.00    +0.304 C 
ATOM     22  O   LIG    1       23.279 -32.074   6.017  0.00  0.00    -0.251 OA
ATOM     23  C   LIG    1       22.903 -33.610   7.849  0.00  0.00    +0.136 C 
ENDBRANCH  20  21
ENDBRANCH   2  20
BRANCH   3  24
ATOM     24  O   LIG    1       23.429 -30.993  10.463  0.00  0.00    -0.453 OA
BRANCH  24  25
ATOM     25  C   LIG    1       22.118 -30.674  10.635  0.00  0.00    +0.304 C 
ATOM     26  O   LIG    1       21.199 -31.151   9.964  0.00  0.00    -0.251 OA
ATOM     27  C   LIG    1       21.891 -29.772  11.803  0.00  0.00    +0.136 C 
ENDBRANCH  24  25
ENDBRANCH   3  24
TORSDOF 8
ENDMDL
MODEL 4
REMARK VINA RESULT:      -6.4      6.855     11.394
REMARK  Name = *****
REMARK                            x       y       z     vdW  Elec       q    Type
REMARK                         _______ _______ _______ _____ _____    ______ ____
ROOT
ATOM      1  C   LIG    1       24.040 -29.191   7.452  0.00  0.00    +0.203 C 
ATOM      2  C   LIG    1       24.289 -30.143   8.634  0.00  0.00    +0.253 C 
ATOM      3  C   LIG    1       24.870 -31.365   7.906  0.00  0.00    +0.269 C 
ATOM      4  C   LIG    1       23.998 -31.389   6.627  0.00  0.00    +0.268 C 
ATOM      5  O   LIG    1       23.711 -30.007   6.312  0.00  0.00    -0.342 OA
ENDROOT
BRANCH   4   6
ATOM      6  N   LIG    1       24.594 -32.025   5.445  0.00  0.00    -0.270 N 
ATOM      7  C   LIG    1       23.904 -33.083   4.856  0.00  0.00    +0.331 C 
ATOM      8  O   LIG    1       22.826 -33.514   5.265  0.00  0.00    -0.246 OA
ATOM      9  N   LIG    1       24.494 -33.636   3.747  0.00  0.00    -0.275 N 
ATOM     10  H   LIG    1       24.013 -34.408   3.313  0.00  0.00    +0.173 HD
ATOM     11  C   LIG    1       25.689 -33.270   3.198  0.00  0.00    +0.254 C 
ATOM     12  O   LIG    1       26.181 -33.825   2.226  0.00  0.00    -0.268 OA
ATOM     13  C   LIG    1       26.360 -32.135   3.848  0.00  0.00    +0.088 C 
ATOM     14  C   LIG    1       25.794 -31.578   4.920  0.00  0.00    +0.098 C 
ENDBRANCH   4   6
BRANCH   1  15
ATOM     15  C   LIG    1       25.269 -28.324   7.101  0.00  0.00    +0.267 C 
BRANCH  15  16
ATOM     16  O   LIG    1       25.083 -27.795   5.786  0.00  0.00    -0.462 OA
BRANCH  16  18
ATOM     17  C   LIG    1       25.304 -25.476   5.545  0.00  0.00    +0.136 C 
ATOM     18  C   LIG    1       25.974 -26.818   5.439  0.00  0.00    +0.304 C 
ATOM     19  O   LIG    1       27.086 -27.001   4.984  0.00  0.00    -0.251 OA
ENDBRANCH  16  18
ENDBRANCH  15  16
ENDBRANCH   1  15
BRANCH   2  20
ATOM     20  O   LIG    1       23.048 -30.549   9.267  0.00  0.00    -0.455 OA
BRANCH  20  21
ATOM     21  C   LIG    1       22.883 -30.171  10.572  0.00  0.00    +0.304 C 
ATOM     22  O   LIG    1       23.765 -29.758  11.301  0.00  0.00    -0.251 OA
ATOM     23  C   LIG    1       21.462 -30.433  10.989  0.00  0.00    +0.136 C 
ENDBRANCH  20  21
ENDBRANCH   2  20
BRANCH   3  24
ATOM     24  O   LIG    1       24.829 -32.552   8.716  0.00  0.00    -0.453 OA
BRANCH  24  25
ATOM     25  C   LIG    1       26.042 -33.006   9.133  0.00  0.00    +0.304 C 
ATOM     26  O   LIG    1       26.354 -33.149  10.317  0.00  0.00    -0.251 OA
ATOM     27  C   LIG    1       26.920 -33.429   8.003  0.00  0.00    +0.136 C 
ENDBRANCH  24  25
ENDBRANCH   3  24
TORSDOF 8
ENDMDL
MODEL 5
REMARK VINA RESULT:      -6.4      2.286      5.326
REMARK  Name = *****
REMARK                            x       y       z     vdW  Elec       q    Type
REMARK                         _______ _______ _______ _____ _____    ______ ____
ROOT
ATOM      1  C   LIG    1       23.347 -21.446   4.614  0.00  0.00    +0.203 C 
ATOM      2  C   LIG    1       24.121 -21.961   5.838  0.00  0.00    +0.253 C 
ATOM      3  C   LIG    1       25.180 -20.859   5.998  0.00  0.00    +0.269 C 
ATOM      4  C   LIG    1       25.519 -20.558   4.518  0.00  0.00    +0.268 C 
ATOM      5  O   LIG    1       24.290 -20.747   3.779  0.00  0.00    -0.342 OA
ENDROOT
BRANCH   4   6
ATOM      6  N   LIG    1       26.039 -19.216   4.229  0.00  0.00    -0.270 N 
ATOM      7  C   LIG    1       27.343 -18.923   4.623  0.00  0.00    +0.331 C 
ATOM      8  O   LIG    1       28.084 -19.719   5.198  0.00  0.00    -0.246 OA
ATOM      9  N   LIG    1       27.788 -17.660   4.320  0.00  0.00    -0.275 N 
ATOM     10  H   LIG    1       28.726 -17.427   4.606  0.00  0.00    +0.173 HD
ATOM     11  C   LIG    1       27.071 -16.675   3.704  0.00  0.00    +0.254 C 
ATOM     12  O   LIG    1       27.513 -15.555   3.490  0.00  0.00    -0.268 OA
ATOM     13  C   LIG    1       25.712 -17.050   3.290  0.00  0.00    +0.088 C 
ATOM     14  C   LIG    1       25.267 -18.276   3.567  0.00  0.00    +0.098 C 
ENDBRANCH   4   6
BRANCH   1  15
ATOM     15  C   LIG    1       22.200 -20.479   4.982  0.00  0.00    +0.267 C 
BRANCH  15  16
ATOM     16  O   LIG    1       22.704 -19.143   4.920  0.00  0.00    -0.462 OA
BRANCH  16  18
ATOM     17  C   LIG    1       22.214 -16.859   4.755  0.00  0.00    +0.136 C 
ATOM     18  C   LIG    1       21.867 -18.251   4.308  0.00  0.00    +0.304 C 
ATOM     19  O   LIG    1       20.906 -18.538   3.622  0.00  0.00    -0.251 OA
ENDBRANCH  16  18
ENDBRANCH  15  16
ENDBRANCH   1  15
BRANCH   2  20
ATOM     20  O   LIG    1       24.812 -23.205   5.554  0.00  0.00    -0.455 OA
BRANCH  20  21
ATOM     21  C   LIG    1       24.493 -24.270   6.353  0.00  0.00    +0.304 C 
ATOM     22  O   LIG    1       23.364 -24.649   6.601  0.00  0.00    -0.251 OA
ATOM     23  C   LIG    1       25.752 -24.839   6.947  0.00  0.00    +0.136 C 
ENDBRANCH  20  21
ENDBRANCH   2  20
BRANCH   3  24
ATOM     24  O   LIG    1       26.282 -21.276   6.822  0.00  0.00    -0.453 OA
BRANCH  24  25
ATOM     25  C   LIG    1       26.350 -20.675   8.040  0.00  0.00    +0.304 C 
ATOM     26  O   LIG    1       25.398 -20.588   8.819  0.00  0.00    -0.251 OA
ATOM     27  C   LIG    1       27.732 -20.233   8.391  0.00  0.00    +0.136 C 
ENDBRANCH  24  25
ENDBRANCH   3  24
TORSDOF 8
ENDMDL
MODEL 6
REMARK VINA RESULT:      -6.2      2.610      5.949
REMARK  Name = *****
REMARK                            x       y       z     vdW  Elec       q    Type
REMARK                         _______ _______ _______ _____ _____    ______ ____
ROOT
ATOM      1  C   LIG    1       27.481 -21.796   7.878  0.00  0.00    +0.203 C 
ATOM      2  C   LIG    1       28.725 -21.083   8.434  0.00  0.00    +0.253 C 
ATOM      3  C   LIG    1       28.737 -19.808   7.578  0.00  0.00    +0.269 C 
ATOM      4  C   LIG    1       28.305 -20.371   6.202  0.00  0.00    +0.268 C 
ATOM      5  O   LIG    1       27.382 -21.449   6.483  0.00  0.00    -0.342 OA
ENDROOT
BRANCH   4   6
ATOM      6  N   LIG    1       27.657 -19.425   5.286  0.00  0.00    -0.270 N 
ATOM      7  C   LIG    1       28.376 -18.296   4.897  0.00  0.00    +0.331 C 
ATOM      8  O   LIG    1       29.520 -18.046   5.274  0.00  0.00    -0.246 OA
ATOM      9  N   LIG    1       27.732 -17.449   4.030  0.00  0.00    -0.275 N 
ATOM     10  H   LIG    1       28.234 -16.622   3.745  0.00  0.00    +0.173 HD
ATOM     11  C   LIG    1       26.463 -17.594   3.548  0.00  0.00    +0.254 C 
ATOM     12  O   LIG    1       25.931 -16.785   2.802  0.00  0.00    -0.268 OA
ATOM     13  C   LIG    1       25.763 -18.814   3.973  0.00  0.00    +0.088 C 
ATOM     14  C   LIG    1       26.378 -19.655   4.807  0.00  0.00    +0.098 C 
ENDBRANCH   4   6
BRANCH   1  15
ATOM     15  C   LIG    1       26.174 -21.378   8.586  0.00  0.00    +0.267 C 
BRANCH  15  16
ATOM     16  O   LIG    1       25.171 -22.352   8.285  0.00  0.00    -0.462 OA
BRANCH  16  18
ATOM     17  C   LIG    1       23.426 -22.918   6.830  0.00  0.00    +0.136 C 
ATOM     18  C   LIG    1       24.059 -21.846   7.672  0.00  0.00    +0.304 C 
ATOM     19  O   LIG    1       23.708 -20.682   7.688  0.00  0.00    -0.251 OA
ENDBRANCH  16  18
ENDBRANCH  15  16
ENDBRANCH   1  15
BRANCH   2  20
ATOM     20  O   LIG    1       29.940 -21.823   8.151  0.00  0.00    -0.455 OA
BRANCH  20  21
ATOM     21  C   LIG    1       30.809 -21.982   9.197  0.00  0.00    +0.304 C 
ATOM     22  O   LIG    1       30.500 -22.331  10.320  0.00  0.00    -0.251 OA
ATOM     23  C   LIG    1       32.189 -21.571   8.762  0.00  0.00    +0.136 C 
ENDBRANCH  20  21
ENDBRANCH   2  20
BRANCH   3  24
ATOM     24  O   LIG    1       30.011 -19.141   7.611  0.00  0.00    -0.453 OA
BRANCH  24  25
ATOM     25  C   LIG    1       30.258 -18.427   8.742  0.00  0.00    +0.304 C 
ATOM     26  O   LIG    1       29.458 -18.315   9.674  0.00  0.00    -0.251 OA
ATOM     27  C   LIG    1       31.649 -17.888   8.793  0.00  0.00    +0.136 C 
ENDBRANCH  24  25
ENDBRANCH   3  24
TORSDOF 8
ENDMDL
MODEL 7
REMARK VINA RESULT:      -6.2      7.754     11.146
REMARK  Name = *****
REMARK                            x       y       z     vdW  Elec       q    Type
REMARK                         _______ _______ _______ _____ _____    ______ ____
ROOT
ATOM      1  C   LIG    1       25.427 -30.936  10.282  0.00  0.00    +0.203 C 
ATOM      2  C   LIG    1       25.628 -29.515   9.730  0.00  0.00    +0.253 C 
ATOM      3  C   LIG    1       25.082 -29.676   8.303  0.00  0.00    +0.269 C 
ATOM      4  C   LIG    1       25.604 -31.089   7.944  0.00  0.00    +0.268 C 
ATOM      5  O   LIG    1       25.587 -31.846   9.177  0.00  0.00    -0.342 OA
ENDROOT
BRANCH   4   6
ATOM      6  N   LIG    1       24.841 -31.826   6.930  0.00  0.00    -0.270 N 
ATOM      7  C   LIG    1       25.285 -31.769   5.610  0.00  0.00    +0.331 C 
ATOM      8  O   LIG    1       26.277 -31.138   5.245  0.00  0.00    -0.246 OA
ATOM      9  N   LIG    1       24.547 -32.484   4.701  0.00  0.00    -0.275 N 
ATOM     10  H   LIG    1       24.849 -32.447   3.740  0.00  0.00    +0.173 HD
ATOM     11  C   LIG    1       23.421 -33.210   4.964  0.00  0.00    +0.254 C 
ATOM     12  O   LIG    1       22.786 -33.801   4.102  0.00  0.00    -0.268 OA
ATOM     13  C   LIG    1       23.014 -33.254   6.375  0.00  0.00    +0.088 C 
ATOM     14  C   LIG    1       23.727 -32.573   7.274  0.00  0.00    +0.098 C 
ENDBRANCH   4   6
BRANCH   1  15
ATOM     15  C   LIG    1       24.030 -31.155  10.904  0.00  0.00    +0.267 C 
BRANCH  15  16
ATOM     16  O   LIG    1       23.550 -29.895  11.380  0.00  0.00    -0.462 OA
BRANCH  16  18
ATOM     17  C   LIG    1       21.718 -28.891  12.437  0.00  0.00    +0.136 C 
ATOM     18  C   LIG    1       22.755 -29.977  12.489  0.00  0.00    +0.304 C 
ATOM     19  O   LIG    1       22.935 -30.716  13.437  0.00  0.00    -0.251 OA
ENDBRANCH  16  18
ENDBRANCH  15  16
ENDBRANCH   1  15
BRANCH   2  20
ATOM     20  O   LIG    1       27.034 -29.170   9.633  0.00  0.00    -0.455 OA
BRANCH  20  21
ATOM     21  C   LIG    1       27.706 -29.033  10.818  0.00  0.00    +0.304 C 
ATOM     22  O   LIG    1       28.652 -29.711  11.171  0.00  0.00    -0.251 OA
ATOM     23  C   LIG    1       27.035 -27.976  11.650  0.00  0.00    +0.136 C 
ENDBRANCH  20  21
ENDBRANCH   2  20
BRANCH   3  24
ATOM     24  O   LIG    1       25.504 -28.612   7.434  0.00  0.00    -0.453 OA
BRANCH  24  25
ATOM     25  C   LIG    1       24.624 -28.289   6.448  0.00  0.00    +0.304 C 
ATOM     26  O   LIG    1       23.623 -28.955   6.174  0.00  0.00    -0.251 OA
ATOM     27  C   LIG    1       24.930 -26.977   5.807  0.00  0.00    +0.136 C 
ENDBRANCH  24  25
ENDBRANCH   3  24
TORSDOF 8
ENDMDL
MODEL 8
REMARK VINA RESULT:      -6.2      1.638      4.343
REMARK  Name = *****
REMARK                            x       y       z     vdW  Elec       q    Type
REMARK                         _______ _______ _______ _____ _____    ______ ____
ROOT
ATOM      1  C   LIG    1       25.233 -20.541   4.355  0.00  0.00    +0.203 C 
ATOM      2  C   LIG    1       24.762 -21.370   5.562  0.00  0.00    +0.253 C 
ATOM      3  C   LIG    1       25.893 -21.093   6.565  0.00  0.00    +0.269 C 
ATOM      4  C   LIG    1       27.126 -21.100   5.629  0.00  0.00    +0.268 C 
ATOM      5  O   LIG    1       26.674 -20.557   4.367  0.00  0.00    -0.342 OA
ENDROOT
BRANCH   4   6
ATOM      6  N   LIG    1       28.290 -20.328   6.082  0.00  0.00    -0.270 N 
ATOM      7  C   LIG    1       29.128 -20.908   7.032  0.00  0.00    +0.331 C 
ATOM      8  O   LIG    1       28.952 -22.026   7.514  0.00  0.00    -0.246 OA
ATOM      9  N   LIG    1       30.209 -20.153   7.414  0.00  0.00    -0.275 N 
ATOM     10  H   LIG    1       30.821 -20.554   8.108  0.00  0.00    +0.173 HD
ATOM     11  C   LIG    1       30.515 -18.896   6.977  0.00  0.00    +0.254 C 
ATOM     12  O   LIG    1       31.477 -18.260   7.381  0.00  0.00    -0.268 OA
ATOM     13  C   LIG    1       29.609 -18.346   5.959  0.00  0.00    +0.088 C 
ATOM     14  C   LIG    1       28.560 -19.071   5.568  0.00  0.00    +0.098 C 
ENDBRANCH   4   6
BRANCH   1  15
ATOM     15  C   LIG    1       24.754 -19.074   4.402  0.00  0.00    +0.267 C 
BRANCH  15  16
ATOM     16  O   LIG    1       23.578 -18.961   3.596  0.00  0.00    -0.462 OA
BRANCH  16  18
ATOM     17  C   LIG    1       22.112 -17.439   4.604  0.00  0.00    +0.136 C 
ATOM     18  C   LIG    1       22.413 -18.881   4.306  0.00  0.00    +0.304 C 
ATOM     19  O   LIG    1       21.787 -19.824   4.749  0.00  0.00    -0.251 OA
ENDBRANCH  16  18
ENDBRANCH  15  16
ENDBRANCH   1  15
BRANCH   2  20
ATOM     20  O   LIG    1       24.763 -22.792   5.270  0.00  0.00    -0.455 OA
BRANCH  20  21
ATOM     21  C   LIG    1       23.936 -23.566   6.039  0.00  0.00    +0.304 C 
ATOM     22  O   LIG    1       22.946 -23.171   6.625  0.00  0.00    -0.251 OA
ATOM     23  C   LIG    1       24.494 -24.961   6.118  0.00  0.00    +0.136 C 
ENDBRANCH  20  21
ENDBRANCH   2  20
BRANCH   3  24
ATOM     24  O   LIG    1       25.915 -22.049   7.639  0.00  0.00    -0.453 OA
BRANCH  24  25
ATOM     25  C   LIG    1       25.712 -21.527   8.878  0.00  0.00    +0.304 C 
ATOM     26  O   LIG    1       25.261 -22.168   9.830  0.00  0.00    -0.251 OA
ATOM     27  C   LIG    1       26.203 -20.123   9.002  0.00  0.00    +0.136 C 
ENDBRANCH  24  25
ENDBRANCH   3  24
TORSDOF 8
ENDMDL
MODEL 9
REMARK VINA RESULT:      -6.1      1.593      1.981
REMARK  Name = *****
REMARK                            x       y       z     vdW  Elec       q    Type
REMARK                         _______ _______ _______ _____ _____    ______ ____
ROOT
ATOM      1  C   LIG    1       25.622 -21.958   7.278  0.00  0.00    +0.203 C 
ATOM      2  C   LIG    1       25.580 -21.198   5.942  0.00  0.00    +0.253 C 
ATOM      3  C   LIG    1       26.969 -20.541   5.936  0.00  0.00    +0.269 C 
ATOM      4  C   LIG    1       27.119 -20.153   7.427  0.00  0.00    +0.268 C 
ATOM      5  O   LIG    1       26.438 -21.185   8.179  0.00  0.00    -0.342 OA
ENDROOT
BRANCH   4   6
ATOM      6  N   LIG    1       28.492 -20.032   7.933  0.00  0.00    -0.270 N 
ATOM      7  C   LIG    1       29.332 -21.137   7.811  0.00  0.00    +0.331 C 
ATOM      8  O   LIG    1       28.993 -22.206   7.304  0.00  0.00    -0.246 OA
ATOM      9  N   LIG    1       30.608 -20.971   8.286  0.00  0.00    -0.275 N 
ATOM     10  H   LIG    1       31.228 -21.764   8.214  0.00  0.00    +0.173 HD
ATOM     11  C   LIG    1       31.111 -19.852   8.885  0.00  0.00    +0.254 C 
ATOM     12  O   LIG    1       32.251 -19.776   9.319  0.00  0.00    -0.268 OA
ATOM     13  C   LIG    1       30.187 -18.712   8.964  0.00  0.00    +0.088 C 
ATOM     14  C   LIG    1       28.946 -18.852   8.497  0.00  0.00    +0.098 C 
ENDBRANCH   4   6
BRANCH   1  15
ATOM     15  C   LIG    1       26.227 -23.373   7.154  0.00  0.00    +0.267 C 
BRANCH  15  16
ATOM     16  O   LIG    1       25.155 -24.306   6.998  0.00  0.00    -0.462 OA
BRANCH  16  18
ATOM     17  C   LIG    1       24.147 -25.989   5.718  0.00  0.00    +0.136 C 
ATOM     18  C   LIG    1       25.434 -25.353   6.163  0.00  0.00    +0.304 C 
ATOM     19  O   LIG    1       26.542 -25.792   5.924  0.00  0.00    -0.251 OA
ENDBRANCH  16  18
ENDBRANCH  15  16
ENDBRANCH   1  15
BRANCH   2  20
ATOM     20  O   LIG    1       24.587 -20.141   5.956  0.00  0.00    -0.455 OA
BRANCH  20  21
ATOM     21  C   LIG    1       23.741 -20.092   4.880  0.00  0.00    +0.304 C 
ATOM     22  O   LIG    1       23.989 -19.563   3.814  0.00  0.00    -0.251 OA
ATOM     23  C   LIG    1       22.424 -20.715   5.256  0.00  0.00    +0.136 C 
ENDBRANCH  20  21
ENDBRANCH   2  20
BRANCH   3  24
ATOM     24  O   LIG    1       27.056 -19.458   4.994  0.00  0.00    -0.453 OA
BRANCH  24  25
ATOM     25  C   LIG    1       28.254 -18.814   4.967  0.00  0.00    +0.304 C 
ATOM     26  O   LIG    1       29.340 -19.373   5.135  0.00  0.00    -0.251 OA
ATOM     27  C   LIG    1       28.127 -17.375   4.592  0.00  0.00    +0.136 C 
ENDBRANCH  24  25
ENDBRANCH   3  24
TORSDOF 8
ENDMDL
