MODEL 1
REMARK VINA RESULT:      -9.5      0.000      0.000
REMARK  Name = *****
REMARK                            x       y       z     vdW  Elec       q    Type
REMARK                         _______ _______ _______ _____ _____    ______ ____
ROOT
ATOM      1  C   LIG    1       29.749 -20.957   8.043  0.00  0.00    +0.125 A 
ATOM      2  C   LIG    1       29.885 -20.120   6.935  0.00  0.00    +0.069 A 
ATOM      3 CL   LIG    1       31.335 -19.258   6.563  0.00  0.00    -0.082 Cl
ATOM      4  C   LIG    1       28.798 -19.938   6.062  0.00  0.00    +0.047 A 
ATOM      5  C   LIG    1       27.576 -20.597   6.257  0.00  0.00    +0.057 A 
ATOM      6  N   LIG    1       26.500 -20.276   5.433  0.00  0.00    -0.324 N 
ATOM      7  H   LIG    1       26.782 -20.015   4.487  0.00  0.00    +0.148 HD
ATOM      8  C   LIG    1       25.269 -21.067   5.458  0.00  0.00    +0.192 C 
ATOM      9  N   LIG    1       24.863 -21.250   6.857  0.00  0.00    -0.167 NA
ATOM     10  H   LIG    1       23.932 -21.663   6.943  0.00  0.00    +0.150 HD
ATOM     11  S   LIG    1       25.946 -22.215   7.692  0.00  0.00    +0.062 S 
ATOM     12  O   LIG    1       25.969 -23.500   7.032  0.00  0.00    -0.153 OA
ATOM     13  O   LIG    1       25.628 -22.086   9.095  0.00  0.00    -0.153 OA
ATOM     14  C   LIG    1       27.474 -21.420   7.378  0.00  0.00    +0.128 A 
ATOM     15  C   LIG    1       28.535 -21.612   8.271  0.00  0.00    +0.060 A 
ENDROOT
BRANCH   1  16
ATOM     16  S   LIG    1       31.095 -21.162   9.161  0.00  0.00    +0.057 S 
ATOM     17  O   LIG    1       31.777 -19.900   9.299  0.00  0.00    -0.153 OA
ATOM     18  O   LIG    1       30.649 -21.960  10.280  0.00  0.00    -0.153 OA
BRANCH  16  19
ATOM     19  N   LIG    1       32.185 -22.151   8.343  0.00  0.00    -0.203 NA
ATOM     20  H   LIG    1       33.137 -21.842   8.546  0.00  0.00    +0.144 HD
ATOM     21  H   LIG    1       32.016 -23.125   8.604  0.00  0.00    +0.144 HD
ENDBRANCH  16  19
ENDBRANCH   1  16
BRANCH   8  22
ATOM     22  C   LIG    1       24.138 -20.331   4.671  0.00  0.00    +0.207 C 
ATOM     23 CL   LIG    1       24.786 -18.907   3.798  0.00  0.00    -0.101 Cl
ATOM     24 CL   LIG    1       22.832 -19.793   5.772  0.00  0.00    -0.101 Cl
ENDBRANCH   8  22
TORSDOF 3
ENDMDL
MODEL 2
REMARK VINA RESULT:      -7.5      3.218      3.603
REMARK  Name = *****
REMARK                            x       y       z     vdW  Elec       q    Type
REMARK                         _______ _______ _______ _____ _____    ______ ____
ROOT
ATOM      1  C   LIG    1       29.084 -20.013   6.962  0.00  0.00    +0.125 A 
ATOM      2  C   LIG    1       29.264 -21.091   7.829  0.00  0.00    +0.069 A 
ATOM      3 CL   LIG    1       30.691 -21.330   8.771  0.00  0.00    -0.082 Cl
ATOM      4  C   LIG    1       28.252 -22.059   7.955  0.00  0.00    +0.047 A 
ATOM      5  C   LIG    1       27.044 -21.961   7.249  0.00  0.00    +0.057 A 
ATOM      6  N   LIG    1       26.137 -23.016   7.319  0.00  0.00    -0.324 N 
ATOM      7  H   LIG    1       26.153 -23.501   8.217  0.00  0.00    +0.148 HD
ATOM      8  C   LIG    1       24.787 -22.886   6.771  0.00  0.00    +0.192 C 
ATOM      9  N   LIG    1       24.887 -22.327   5.417  0.00  0.00    -0.167 NA
ATOM     10  H   LIG    1       23.995 -22.351   4.918  0.00  0.00    +0.150 HD
ATOM     11  S   LIG    1       25.434 -20.746   5.441  0.00  0.00    +0.062 S 
ATOM     12  O   LIG    1       24.480 -19.976   6.204  0.00  0.00    -0.153 OA
ATOM     13  O   LIG    1       25.780 -20.400   4.082  0.00  0.00    -0.153 OA
ATOM     14  C   LIG    1       26.903 -20.874   6.387  0.00  0.00    +0.128 A 
ATOM     15  C   LIG    1       27.897 -19.901   6.232  0.00  0.00    +0.060 A 
ENDROOT
BRANCH   1  16
ATOM     16  S   LIG    1       30.363 -18.815   6.771  0.00  0.00    +0.057 S 
ATOM     17  O   LIG    1       30.196 -17.797   7.779  0.00  0.00    -0.153 OA
ATOM     18  O   LIG    1       31.608 -19.503   6.524  0.00  0.00    -0.153 OA
BRANCH  16  19
ATOM     19  N   LIG    1       30.010 -18.041   5.318  0.00  0.00    -0.203 NA
ATOM     20  H   LIG    1       30.790 -17.431   5.064  0.00  0.00    +0.144 HD
ATOM     21  H   LIG    1       29.803 -18.743   4.604  0.00  0.00    +0.144 HD
ENDBRANCH  16  19
ENDBRANCH   1  16
BRANCH   8  22
ATOM     22  C   LIG    1       24.089 -24.284   6.716  0.00  0.00    +0.207 C 
ATOM     23 CL   LIG    1       24.611 -25.205   5.271  0.00  0.00    -0.101 Cl
ATOM     24 CL   LIG    1       22.307 -24.113   6.686  0.00  0.00    -0.101 Cl
ENDBRANCH   8  22
TORSDOF 3
ENDMDL
MODEL 3
REMARK VINA RESULT:      -7.0      2.793      6.365
REMARK  Name = *****
REMARK                            x       y       z     vdW  Elec       q    Type
REMARK                         _______ _______ _______ _____ _____    ______ ____
ROOT
ATOM      1  C   LIG    1       24.799 -20.274   4.980  0.00  0.00    +0.125 A 
ATOM      2  C   LIG    1       25.798 -19.574   4.303  0.00  0.00    +0.069 A 
ATOM      3 CL   LIG    1       25.570 -18.848   2.753  0.00  0.00    -0.082 Cl
ATOM      4  C   LIG    1       27.073 -19.446   4.882  0.00  0.00    +0.047 A 
ATOM      5  C   LIG    1       27.368 -19.983   6.143  0.00  0.00    +0.057 A 
ATOM      6  N   LIG    1       28.682 -19.934   6.604  0.00  0.00    -0.324 N 
ATOM      7  H   LIG    1       29.191 -19.111   6.279  0.00  0.00    +0.148 HD
ATOM      8  C   LIG    1       29.011 -20.295   7.983  0.00  0.00    +0.192 C 
ATOM      9  N   LIG    1       28.359 -21.572   8.297  0.00  0.00    -0.167 NA
ATOM     10  H   LIG    1       28.668 -21.959   9.192  0.00  0.00    +0.150 HD
ATOM     11  S   LIG    1       26.693 -21.420   8.337  0.00  0.00    +0.062 S 
ATOM     12  O   LIG    1       26.377 -20.459   9.368  0.00  0.00    -0.153 OA
ATOM     13  O   LIG    1       26.149 -22.759   8.352  0.00  0.00    -0.153 OA
ATOM     14  C   LIG    1       26.347 -20.682   6.787  0.00  0.00    +0.128 A 
ATOM     15  C   LIG    1       25.072 -20.836   6.231  0.00  0.00    +0.060 A 
ENDROOT
BRANCH   1  16
ATOM     16  S   LIG    1       23.209 -20.470   4.245  0.00  0.00    +0.057 S 
ATOM     17  O   LIG    1       22.501 -19.217   4.336  0.00  0.00    -0.153 OA
ATOM     18  O   LIG    1       23.355 -21.222   3.021  0.00  0.00    -0.153 OA
BRANCH  16  19
ATOM     19  N   LIG    1       22.382 -21.506   5.284  0.00  0.00    -0.203 NA
ATOM     20  H   LIG    1       21.605 -21.000   5.714  0.00  0.00    +0.144 HD
ATOM     21  H   LIG    1       22.082 -22.334   4.764  0.00  0.00    +0.144 HD
ENDBRANCH  16  19
ENDBRANCH   1  16
BRANCH   8  22
ATOM     22  C   LIG    1       30.559 -20.436   8.150  0.00  0.00    +0.207 C 
ATOM     23 CL   LIG    1       30.971 -21.901   9.094  0.00  0.00    -0.101 Cl
ATOM     24 CL   LIG    1       31.251 -19.002   8.969  0.00  0.00    -0.101 Cl
ENDBRANCH   8  22
TORSDOF 3
ENDMDL
MODEL 4
REMARK VINA RESULT:      -6.9      3.302      6.638
REMARK  Name = *****
REMARK                            x       y       z     vdW  Elec       q    Type
REMARK                         _______ _______ _______ _____ _____    ______ ____
ROOT
ATOM      1  C   LIG    1       26.172 -20.539   6.045  0.00  0.00    +0.125 A 
ATOM      2  C   LIG    1       26.065 -20.918   7.384  0.00  0.00    +0.069 A 
ATOM      3 CL   LIG    1       24.710 -21.771   8.029  0.00  0.00    -0.082 Cl
ATOM      4  C   LIG    1       27.095 -20.590   8.283  0.00  0.00    +0.047 A 
ATOM      5  C   LIG    1       28.250 -19.911   7.869  0.00  0.00    +0.057 A 
ATOM      6  N   LIG    1       29.171 -19.504   8.831  0.00  0.00    -0.324 N 
ATOM      7  H   LIG    1       29.223 -20.136   9.631  0.00  0.00    +0.148 HD
ATOM      8  C   LIG    1       30.479 -18.972   8.444  0.00  0.00    +0.192 C 
ATOM      9  N   LIG    1       30.278 -17.959   7.402  0.00  0.00    -0.167 NA
ATOM     10  H   LIG    1       31.133 -17.439   7.192  0.00  0.00    +0.150 HD
ATOM     11  S   LIG    1       29.716 -18.639   5.980  0.00  0.00    +0.062 S 
ATOM     12  O   LIG    1       30.712 -19.587   5.537  0.00  0.00    -0.153 OA
ATOM     13  O   LIG    1       29.273 -17.551   5.140  0.00  0.00    -0.153 OA
ATOM     14  C   LIG    1       28.318 -19.543   6.526  0.00  0.00    +0.128 A 
ATOM     15  C   LIG    1       27.304 -19.844   5.609  0.00  0.00    +0.060 A 
ENDROOT
BRANCH   1  16
ATOM     16  S   LIG    1       24.870 -20.914   4.918  0.00  0.00    +0.057 S 
ATOM     17  O   LIG    1       24.801 -22.345   4.752  0.00  0.00    -0.153 OA
ATOM     18  O   LIG    1       23.729 -20.088   5.239  0.00  0.00    -0.153 OA
BRANCH  16  19
ATOM     19  N   LIG    1       25.410 -20.335   3.432  0.00  0.00    -0.203 NA
ATOM     20  H   LIG    1       24.639 -19.861   2.956  0.00  0.00    +0.144 HD
ATOM     21  H   LIG    1       26.220 -19.729   3.582  0.00  0.00    +0.144 HD
ENDBRANCH  16  19
ENDBRANCH   1  16
BRANCH   8  22
ATOM     22  C   LIG    1       31.187 -18.328   9.680  0.00  0.00    +0.207 C 
ATOM     23 CL   LIG    1       29.991 -17.590  10.791  0.00  0.00    -0.101 Cl
ATOM     24 CL   LIG    1       32.358 -17.073   9.169  0.00  0.00    -0.101 Cl
ENDBRANCH   8  22
TORSDOF 3
ENDMDL
