MODEL 1
REMARK VINA RESULT:      -3.3      0.000      0.000
REMARK  Name = *****
REMARK                            x       y       z     vdW  Elec       q    Type
REMARK                         _______ _______ _______ _____ _____    ______ ____
ROOT
ATOM      1  C   LIG    1       25.355 -15.277   4.022  0.00  0.00    +0.106 C 
ENDROOT
BRANCH   1   5
ATOM      2  C   LIG    1       22.652 -18.700   4.178  0.00  0.00    +0.008 A 
ATOM      3  C   LIG    1       23.918 -18.828   3.733  0.00  0.00    +0.015 A 
ATOM      4  C   LIG    1       24.729 -17.706   3.544  0.00  0.00    +0.006 A 
ATOM      5  C   LIG    1       24.356 -16.428   4.018  0.00  0.00    -0.030 A 
ATOM      6  C   LIG    1       23.062 -16.306   4.472  0.00  0.00    +0.006 A 
ATOM      7  C   LIG    1       22.198 -17.413   4.539  0.00  0.00    +0.015 A 
BRANCH   2   8
ATOM      8  S   LIG    1       21.583 -20.118   4.181  0.00  0.00    -0.125 S 
BRANCH   8   9
ATOM      9  C   LIG    1       22.419 -21.118   5.468  0.00  0.00    +0.074 C 
BRANCH   9  10
ATOM     10  C   LIG    1       23.176 -20.306   6.521  0.00  0.00    +0.011 C 
BRANCH  10  12
ATOM     11  C   LIG    1       25.652 -20.662   6.223  0.00  0.00    +0.004 C 
ATOM     12  C   LIG    1       24.430 -21.002   7.059  0.00  0.00    -0.003 C 
ENDBRANCH  10  12
ENDBRANCH   9  10
ENDBRANCH   8   9
ENDBRANCH   2   8
ENDBRANCH   1   5
BRANCH   1  13
ATOM     13  C   LIG    1       24.806 -13.914   3.621  0.00  0.00    -0.030 A 
ATOM     14  C   LIG    1       24.220 -13.040   4.553  0.00  0.00    +0.005 A 
ATOM     15  C   LIG    1       23.658 -11.826   4.177  0.00  0.00    +0.000 A 
ATOM     16  C   LIG    1       23.652 -11.461   2.842  0.00  0.00    +0.000 A 
ATOM     17  C   LIG    1       24.260 -12.283   1.896  0.00  0.00    +0.000 A 
ATOM     18  C   LIG    1       24.850 -13.492   2.284  0.00  0.00    +0.005 A 
ENDBRANCH   1  13
BRANCH   1  19
ATOM     19  S   LIG    1       27.044 -15.629   3.272  0.00  0.00    -0.147 S 
BRANCH  19  20
ATOM     20  C   LIG    1       27.707 -14.007   2.667  0.00  0.00    +0.085 C 
BRANCH  20  21
ATOM     21  C   LIG    1       28.750 -13.398   3.620  0.00  0.00    +0.094 C 
BRANCH  21  22
ATOM     22  N   LIG    1       28.316 -12.505   4.718  0.00  0.00    -0.308 NA
ATOM     23  C   LIG    1       29.342 -11.674   5.342  0.00  0.00    +0.104 C 
ATOM     24  C   LIG    1       27.595 -13.277   5.744  0.00  0.00    +0.104 C 
ENDBRANCH  21  22
ENDBRANCH  20  21
ENDBRANCH  19  20
ENDBRANCH   1  19
TORSDOF 10
ENDMDL
MODEL 2
REMARK VINA RESULT:      -3.0      2.856      8.021
REMARK  Name = *****
REMARK                            x       y       z     vdW  Elec       q    Type
REMARK                         _______ _______ _______ _____ _____    ______ ____
ROOT
ATOM      1  C   LIG    1       26.065 -19.111   4.564  0.00  0.00    +0.106 C 
ENDROOT
BRANCH   1   5
ATOM      2  C   LIG    1       26.867 -14.986   3.386  0.00  0.00    +0.008 A 
ATOM      3  C   LIG    1       25.682 -15.572   3.120  0.00  0.00    +0.015 A 
ATOM      4  C   LIG    1       25.484 -16.932   3.364  0.00  0.00    +0.006 A 
ATOM      5  C   LIG    1       26.413 -17.701   4.101  0.00  0.00    -0.030 A 
ATOM      6  C   LIG    1       27.620 -17.096   4.370  0.00  0.00    +0.006 A 
ATOM      7  C   LIG    1       27.870 -15.761   4.006  0.00  0.00    +0.015 A 
BRANCH   2   8
ATOM      8  S   LIG    1       27.154 -13.318   2.848  0.00  0.00    -0.125 S 
BRANCH   8   9
ATOM      9  C   LIG    1       25.566 -13.005   1.989  0.00  0.00    +0.074 C 
BRANCH   9  10
ATOM     10  C   LIG    1       24.670 -11.960   2.656  0.00  0.00    +0.011 C 
BRANCH  10  12
ATOM     11  C   LIG    1       23.678 -11.519   4.929  0.00  0.00    +0.004 C 
ATOM     12  C   LIG    1       23.802 -12.516   3.790  0.00  0.00    -0.003 C 
ENDBRANCH  10  12
ENDBRANCH   9  10
ENDBRANCH   8   9
ENDBRANCH   2   8
ENDBRANCH   1   5
BRANCH   1  13
ATOM     13  C   LIG    1       27.082 -19.788   5.473  0.00  0.00    -0.030 A 
ATOM     14  C   LIG    1       28.430 -19.394   5.510  0.00  0.00    +0.005 A 
ATOM     15  C   LIG    1       29.373 -20.055   6.288  0.00  0.00    +0.000 A 
ATOM     16  C   LIG    1       28.989 -21.149   7.042  0.00  0.00    +0.000 A 
ATOM     17  C   LIG    1       27.653 -21.543   7.062  0.00  0.00    +0.000 A 
ATOM     18  C   LIG    1       26.702 -20.857   6.298  0.00  0.00    +0.005 A 
ENDBRANCH   1  13
BRANCH   1  19
ATOM     19  S   LIG    1       25.369 -20.274   3.259  0.00  0.00    -0.147 S 
BRANCH  19  20
ATOM     20  C   LIG    1       24.277 -21.480   4.147  0.00  0.00    +0.085 C 
BRANCH  20  21
ATOM     21  C   LIG    1       22.793 -21.074   4.114  0.00  0.00    +0.094 C 
BRANCH  21  22
ATOM     22  N   LIG    1       22.300 -20.003   5.008  0.00  0.00    -0.308 NA
ATOM     23  C   LIG    1       22.544 -18.625   4.588  0.00  0.00    +0.104 C 
ATOM     24  C   LIG    1       22.803 -20.213   6.376  0.00  0.00    +0.104 C 
ENDBRANCH  21  22
ENDBRANCH  20  21
ENDBRANCH  19  20
ENDBRANCH   1  19
TORSDOF 10
ENDMDL
MODEL 3
REMARK VINA RESULT:      -2.5      2.184      3.072
REMARK  Name = *****
REMARK                            x       y       z     vdW  Elec       q    Type
REMARK                         _______ _______ _______ _____ _____    ______ ____
ROOT
ATOM      1  C   LIG    1       25.628 -15.915   3.997  0.00  0.00    +0.106 C 
ENDROOT
BRANCH   1   5
ATOM      2  C   LIG    1       22.797 -19.232   4.176  0.00  0.00    +0.008 A 
ATOM      3  C   LIG    1       24.067 -19.417   3.763  0.00  0.00    +0.015 A 
ATOM      4  C   LIG    1       24.922 -18.331   3.565  0.00  0.00    +0.006 A 
ATOM      5  C   LIG    1       24.588 -17.029   4.000  0.00  0.00    -0.030 A 
ATOM      6  C   LIG    1       23.290 -16.848   4.421  0.00  0.00    +0.006 A 
ATOM      7  C   LIG    1       22.384 -17.920   4.496  0.00  0.00    +0.015 A 
BRANCH   2   8
ATOM      8  S   LIG    1       21.676 -20.609   4.190  0.00  0.00    -0.125 S 
BRANCH   8   9
ATOM      9  C   LIG    1       22.295 -21.481   5.678  0.00  0.00    +0.074 C 
BRANCH   9  10
ATOM     10  C   LIG    1       23.175 -20.634   6.600  0.00  0.00    +0.011 C 
BRANCH  10  12
ATOM     11  C   LIG    1       25.647 -20.403   7.022  0.00  0.00    +0.004 C 
ATOM     12  C   LIG    1       24.453 -21.340   7.062  0.00  0.00    -0.003 C 
ENDBRANCH  10  12
ENDBRANCH   9  10
ENDBRANCH   8   9
ENDBRANCH   2   8
ENDBRANCH   1   5
BRANCH   1  13
ATOM     13  C   LIG    1       25.159 -14.563   3.478  0.00  0.00    -0.030 A 
ATOM     14  C   LIG    1       25.683 -13.989   2.307  0.00  0.00    +0.005 A 
ATOM     15  C   LIG    1       25.305 -12.725   1.870  0.00  0.00    +0.000 A 
ATOM     16  C   LIG    1       24.398 -11.989   2.611  0.00  0.00    +0.000 A 
ATOM     17  C   LIG    1       23.827 -12.542   3.755  0.00  0.00    +0.000 A 
ATOM     18  C   LIG    1       24.190 -13.827   4.176  0.00  0.00    +0.005 A 
ENDBRANCH   1  13
BRANCH   1  19
ATOM     19  S   LIG    1       27.346 -16.374   3.383  0.00  0.00    -0.147 S 
BRANCH  19  20
ATOM     20  C   LIG    1       28.299 -16.968   4.858  0.00  0.00    +0.085 C 
BRANCH  20  21
ATOM     21  C   LIG    1       28.515 -18.492   4.853  0.00  0.00    +0.094 C 
BRANCH  21  22
ATOM     22  N   LIG    1       29.335 -19.124   5.909  0.00  0.00    -0.308 NA
ATOM     23  C   LIG    1       28.928 -20.453   6.359  0.00  0.00    +0.104 C 
ATOM     24  C   LIG    1       29.466 -18.217   7.062  0.00  0.00    +0.104 C 
ENDBRANCH  21  22
ENDBRANCH  20  21
ENDBRANCH  19  20
ENDBRANCH   1  19
TORSDOF 10
ENDMDL
MODEL 4
REMARK VINA RESULT:      -2.4      1.985      3.731
REMARK  Name = *****
REMARK                            x       y       z     vdW  Elec       q    Type
REMARK                         _______ _______ _______ _____ _____    ______ ____
ROOT
ATOM      1  C   LIG    1       26.617 -15.112   2.898  0.00  0.00    +0.106 C 
ENDROOT
BRANCH   1   5
ATOM      2  C   LIG    1       26.301 -19.158   4.503  0.00  0.00    +0.008 A 
ATOM      3  C   LIG    1       27.416 -18.421   4.679  0.00  0.00    +0.015 A 
ATOM      4  C   LIG    1       27.569 -17.189   4.039  0.00  0.00    +0.006 A 
ATOM      5  C   LIG    1       26.496 -16.555   3.374  0.00  0.00    -0.030 A 
ATOM      6  C   LIG    1       25.361 -17.314   3.199  0.00  0.00    +0.006 A 
ATOM      7  C   LIG    1       25.253 -18.610   3.732  0.00  0.00    +0.015 A 
BRANCH   2   8
ATOM      8  S   LIG    1       26.242 -20.814   5.143  0.00  0.00    -0.125 S 
BRANCH   8   9
ATOM      9  C   LIG    1       25.485 -20.475   6.776  0.00  0.00    +0.074 C 
BRANCH   9  10
ATOM     10  C   LIG    1       24.025 -20.913   6.912  0.00  0.00    +0.011 C 
BRANCH  10  12
ATOM     11  C   LIG    1       22.275 -21.067   5.107  0.00  0.00    +0.004 C 
ATOM     12  C   LIG    1       23.057 -20.134   6.016  0.00  0.00    -0.003 C 
ENDBRANCH  10  12
ENDBRANCH   9  10
ENDBRANCH   8   9
ENDBRANCH   2   8
ENDBRANCH   1   5
BRANCH   1  13
ATOM     13  C   LIG    1       27.385 -14.168   3.813  0.00  0.00    -0.030 A 
ATOM     14  C   LIG    1       27.030 -13.978   5.159  0.00  0.00    +0.005 A 
ATOM     15  C   LIG    1       27.688 -13.065   5.975  0.00  0.00    +0.000 A 
ATOM     16  C   LIG    1       28.716 -12.300   5.455  0.00  0.00    +0.000 A 
ATOM     17  C   LIG    1       29.122 -12.490   4.136  0.00  0.00    +0.000 A 
ATOM     18  C   LIG    1       28.475 -13.431   3.325  0.00  0.00    +0.005 A 
ENDBRANCH   1  13
BRANCH   1  19
ATOM     19  S   LIG    1       25.061 -14.330   2.187  0.00  0.00    -0.147 S 
BRANCH  19  20
ATOM     20  C   LIG    1       25.196 -12.506   2.488  0.00  0.00    +0.085 C 
BRANCH  20  21
ATOM     21  C   LIG    1       23.920 -11.908   3.107  0.00  0.00    +0.094 C 
BRANCH  21  22
ATOM     22  N   LIG    1       23.570 -12.210   4.512  0.00  0.00    -0.308 NA
ATOM     23  C   LIG    1       24.263 -11.447   5.548  0.00  0.00    +0.104 C 
ATOM     24  C   LIG    1       23.707 -13.654   4.770  0.00  0.00    +0.104 C 
ENDBRANCH  21  22
ENDBRANCH  20  21
ENDBRANCH  19  20
ENDBRANCH   1  19
TORSDOF 10
ENDMDL
MODEL 5
REMARK VINA RESULT:      -1.7      2.918      7.697
REMARK  Name = *****
REMARK                            x       y       z     vdW  Elec       q    Type
REMARK                         _______ _______ _______ _____ _____    ______ ____
ROOT
ATOM      1  C   LIG    1       25.676 -19.141   4.243  0.00  0.00    +0.106 C 
ENDROOT
BRANCH   1   5
ATOM      2  C   LIG    1       25.621 -14.901   3.210  0.00  0.00    +0.008 A 
ATOM      3  C   LIG    1       24.516 -15.525   3.667  0.00  0.00    +0.015 A 
ATOM      4  C   LIG    1       24.499 -16.908   3.853  0.00  0.00    +0.006 A 
ATOM      5  C   LIG    1       25.679 -17.684   3.797  0.00  0.00    -0.030 A 
ATOM      6  C   LIG    1       26.803 -17.040   3.330  0.00  0.00    +0.006 A 
ATOM      7  C   LIG    1       26.789 -15.670   3.016  0.00  0.00    +0.015 A 
BRANCH   2   8
ATOM      8  S   LIG    1       25.530 -13.184   2.765  0.00  0.00    -0.125 S 
BRANCH   8   9
ATOM      9  C   LIG    1       27.289 -12.725   2.993  0.00  0.00    +0.074 C 
BRANCH   9  10
ATOM     10  C   LIG    1       27.854 -13.015   4.385  0.00  0.00    +0.011 C 
BRANCH  10  12
ATOM     11  C   LIG    1       27.238 -13.904   6.660  0.00  0.00    +0.004 C 
ATOM     12  C   LIG    1       26.798 -13.036   5.494  0.00  0.00    -0.003 C 
ENDBRANCH  10  12
ENDBRANCH   9  10
ENDBRANCH   8   9
ENDBRANCH   2   8
ENDBRANCH   1   5
BRANCH   1  13
ATOM     13  C   LIG    1       26.793 -19.553   5.192  0.00  0.00    -0.030 A 
ATOM     14  C   LIG    1       28.088 -19.014   5.103  0.00  0.00    +0.005 A 
ATOM     15  C   LIG    1       29.125 -19.439   5.924  0.00  0.00    +0.000 A 
ATOM     16  C   LIG    1       28.894 -20.438   6.854  0.00  0.00    +0.000 A 
ATOM     17  C   LIG    1       27.613 -20.966   6.999  0.00  0.00    +0.000 A 
ATOM     18  C   LIG    1       26.565 -20.514   6.188  0.00  0.00    +0.005 A 
ENDBRANCH   1  13
BRANCH   1  19
ATOM     19  S   LIG    1       25.347 -20.425   2.908  0.00  0.00    -0.147 S 
BRANCH  19  20
ATOM     20  C   LIG    1       23.733 -21.234   3.333  0.00  0.00    +0.085 C 
BRANCH  20  21
ATOM     21  C   LIG    1       23.612 -21.572   4.829  0.00  0.00    +0.094 C 
BRANCH  21  22
ATOM     22  N   LIG    1       22.711 -20.779   5.694  0.00  0.00    -0.308 NA
ATOM     23  C   LIG    1       22.350 -19.442   5.229  0.00  0.00    +0.104 C 
ATOM     24  C   LIG    1       23.253 -20.711   7.062  0.00  0.00    +0.104 C 
ENDBRANCH  21  22
ENDBRANCH  20  21
ENDBRANCH  19  20
ENDBRANCH   1  19
TORSDOF 10
ENDMDL
MODEL 6
REMARK VINA RESULT:      -1.4      2.671      6.848
REMARK  Name = *****
REMARK                            x       y       z     vdW  Elec       q    Type
REMARK                         _______ _______ _______ _____ _____    ______ ____
ROOT
ATOM      1  C   LIG    1       25.536 -19.215   3.694  0.00  0.00    +0.106 C 
ENDROOT
BRANCH   1   5
ATOM      2  C   LIG    1       27.293 -15.223   3.549  0.00  0.00    +0.008 A 
ATOM      3  C   LIG    1       27.962 -16.263   4.087  0.00  0.00    +0.015 A 
ATOM      4  C   LIG    1       27.340 -17.500   4.266  0.00  0.00    +0.006 A 
ATOM      5  C   LIG    1       26.081 -17.792   3.695  0.00  0.00    -0.030 A 
ATOM      6  C   LIG    1       25.404 -16.725   3.147  0.00  0.00    +0.006 A 
ATOM      7  C   LIG    1       25.978 -15.444   3.084  0.00  0.00    +0.015 A 
BRANCH   2   8
ATOM      8  S   LIG    1       28.039 -13.611   3.554  0.00  0.00    -0.125 S 
BRANCH   8   9
ATOM      9  C   LIG    1       26.524 -12.582   3.552  0.00  0.00    +0.074 C 
BRANCH   9  10
ATOM     10  C   LIG    1       25.630 -12.751   4.782  0.00  0.00    +0.011 C 
BRANCH  10  12
ATOM     11  C   LIG    1       23.884 -12.731   2.967  0.00  0.00    +0.004 C 
ATOM     12  C   LIG    1       24.132 -12.776   4.465  0.00  0.00    -0.003 C 
ENDBRANCH  10  12
ENDBRANCH   9  10
ENDBRANCH   8   9
ENDBRANCH   2   8
ENDBRANCH   1   5
BRANCH   1  13
ATOM     13  C   LIG    1       24.051 -19.364   4.001  0.00  0.00    -0.030 A 
ATOM     14  C   LIG    1       23.129 -18.336   3.746  0.00  0.00    +0.005 A 
ATOM     15  C   LIG    1       21.786 -18.445   4.089  0.00  0.00    +0.000 A 
ATOM     16  C   LIG    1       21.333 -19.592   4.717  0.00  0.00    +0.000 A 
ATOM     17  C   LIG    1       22.211 -20.648   4.948  0.00  0.00    +0.000 A 
ATOM     18  C   LIG    1       23.556 -20.544   4.576  0.00  0.00    +0.005 A 
ENDBRANCH   1  13
BRANCH   1  19
ATOM     19  S   LIG    1       26.589 -20.517   4.551  0.00  0.00    -0.147 S 
BRANCH  19  20
ATOM     20  C   LIG    1       26.627 -20.072   6.351  0.00  0.00    +0.085 C 
BRANCH  20  21
ATOM     21  C   LIG    1       27.941 -20.481   7.038  0.00  0.00    +0.094 C 
BRANCH  21  22
ATOM     22  N   LIG    1       29.210 -19.824   6.655  0.00  0.00    -0.308 NA
ATOM     23  C   LIG    1       29.386 -18.432   7.061  0.00  0.00    +0.104 C 
ATOM     24  C   LIG    1       29.434 -19.961   5.205  0.00  0.00    +0.104 C 
ENDBRANCH  21  22
ENDBRANCH  20  21
ENDBRANCH  19  20
ENDBRANCH   1  19
TORSDOF 10
ENDMDL
MODEL 7
REMARK VINA RESULT:      -1.3      2.422      7.038
REMARK  Name = *****
REMARK                            x       y       z     vdW  Elec       q    Type
REMARK                         _______ _______ _______ _____ _____    ______ ____
ROOT
ATOM      1  C   LIG    1       23.580 -19.376   4.273  0.00  0.00    +0.106 C 
ENDROOT
BRANCH   1   5
ATOM      2  C   LIG    1       26.028 -15.857   3.452  0.00  0.00    +0.008 A 
ATOM      3  C   LIG    1       24.791 -15.743   3.976  0.00  0.00    +0.015 A 
ATOM      4  C   LIG    1       23.957 -16.856   4.097  0.00  0.00    +0.006 A 
ATOM      5  C   LIG    1       24.435 -18.171   3.899  0.00  0.00    -0.030 A 
ATOM      6  C   LIG    1       25.699 -18.280   3.364  0.00  0.00    +0.006 A 
ATOM      7  C   LIG    1       26.494 -17.147   3.118  0.00  0.00    +0.015 A 
BRANCH   2   8
ATOM      8  S   LIG    1       26.964 -14.390   3.100  0.00  0.00    -0.125 S 
BRANCH   8   9
ATOM      9  C   LIG    1       25.846 -13.140   3.838  0.00  0.00    +0.074 C 
BRANCH   9  10
ATOM     10  C   LIG    1       24.496 -12.989   3.134  0.00  0.00    +0.011 C 
BRANCH  10  12
ATOM     11  C   LIG    1       23.487 -11.462   4.865  0.00  0.00    +0.004 C 
ATOM     12  C   LIG    1       23.807 -11.646   3.391  0.00  0.00    -0.003 C 
ENDBRANCH  10  12
ENDBRANCH   9  10
ENDBRANCH   8   9
ENDBRANCH   2   8
ENDBRANCH   1   5
BRANCH   1  13
ATOM     13  C   LIG    1       22.091 -19.259   3.975  0.00  0.00    -0.030 A 
ATOM     14  C   LIG    1       21.181 -20.281   4.296  0.00  0.00    +0.005 A 
ATOM     15  C   LIG    1       19.834 -20.203   3.963  0.00  0.00    +0.000 A 
ATOM     16  C   LIG    1       19.362 -19.097   3.278  0.00  0.00    +0.000 A 
ATOM     17  C   LIG    1       20.227 -18.046   2.980  0.00  0.00    +0.000 A 
ATOM     18  C   LIG    1       21.577 -18.117   3.342  0.00  0.00    +0.005 A 
ENDBRANCH   1  13
BRANCH   1  19
ATOM     19  S   LIG    1       23.926 -20.163   5.946  0.00  0.00    -0.147 S 
BRANCH  19  20
ATOM     20  C   LIG    1       25.641 -20.864   5.860  0.00  0.00    +0.085 C 
BRANCH  20  21
ATOM     21  C   LIG    1       26.511 -20.455   7.061  0.00  0.00    +0.094 C 
BRANCH  21  22
ATOM     22  N   LIG    1       27.937 -20.115   6.858  0.00  0.00    -0.308 NA
ATOM     23  C   LIG    1       28.289 -19.453   5.604  0.00  0.00    +0.104 C 
ATOM     24  C   LIG    1       28.776 -21.308   7.055  0.00  0.00    +0.104 C 
ENDBRANCH  21  22
ENDBRANCH  20  21
ENDBRANCH  19  20
ENDBRANCH   1  19
TORSDOF 10
ENDMDL
MODEL 8
REMARK VINA RESULT:      -1.2      2.282      4.515
REMARK  Name = *****
REMARK                            x       y       z     vdW  Elec       q    Type
REMARK                         _______ _______ _______ _____ _____    ______ ____
ROOT
ATOM      1  C   LIG    1       26.633 -14.963   2.926  0.00  0.00    +0.106 C 
ENDROOT
BRANCH   1   5
ATOM      2  C   LIG    1       26.654 -19.019   4.539  0.00  0.00    +0.008 A 
ATOM      3  C   LIG    1       27.685 -18.176   4.752  0.00  0.00    +0.015 A 
ATOM      4  C   LIG    1       27.741 -16.936   4.111  0.00  0.00    +0.006 A 
ATOM      5  C   LIG    1       26.636 -16.410   3.405  0.00  0.00    -0.030 A 
ATOM      6  C   LIG    1       25.586 -17.276   3.193  0.00  0.00    +0.006 A 
ATOM      7  C   LIG    1       25.586 -18.576   3.729  0.00  0.00    +0.015 A 
BRANCH   2   8
ATOM      8  S   LIG    1       26.733 -20.671   5.185  0.00  0.00    -0.125 S 
BRANCH   8   9
ATOM      9  C   LIG    1       25.776 -20.434   6.729  0.00  0.00    +0.074 C 
BRANCH   9  10
ATOM     10  C   LIG    1       24.396 -21.095   6.738  0.00  0.00    +0.011 C 
BRANCH  10  12
ATOM     11  C   LIG    1       22.369 -21.065   5.243  0.00  0.00    +0.004 C 
ATOM     12  C   LIG    1       23.290 -20.234   6.120  0.00  0.00    -0.003 C 
ENDBRANCH  10  12
ENDBRANCH   9  10
ENDBRANCH   8   9
ENDBRANCH   2   8
ENDBRANCH   1   5
BRANCH   1  13
ATOM     13  C   LIG    1       27.394 -13.970   3.794  0.00  0.00    -0.030 A 
ATOM     14  C   LIG    1       28.460 -13.204   3.294  0.00  0.00    +0.005 A 
ATOM     15  C   LIG    1       29.199 -12.348   4.102  0.00  0.00    +0.000 A 
ATOM     16  C   LIG    1       28.897 -12.250   5.449  0.00  0.00    +0.000 A 
ATOM     17  C   LIG    1       27.820 -12.963   5.971  0.00  0.00    +0.000 A 
ATOM     18  C   LIG    1       27.062 -13.803   5.147  0.00  0.00    +0.005 A 
ENDBRANCH   1  13
BRANCH   1  19
ATOM     19  S   LIG    1       24.988 -14.285   2.317  0.00  0.00    -0.147 S 
BRANCH  19  20
ATOM     20  C   LIG    1       23.964 -13.936   3.823  0.00  0.00    +0.085 C 
BRANCH  20  21
ATOM     21  C   LIG    1       22.732 -14.851   3.930  0.00  0.00    +0.094 C 
BRANCH  21  22
ATOM     22  N   LIG    1       22.691 -15.918   4.954  0.00  0.00    -0.308 NA
ATOM     23  C   LIG    1       22.172 -17.219   4.537  0.00  0.00    +0.104 C 
ATOM     24  C   LIG    1       21.973 -15.446   6.150  0.00  0.00    +0.104 C 
ENDBRANCH  21  22
ENDBRANCH  20  21
ENDBRANCH  19  20
ENDBRANCH   1  19
TORSDOF 10
ENDMDL
MODEL 9
REMARK VINA RESULT:      -1.0      2.498      6.822
REMARK  Name = *****
REMARK                            x       y       z     vdW  Elec       q    Type
REMARK                         _______ _______ _______ _____ _____    ______ ____
ROOT
ATOM      1  C   LIG    1       23.602 -18.987   4.070  0.00  0.00    +0.106 C 
ENDROOT
BRANCH   1   5
ATOM      2  C   LIG    1       24.690 -14.772   3.750  0.00  0.00    +0.008 A 
ATOM      3  C   LIG    1       25.516 -15.744   3.310  0.00  0.00    +0.015 A 
ATOM      4  C   LIG    1       25.231 -17.089   3.550  0.00  0.00    +0.006 A 
ATOM      5  C   LIG    1       23.977 -17.510   4.049  0.00  0.00    -0.030 A 
ATOM      6  C   LIG    1       23.139 -16.512   4.494  0.00  0.00    +0.006 A 
ATOM      7  C   LIG    1       23.483 -15.154   4.374  0.00  0.00    +0.015 A 
BRANCH   2   8
ATOM      8  S   LIG    1       25.202 -13.076   3.632  0.00  0.00    -0.125 S 
BRANCH   8   9
ATOM      9  C   LIG    1       26.693 -13.287   2.588  0.00  0.00    +0.074 C 
BRANCH   9  10
ATOM     10  C   LIG    1       27.950 -13.724   3.344  0.00  0.00    +0.011 C 
BRANCH  10  12
ATOM     11  C   LIG    1       27.368 -13.238   5.746  0.00  0.00    +0.004 C 
ATOM     12  C   LIG    1       28.264 -12.870   4.576  0.00  0.00    -0.003 C 
ENDBRANCH  10  12
ENDBRANCH   9  10
ENDBRANCH   8   9
ENDBRANCH   2   8
ENDBRANCH   1   5
BRANCH   1  13
ATOM     13  C   LIG    1       22.124 -19.305   3.884  0.00  0.00    -0.030 A 
ATOM     14  C   LIG    1       21.227 -18.383   3.318  0.00  0.00    +0.005 A 
ATOM     15  C   LIG    1       19.866 -18.647   3.210  0.00  0.00    +0.000 A 
ATOM     16  C   LIG    1       19.363 -19.844   3.687  0.00  0.00    +0.000 A 
ATOM     17  C   LIG    1       20.229 -20.798   4.217  0.00  0.00    +0.000 A 
ATOM     18  C   LIG    1       21.602 -20.540   4.297  0.00  0.00    +0.005 A 
ENDBRANCH   1  13
BRANCH   1  19
ATOM     19  S   LIG    1       24.408 -20.037   5.406  0.00  0.00    -0.147 S 
BRANCH  19  20
ATOM     20  C   LIG    1       26.230 -20.032   5.061  0.00  0.00    +0.085 C 
BRANCH  20  21
ATOM     21  C   LIG    1       27.070 -20.419   6.291  0.00  0.00    +0.094 C 
BRANCH  21  22
ATOM     22  N   LIG    1       28.349 -19.727   6.559  0.00  0.00    -0.308 NA
ATOM     23  C   LIG    1       28.886 -18.887   5.490  0.00  0.00    +0.104 C 
ATOM     24  C   LIG    1       29.367 -20.696   7.001  0.00  0.00    +0.104 C 
ENDBRANCH  21  22
ENDBRANCH  20  21
ENDBRANCH  19  20
ENDBRANCH   1  19
TORSDOF 10
ENDMDL
