MODEL 1
REMARK VINA RESULT:     -10.2      0.000      0.000
REMARK  Name = *****
REMARK                            x       y       z     vdW  Elec       q    Type
REMARK                         _______ _______ _______ _____ _____    ______ ____
ROOT
ATOM      1  C   LIG    1       24.520 -21.917   7.387  0.00  0.00    +0.092 C 
ENDROOT
BRANCH   1   4
ATOM      2  O   LIG    1       24.584 -20.709   4.922  0.00  0.00    -0.245 OA
ATOM      3  C   LIG    1       25.608 -20.542   5.583  0.00  0.00    +0.344 C 
ATOM      4  C   LIG    1       25.709 -21.091   6.958  0.00  0.00    +0.084 C 
ATOM      5  C   LIG    1       26.817 -20.881   7.689  0.00  0.00    +0.138 C 
ATOM      6  C   LIG    1       27.926 -20.094   7.148  0.00  0.00    +0.059 A 
ATOM      7  C   LIG    1       27.819 -19.587   5.857  0.00  0.00    +0.143 A 
ATOM      8  C   LIG    1       28.819 -18.804   5.282  0.00  0.00    +0.047 A 
ATOM      9  C   LIG    1       29.963 -18.512   6.020  0.00  0.00    +0.004 A 
ATOM     10  C   LIG    1       30.097 -19.011   7.316  0.00  0.00    +0.001 A 
ATOM     11  C   LIG    1       29.086 -19.800   7.875  0.00  0.00    +0.015 A 
ATOM     12  O   LIG    1       26.679 -19.831   5.076  0.00  0.00    -0.422 OA
BRANCH   5  13
ATOM     13  O   LIG    1       27.010 -21.348   8.973  0.00  0.00    -0.505 OA
ATOM     14  H   LIG    1       26.908 -22.324   9.017  0.00  0.00    +0.292 HD
ENDBRANCH   5  13
ENDBRANCH   1   4
BRANCH   1  15
ATOM     15  C   LIG    1       24.563 -23.328   6.849  0.00  0.00    +0.084 C 
ATOM     16  C   LIG    1       23.227 -23.942   6.648  0.00  0.00    +0.344 C 
ATOM     17  O   LIG    1       22.212 -23.254   6.719  0.00  0.00    -0.245 OA
ATOM     18  O   LIG    1       23.161 -25.302   6.406  0.00  0.00    -0.422 OA
ATOM     19  C   LIG    1       24.322 -26.029   6.100  0.00  0.00    +0.143 A 
ATOM     20  C   LIG    1       25.575 -25.428   6.143  0.00  0.00    +0.059 A 
ATOM     21  C   LIG    1       26.683 -26.185   5.743  0.00  0.00    +0.015 A 
ATOM     22  C   LIG    1       26.526 -27.513   5.331  0.00  0.00    +0.001 A 
ATOM     23  C   LIG    1       25.261 -28.103   5.329  0.00  0.00    +0.004 A 
ATOM     24  C   LIG    1       24.150 -27.358   5.715  0.00  0.00    +0.047 A 
ATOM     25  C   LIG    1       25.675 -24.043   6.605  0.00  0.00    +0.138 C 
BRANCH  25  26
ATOM     26  O   LIG    1       26.964 -23.581   6.769  0.00  0.00    -0.505 OA
ATOM     27  H   LIG    1       27.004 -22.832   7.401  0.00  0.00    +0.292 HD
ENDBRANCH  25  26
ENDBRANCH   1  15
TORSDOF 4
ENDMDL
MODEL 2
REMARK VINA RESULT:     -10.2      0.650      1.922
REMARK  Name = *****
REMARK                            x       y       z     vdW  Elec       q    Type
REMARK                         _______ _______ _______ _____ _____    ______ ____
ROOT
ATOM      1  C   LIG    1       24.369 -21.664   7.175  0.00  0.00    +0.092 C 
ENDROOT
BRANCH   1   4
ATOM      2  O   LIG    1       25.627 -21.334   9.594  0.00  0.00    -0.245 OA
ATOM      3  C   LIG    1       26.251 -20.866   8.642  0.00  0.00    +0.344 C 
ATOM      4  C   LIG    1       25.726 -21.008   7.261  0.00  0.00    +0.084 C 
ATOM      5  C   LIG    1       26.426 -20.523   6.220  0.00  0.00    +0.138 C 
ATOM      6  C   LIG    1       27.717 -19.868   6.434  0.00  0.00    +0.059 A 
ATOM      7  C   LIG    1       28.195 -19.740   7.734  0.00  0.00    +0.143 A 
ATOM      8  C   LIG    1       29.429 -19.155   8.016  0.00  0.00    +0.047 A 
ATOM      9  C   LIG    1       30.216 -18.686   6.967  0.00  0.00    +0.004 A 
ATOM     10  C   LIG    1       29.758 -18.800   5.654  0.00  0.00    +0.001 A 
ATOM     11  C   LIG    1       28.515 -19.385   5.389  0.00  0.00    +0.015 A 
ATOM     12  O   LIG    1       27.455 -20.214   8.827  0.00  0.00    -0.422 OA
BRANCH   5  13
ATOM     13  O   LIG    1       26.027 -20.602   4.902  0.00  0.00    -0.505 OA
ATOM     14  H   LIG    1       25.633 -21.479   4.700  0.00  0.00    +0.292 HD
ENDBRANCH   5  13
ENDBRANCH   1   4
BRANCH   1  15
ATOM     15  C   LIG    1       24.445 -23.112   6.750  0.00  0.00    +0.084 C 
ATOM     16  C   LIG    1       23.125 -23.779   6.627  0.00  0.00    +0.344 C 
ATOM     17  O   LIG    1       22.091 -23.117   6.664  0.00  0.00    -0.245 OA
ATOM     18  O   LIG    1       23.096 -25.155   6.496  0.00  0.00    -0.422 OA
ATOM     19  C   LIG    1       24.273 -25.870   6.224  0.00  0.00    +0.143 A 
ATOM     20  C   LIG    1       25.508 -25.232   6.192  0.00  0.00    +0.059 A 
ATOM     21  C   LIG    1       26.631 -25.986   5.830  0.00  0.00    +0.015 A 
ATOM     22  C   LIG    1       26.506 -27.347   5.530  0.00  0.00    +0.001 A 
ATOM     23  C   LIG    1       25.261 -27.972   5.602  0.00  0.00    +0.004 A 
ATOM     24  C   LIG    1       24.135 -27.231   5.951  0.00  0.00    +0.047 A 
ATOM     25  C   LIG    1       25.574 -23.812   6.540  0.00  0.00    +0.138 C 
BRANCH  25  26
ATOM     26  O   LIG    1       26.850 -23.301   6.639  0.00  0.00    -0.505 OA
ATOM     27  H   LIG    1       27.405 -23.555   5.870  0.00  0.00    +0.292 HD
ENDBRANCH  25  26
ENDBRANCH   1  15
TORSDOF 4
ENDMDL
MODEL 3
REMARK VINA RESULT:     -10.2      0.169      6.560
REMARK  Name = *****
REMARK                            x       y       z     vdW  Elec       q    Type
REMARK                         _______ _______ _______ _____ _____    ______ ____
ROOT
ATOM      1  C   LIG    1       24.410 -21.801   7.366  0.00  0.00    +0.092 C 
ENDROOT
BRANCH   1   4
ATOM      2  O   LIG    1       22.123 -23.238   6.868  0.00  0.00    -0.245 OA
ATOM      3  C   LIG    1       23.159 -23.880   6.699  0.00  0.00    +0.344 C 
ATOM      4  C   LIG    1       24.481 -23.229   6.879  0.00  0.00    +0.084 C 
ATOM      5  C   LIG    1       25.611 -23.924   6.663  0.00  0.00    +0.138 C 
ATOM      6  C   LIG    1       25.552 -25.320   6.230  0.00  0.00    +0.059 A 
ATOM      7  C   LIG    1       24.308 -25.919   6.066  0.00  0.00    +0.143 A 
ATOM      8  C   LIG    1       24.169 -27.235   5.628  0.00  0.00    +0.047 A 
ATOM      9  C   LIG    1       25.309 -27.980   5.338  0.00  0.00    +0.004 A 
ATOM     10  C   LIG    1       26.570 -27.404   5.497  0.00  0.00    +0.001 A 
ATOM     11  C   LIG    1       26.691 -26.083   5.942  0.00  0.00    +0.015 A 
ATOM     12  O   LIG    1       23.125 -25.209   6.322  0.00  0.00    -0.422 OA
BRANCH   5  13
ATOM     13  O   LIG    1       26.885 -23.413   6.804  0.00  0.00    -0.505 OA
ATOM     14  H   LIG    1       27.553 -24.130   6.856  0.00  0.00    +0.292 HD
ENDBRANCH   5  13
ENDBRANCH   1   4
BRANCH   1  15
ATOM     15  C   LIG    1       25.634 -20.996   6.997  0.00  0.00    +0.084 C 
ATOM     16  C   LIG    1       25.595 -20.425   5.628  0.00  0.00    +0.344 C 
ATOM     17  O   LIG    1       24.554 -20.449   4.975  0.00  0.00    -0.245 OA
ATOM     18  O   LIG    1       26.761 -19.894   5.106  0.00  0.00    -0.422 OA
ATOM     19  C   LIG    1       27.871 -19.664   5.932  0.00  0.00    +0.143 A 
ATOM     20  C   LIG    1       27.869 -20.064   7.263  0.00  0.00    +0.059 A 
ATOM     21  C   LIG    1       28.974 -19.727   8.055  0.00  0.00    +0.015 A 
ATOM     22  C   LIG    1       30.052 -19.023   7.508  0.00  0.00    +0.001 A 
ATOM     23  C   LIG    1       30.045 -18.662   6.161  0.00  0.00    +0.004 A 
ATOM     24  C   LIG    1       28.948 -18.983   5.365  0.00  0.00    +0.047 A 
ATOM     25  C   LIG    1       26.721 -20.818   7.768  0.00  0.00    +0.138 C 
BRANCH  25  26
ATOM     26  O   LIG    1       26.872 -21.312   9.047  0.00  0.00    -0.505 OA
ATOM     27  H   LIG    1       27.238 -22.222   9.044  0.00  0.00    +0.292 HD
ENDBRANCH  25  26
ENDBRANCH   1  15
TORSDOF 4
ENDMDL
MODEL 4
REMARK VINA RESULT:     -10.2      1.486      6.630
REMARK  Name = *****
REMARK                            x       y       z     vdW  Elec       q    Type
REMARK                         _______ _______ _______ _____ _____    ______ ____
ROOT
ATOM      1  C   LIG    1       25.233 -20.965   6.673  0.00  0.00    +0.092 C 
ENDROOT
BRANCH   1   4
ATOM      2  O   LIG    1       24.422 -21.615   4.132  0.00  0.00    -0.245 OA
ATOM      3  C   LIG    1       24.724 -22.589   4.820  0.00  0.00    +0.344 C 
ATOM      4  C   LIG    1       25.231 -22.400   6.202  0.00  0.00    +0.084 C 
ATOM      5  C   LIG    1       25.590 -23.464   6.941  0.00  0.00    +0.138 C 
ATOM      6  C   LIG    1       25.505 -24.816   6.387  0.00  0.00    +0.059 A 
ATOM      7  C   LIG    1       25.027 -24.979   5.091  0.00  0.00    +0.143 A 
ATOM      8  C   LIG    1       24.944 -26.230   4.482  0.00  0.00    +0.047 A 
ATOM      9  C   LIG    1       25.356 -27.358   5.187  0.00  0.00    +0.004 A 
ATOM     10  C   LIG    1       25.837 -27.222   6.490  0.00  0.00    +0.001 A 
ATOM     11  C   LIG    1       25.908 -25.959   7.087  0.00  0.00    +0.015 A 
ATOM     12  O   LIG    1       24.619 -23.876   4.326  0.00  0.00    -0.422 OA
BRANCH   5  13
ATOM     13  O   LIG    1       26.070 -23.396   8.233  0.00  0.00    -0.505 OA
ATOM     14  H   LIG    1       26.674 -24.144   8.429  0.00  0.00    +0.292 HD
ENDBRANCH   5  13
ENDBRANCH   1   4
BRANCH   1  15
ATOM     15  C   LIG    1       26.602 -20.493   7.103  0.00  0.00    +0.084 C 
ATOM     16  C   LIG    1       26.756 -20.327   8.570  0.00  0.00    +0.344 C 
ATOM     17  O   LIG    1       25.894 -20.754   9.335  0.00  0.00    -0.245 OA
ATOM     18  O   LIG    1       27.873 -19.663   9.041  0.00  0.00    -0.422 OA
ATOM     19  C   LIG    1       28.951 -19.387   8.186  0.00  0.00    +0.143 A 
ATOM     20  C   LIG    1       28.879 -19.671   6.827  0.00  0.00    +0.059 A 
ATOM     21  C   LIG    1       30.021 -19.452   6.046  0.00  0.00    +0.015 A 
ATOM     22  C   LIG    1       31.190 -18.944   6.623  0.00  0.00    +0.001 A 
ATOM     23  C   LIG    1       31.226 -18.634   7.983  0.00  0.00    +0.004 A 
ATOM     24  C   LIG    1       30.101 -18.857   8.772  0.00  0.00    +0.047 A 
ATOM     25  C   LIG    1       27.620 -20.179   6.282  0.00  0.00    +0.138 C 
BRANCH  25  26
ATOM     26  O   LIG    1       27.586 -20.281   4.907  0.00  0.00    -0.505 OA
ATOM     27  H   LIG    1       27.367 -21.192   4.615  0.00  0.00    +0.292 HD
ENDBRANCH  25  26
ENDBRANCH   1  15
TORSDOF 4
ENDMDL
MODEL 5
REMARK VINA RESULT:      -9.2      3.440      7.949
REMARK  Name = *****
REMARK                            x       y       z     vdW  Elec       q    Type
REMARK                         _______ _______ _______ _____ _____    ______ ____
ROOT
ATOM      1  C   LIG    1       29.331 -20.873   6.848  0.00  0.00    +0.092 C 
ENDROOT
BRANCH   1   4
ATOM      2  O   LIG    1       27.879 -21.957   8.912  0.00  0.00    -0.245 OA
ATOM      3  C   LIG    1       27.187 -21.541   7.983  0.00  0.00    +0.344 C 
ATOM      4  C   LIG    1       27.822 -20.881   6.815  0.00  0.00    +0.084 C 
ATOM      5  C   LIG    1       27.062 -20.400   5.816  0.00  0.00    +0.138 C 
ATOM      6  C   LIG    1       25.603 -20.502   5.878  0.00  0.00    +0.059 A 
ATOM      7  C   LIG    1       25.021 -21.124   6.977  0.00  0.00    +0.143 A 
ATOM      8  C   LIG    1       23.639 -21.235   7.123  0.00  0.00    +0.047 A 
ATOM      9  C   LIG    1       22.807 -20.703   6.141  0.00  0.00    +0.004 A 
ATOM     10  C   LIG    1       23.365 -20.076   5.027  0.00  0.00    +0.001 A 
ATOM     11  C   LIG    1       24.755 -19.979   4.894  0.00  0.00    +0.015 A 
ATOM     12  O   LIG    1       25.811 -21.658   8.007  0.00  0.00    -0.422 OA
BRANCH   5  13
ATOM     13  O   LIG    1       27.552 -19.773   4.689  0.00  0.00    -0.505 OA
ATOM     14  H   LIG    1       28.486 -20.024   4.520  0.00  0.00    +0.292 HD
ENDBRANCH   5  13
ENDBRANCH   1   4
BRANCH   1  15
ATOM     15  C   LIG    1       29.893 -19.715   7.638  0.00  0.00    +0.084 C 
ATOM     16  C   LIG    1       30.051 -18.464   6.854  0.00  0.00    +0.344 C 
ATOM     17  O   LIG    1       29.557 -18.369   5.733  0.00  0.00    -0.245 OA
ATOM     18  O   LIG    1       30.787 -17.433   7.407  0.00  0.00    -0.422 OA
ATOM     19  C   LIG    1       31.148 -17.462   8.763  0.00  0.00    +0.143 A 
ATOM     20  C   LIG    1       30.876 -18.573   9.553  0.00  0.00    +0.059 A 
ATOM     21  C   LIG    1       31.183 -18.504  10.917  0.00  0.00    +0.015 A 
ATOM     22  C   LIG    1       31.765 -17.351  11.457  0.00  0.00    +0.001 A 
ATOM     23  C   LIG    1       32.060 -16.262  10.636  0.00  0.00    +0.004 A 
ATOM     24  C   LIG    1       31.749 -16.315   9.280  0.00  0.00    +0.047 A 
ATOM     25  C   LIG    1       30.287 -19.756   8.923  0.00  0.00    +0.138 C 
BRANCH  25  26
ATOM     26  O   LIG    1       30.200 -20.862   9.741  0.00  0.00    -0.505 OA
ATOM     27  H   LIG    1       29.971 -21.671   9.235  0.00  0.00    +0.292 HD
ENDBRANCH  25  26
ENDBRANCH   1  15
TORSDOF 4
ENDMDL
MODEL 6
REMARK VINA RESULT:      -9.0      3.256      5.060
REMARK  Name = *****
REMARK                            x       y       z     vdW  Elec       q    Type
REMARK                         _______ _______ _______ _____ _____    ______ ____
ROOT
ATOM      1  C   LIG    1       29.081 -20.899   6.708  0.00  0.00    +0.092 C 
ENDROOT
BRANCH   1   4
ATOM      2  O   LIG    1       29.214 -18.363   5.662  0.00  0.00    -0.245 OA
ATOM      3  C   LIG    1       29.687 -18.458   6.794  0.00  0.00    +0.344 C 
ATOM      4  C   LIG    1       29.645 -19.755   7.516  0.00  0.00    +0.084 C 
ATOM      5  C   LIG    1       30.134 -19.848   8.765  0.00  0.00    +0.138 C 
ATOM      6  C   LIG    1       30.694 -18.673   9.433  0.00  0.00    +0.059 A 
ATOM      7  C   LIG    1       30.729 -17.465   8.744  0.00  0.00    +0.143 A 
ATOM      8  C   LIG    1       31.220 -16.295   9.322  0.00  0.00    +0.047 A 
ATOM      9  C   LIG    1       31.688 -16.328  10.633  0.00  0.00    +0.004 A 
ATOM     10  C   LIG    1       31.667 -17.528  11.345  0.00  0.00    +0.001 A 
ATOM     11  C   LIG    1       31.176 -18.694  10.748  0.00  0.00    +0.015 A 
ATOM     12  O   LIG    1       30.251 -17.368   7.429  0.00  0.00    -0.422 OA
BRANCH   5  13
ATOM     13  O   LIG    1       30.144 -21.003   9.519  0.00  0.00    -0.505 OA
ATOM     14  H   LIG    1       29.953 -21.792   8.966  0.00  0.00    +0.292 HD
ENDBRANCH   5  13
ENDBRANCH   1   4
BRANCH   1  15
ATOM     15  C   LIG    1       27.571 -20.935   6.719  0.00  0.00    +0.084 C 
ATOM     16  C   LIG    1       26.988 -21.632   7.892  0.00  0.00    +0.344 C 
ATOM     17  O   LIG    1       27.699 -21.942   8.845  0.00  0.00    -0.245 OA
ATOM     18  O   LIG    1       25.640 -21.941   7.868  0.00  0.00    -0.422 OA
ATOM     19  C   LIG    1       24.800 -21.385   6.892  0.00  0.00    +0.143 A 
ATOM     20  C   LIG    1       25.314 -20.605   5.862  0.00  0.00    +0.059 A 
ATOM     21  C   LIG    1       24.413 -20.010   4.971  0.00  0.00    +0.015 A 
ATOM     22  C   LIG    1       23.036 -20.216   5.110  0.00  0.00    +0.001 A 
ATOM     23  C   LIG    1       22.546 -21.031   6.132  0.00  0.00    +0.004 A 
ATOM     24  C   LIG    1       23.432 -21.620   7.030  0.00  0.00    +0.047 A 
ATOM     25  C   LIG    1       26.766 -20.448   5.758  0.00  0.00    +0.138 C 
BRANCH  25  26
ATOM     26  O   LIG    1       27.196 -19.796   4.622  0.00  0.00    -0.505 OA
ATOM     27  H   LIG    1       28.049 -20.156   4.297  0.00  0.00    +0.292 HD
ENDBRANCH  25  26
ENDBRANCH   1  15
TORSDOF 4
ENDMDL
MODEL 7
REMARK VINA RESULT:      -8.6      3.042      6.663
REMARK  Name = *****
REMARK                            x       y       z     vdW  Elec       q    Type
REMARK                         _______ _______ _______ _____ _____    ______ ____
ROOT
ATOM      1  C   LIG    1       26.581 -22.008   7.009  0.00  0.00    +0.092 C 
ENDROOT
BRANCH   1   4
ATOM      2  O   LIG    1       24.044 -22.316   8.014  0.00  0.00    -0.245 OA
ATOM      3  C   LIG    1       24.099 -21.592   7.021  0.00  0.00    +0.344 C 
ATOM      4  C   LIG    1       25.408 -21.287   6.390  0.00  0.00    +0.084 C 
ATOM      5  C   LIG    1       25.469 -20.470   5.324  0.00  0.00    +0.138 C 
ATOM      6  C   LIG    1       24.253 -19.859   4.786  0.00  0.00    +0.059 A 
ATOM      7  C   LIG    1       23.033 -20.155   5.386  0.00  0.00    +0.143 A 
ATOM      8  C   LIG    1       21.836 -19.589   4.951  0.00  0.00    +0.047 A 
ATOM      9  C   LIG    1       21.854 -18.694   3.884  0.00  0.00    +0.004 A 
ATOM     10  C   LIG    1       23.063 -18.382   3.263  0.00  0.00    +0.001 A 
ATOM     11  C   LIG    1       24.255 -18.963   3.709  0.00  0.00    +0.015 A 
ATOM     12  O   LIG    1       22.959 -21.032   6.478  0.00  0.00    -0.422 OA
BRANCH   5  13
ATOM     13  O   LIG    1       26.631 -20.125   4.665  0.00  0.00    -0.505 OA
ATOM     14  H   LIG    1       27.272 -19.697   5.273  0.00  0.00    +0.292 HD
ENDBRANCH   5  13
ENDBRANCH   1   4
BRANCH   1  15
ATOM     15  C   LIG    1       27.625 -21.064   7.557  0.00  0.00    +0.084 C 
ATOM     16  C   LIG    1       27.208 -20.344   8.786  0.00  0.00    +0.344 C 
ATOM     17  O   LIG    1       26.188 -20.678   9.384  0.00  0.00    -0.245 OA
ATOM     18  O   LIG    1       27.980 -19.280   9.216  0.00  0.00    -0.422 OA
ATOM     19  C   LIG    1       29.251 -19.055   8.667  0.00  0.00    +0.143 A 
ATOM     20  C   LIG    1       29.719 -19.820   7.605  0.00  0.00    +0.059 A 
ATOM     21  C   LIG    1       31.029 -19.602   7.161  0.00  0.00    +0.015 A 
ATOM     22  C   LIG    1       31.831 -18.626   7.764  0.00  0.00    +0.001 A 
ATOM     23  C   LIG    1       31.326 -17.848   8.806  0.00  0.00    +0.004 A 
ATOM     24  C   LIG    1       30.028 -18.062   9.263  0.00  0.00    +0.047 A 
ATOM     25  C   LIG    1       28.824 -20.809   7.003  0.00  0.00    +0.138 C 
BRANCH  25  26
ATOM     26  O   LIG    1       29.309 -21.407   5.860  0.00  0.00    -0.505 OA
ATOM     27  H   LIG    1       29.505 -20.747   5.160  0.00  0.00    +0.292 HD
ENDBRANCH  25  26
ENDBRANCH   1  15
TORSDOF 4
ENDMDL
MODEL 8
REMARK VINA RESULT:      -8.5      3.042      4.875
REMARK  Name = *****
REMARK                            x       y       z     vdW  Elec       q    Type
REMARK                         _______ _______ _______ _____ _____    ______ ____
ROOT
ATOM      1  C   LIG    1       26.585 -21.970   7.004  0.00  0.00    +0.092 C 
ENDROOT
BRANCH   1   4
ATOM      2  O   LIG    1       26.150 -20.554   9.317  0.00  0.00    -0.245 OA
ATOM      3  C   LIG    1       27.220 -20.291   8.768  0.00  0.00    +0.344 C 
ATOM      4  C   LIG    1       27.624 -21.011   7.533  0.00  0.00    +0.084 C 
ATOM      5  C   LIG    1       28.807 -20.744   6.953  0.00  0.00    +0.138 C 
ATOM      6  C   LIG    1       29.716 -19.759   7.540  0.00  0.00    +0.059 A 
ATOM      7  C   LIG    1       29.324 -19.091   8.695  0.00  0.00    +0.143 A 
ATOM      8  C   LIG    1       30.147 -18.161   9.330  0.00  0.00    +0.047 A 
ATOM      9  C   LIG    1       31.405 -17.891   8.798  0.00  0.00    +0.004 A 
ATOM     10  C   LIG    1       31.821 -18.545   7.638  0.00  0.00    +0.001 A 
ATOM     11  C   LIG    1       30.980 -19.471   7.011  0.00  0.00    +0.015 A 
ATOM     12  O   LIG    1       28.077 -19.340   9.287  0.00  0.00    -0.422 OA
BRANCH   5  13
ATOM     13  O   LIG    1       29.273 -21.354   5.807  0.00  0.00    -0.505 OA
ATOM     14  H   LIG    1       29.662 -22.233   6.004  0.00  0.00    +0.292 HD
ENDBRANCH   5  13
ENDBRANCH   1   4
BRANCH   1  15
ATOM     15  C   LIG    1       25.393 -21.267   6.399  0.00  0.00    +0.084 C 
ATOM     16  C   LIG    1       24.098 -21.603   7.041  0.00  0.00    +0.344 C 
ATOM     17  O   LIG    1       24.075 -22.229   8.098  0.00  0.00    -0.245 OA
ATOM     18  O   LIG    1       22.932 -21.217   6.406  0.00  0.00    -0.422 OA
ATOM     19  C   LIG    1       22.970 -20.314   5.333  0.00  0.00    +0.143 A 
ATOM     20  C   LIG    1       24.181 -19.874   4.810  0.00  0.00    +0.059 A 
ATOM     21  C   LIG    1       24.149 -18.907   3.798  0.00  0.00    +0.015 A 
ATOM     22  C   LIG    1       22.929 -18.418   3.320  0.00  0.00    +0.001 A 
ATOM     23  C   LIG    1       21.727 -18.901   3.838  0.00  0.00    +0.004 A 
ATOM     24  C   LIG    1       21.744 -19.855   4.852  0.00  0.00    +0.047 A 
ATOM     25  C   LIG    1       25.422 -20.441   5.338  0.00  0.00    +0.138 C 
BRANCH  25  26
ATOM     26  O   LIG    1       26.562 -20.071   4.656  0.00  0.00    -0.505 OA
ATOM     27  H   LIG    1       26.830 -19.151   4.869  0.00  0.00    +0.292 HD
ENDBRANCH  25  26
ENDBRANCH   1  15
TORSDOF 4
ENDMDL
MODEL 9
REMARK VINA RESULT:      -8.4      3.444      7.814
REMARK  Name = *****
REMARK                            x       y       z     vdW  Elec       q    Type
REMARK                         _______ _______ _______ _____ _____    ______ ____
ROOT
ATOM      1  C   LIG    1       29.766 -20.972   7.032  0.00  0.00    +0.092 C 
ENDROOT
BRANCH   1   4
ATOM      2  O   LIG    1       28.750 -19.538   4.921  0.00  0.00    -0.245 OA
ATOM      3  C   LIG    1       27.887 -20.032   5.647  0.00  0.00    +0.344 C 
ATOM      4  C   LIG    1       28.277 -20.878   6.803  0.00  0.00    +0.084 C 
ATOM      5  C   LIG    1       27.332 -21.441   7.576  0.00  0.00    +0.138 C 
ATOM      6  C   LIG    1       25.913 -21.245   7.276  0.00  0.00    +0.059 A 
ATOM      7  C   LIG    1       25.562 -20.448   6.191  0.00  0.00    +0.143 A 
ATOM      8  C   LIG    1       24.234 -20.237   5.824  0.00  0.00    +0.047 A 
ATOM      9  C   LIG    1       23.220 -20.844   6.560  0.00  0.00    +0.004 A 
ATOM     10  C   LIG    1       23.545 -21.645   7.655  0.00  0.00    +0.001 A 
ATOM     11  C   LIG    1       24.883 -21.842   8.013  0.00  0.00    +0.015 A 
ATOM     12  O   LIG    1       26.543 -19.830   5.401  0.00  0.00    -0.422 OA
BRANCH   5  13
ATOM     13  O   LIG    1       27.588 -22.241   8.670  0.00  0.00    -0.505 OA
ATOM     14  H   LIG    1       27.012 -22.003   9.428  0.00  0.00    +0.292 HD
ENDBRANCH   5  13
ENDBRANCH   1   4
BRANCH   1  15
ATOM     15  C   LIG    1       30.258 -20.006   8.084  0.00  0.00    +0.084 C 
ATOM     16  C   LIG    1       30.419 -20.606   9.432  0.00  0.00    +0.344 C 
ATOM     17  O   LIG    1       30.354 -21.824   9.580  0.00  0.00    -0.245 OA
ATOM     18  O   LIG    1       30.615 -19.759  10.507  0.00  0.00    -0.422 OA
ATOM     19  C   LIG    1       30.914 -18.404  10.302  0.00  0.00    +0.143 A 
ATOM     20  C   LIG    1       30.910 -17.855   9.024  0.00  0.00    +0.059 A 
ATOM     21  C   LIG    1       31.303 -16.519   8.879  0.00  0.00    +0.015 A 
ATOM     22  C   LIG    1       31.668 -15.760   9.996  0.00  0.00    +0.001 A 
ATOM     23  C   LIG    1       31.630 -16.324  11.272  0.00  0.00    +0.004 A 
ATOM     24  C   LIG    1       31.252 -17.655  11.429  0.00  0.00    +0.047 A 
ATOM     25  C   LIG    1       30.496 -18.696   7.900  0.00  0.00    +0.138 C 
BRANCH  25  26
ATOM     26  O   LIG    1       30.367 -18.031   6.699  0.00  0.00    -0.505 OA
ATOM     27  H   LIG    1       30.583 -18.610   5.937  0.00  0.00    +0.292 HD
ENDBRANCH  25  26
ENDBRANCH   1  15
TORSDOF 4
ENDMDL
