MODEL 1
REMARK VINA RESULT:      -4.1      0.000      0.000
REMARK  Name = *****
REMARK                            x       y       z     vdW  Elec       q    Type
REMARK                         _______ _______ _______ _____ _____    ______ ____
ROOT
ATOM      1  C   LIG    1       24.698 -21.546   4.819  0.00  0.00    +0.172 C 
ENDROOT
BRANCH   1   2
ATOM      2  C   LIG    1       25.884 -20.604   4.985  0.00  0.00    -0.013 A 
ATOM      3  C   LIG    1       26.873 -20.873   5.946  0.00  0.00    +0.055 A 
ATOM      4  C   LIG    1       27.965 -20.019   6.079  0.00  0.00    +0.159 A 
ATOM      5  C   LIG    1       28.098 -18.893   5.271  0.00  0.00    +0.158 A 
ATOM      6  C   LIG    1       27.132 -18.600   4.321  0.00  0.00    +0.049 A 
ATOM      7  C   LIG    1       26.026 -19.450   4.187  0.00  0.00    +0.010 A 
BRANCH   4   8
ATOM      8  O   LIG    1       28.920 -20.294   7.017  0.00  0.00    -0.503 OA
ATOM      9  H   LIG    1       28.494 -20.936   7.620  0.00  0.00    +0.292 HD
ENDBRANCH   4   8
BRANCH   5  10
ATOM     10  O   LIG    1       29.197 -18.100   5.454  0.00  0.00    -0.503 OA
ATOM     11  H   LIG    1       29.008 -17.486   6.186  0.00  0.00    +0.292 HD
ENDBRANCH   5  10
ENDBRANCH   1   2
BRANCH   1  12
ATOM     12  O   LIG    1       24.114 -21.381   3.502  0.00  0.00    -0.385 OA
ATOM     13  H   LIG    1       23.451 -22.093   3.419  0.00  0.00    +0.210 HD
ENDBRANCH   1  12
BRANCH   1  14
ATOM     14  CA  LIG    1       23.572 -21.377   5.870  0.00  0.00    +0.194 C 
BRANCH  14  15
ATOM     15  N   LIG    1       23.979 -20.580   7.060  0.00  0.00    -0.316 NA
ATOM     16  H1  LIG    1       23.608 -19.636   6.982  0.00  0.00    +0.119 HD
ATOM     17  H2  LIG    1       23.558 -20.997   7.893  0.00  0.00    +0.119 HD
ENDBRANCH  14  15
BRANCH  14  18
ATOM     18  C   LIG    1       22.375 -20.690   5.191  0.00  0.00    +0.325 C 
ATOM     19  O   LIG    1       22.313 -19.486   4.963  0.00  0.00    -0.249 OA
BRANCH  18  20
ATOM     20  OXT LIG    1       21.402 -21.546   4.790  0.00  0.00    -0.479 OA
ATOM     21  HXT LIG    1       20.835 -21.817   5.549  0.00  0.00    +0.295 HD
ENDBRANCH  18  20
ENDBRANCH  14  18
ENDBRANCH   1  14
TORSDOF 8
ENDMDL
MODEL 2
REMARK VINA RESULT:      -4.0      3.762      5.648
REMARK  Name = *****
REMARK                            x       y       z     vdW  Elec       q    Type
REMARK                         _______ _______ _______ _____ _____    ______ ____
ROOT
ATOM      1  C   LIG    1       26.836 -16.063   3.319  0.00  0.00    +0.172 C 
ENDROOT
BRANCH   1   2
ATOM      2  C   LIG    1       26.414 -17.476   3.700  0.00  0.00    -0.013 A 
ATOM      3  C   LIG    1       27.280 -18.298   4.442  0.00  0.00    +0.055 A 
ATOM      4  C   LIG    1       26.879 -19.581   4.805  0.00  0.00    +0.159 A 
ATOM      5  C   LIG    1       25.627 -20.071   4.446  0.00  0.00    +0.158 A 
ATOM      6  C   LIG    1       24.757 -19.284   3.707  0.00  0.00    +0.049 A 
ATOM      7  C   LIG    1       25.156 -17.995   3.331  0.00  0.00    +0.010 A 
BRANCH   4   8
ATOM      8  O   LIG    1       27.731 -20.369   5.528  0.00  0.00    -0.503 OA
ATOM      9  H   LIG    1       28.173 -20.930   4.859  0.00  0.00    +0.292 HD
ENDBRANCH   4   8
BRANCH   5  10
ATOM     10  O   LIG    1       25.299 -21.339   4.839  0.00  0.00    -0.503 OA
ATOM     11  H   LIG    1       24.363 -21.492   4.614  0.00  0.00    +0.292 HD
ENDBRANCH   5  10
ENDBRANCH   1   2
BRANCH   1  12
ATOM     12  O   LIG    1       27.977 -15.655   4.114  0.00  0.00    -0.385 OA
ATOM     13  H   LIG    1       27.692 -14.847   4.584  0.00  0.00    +0.210 HD
ENDBRANCH   1  12
BRANCH   1  14
ATOM     14  CA  LIG    1       25.733 -14.984   3.468  0.00  0.00    +0.194 C 
BRANCH  14  15
ATOM     15  N   LIG    1       25.754 -14.286   4.783  0.00  0.00    -0.316 NA
ATOM     16  H1  LIG    1       25.093 -14.731   5.416  0.00  0.00    +0.119 HD
ATOM     17  H2  LIG    1       26.681 -14.395   5.198  0.00  0.00    +0.119 HD
ENDBRANCH  14  15
BRANCH  14  18
ATOM     18  C   LIG    1       25.916 -13.947   2.347  0.00  0.00    +0.325 C 
ATOM     19  O   LIG    1       25.047 -13.157   1.993  0.00  0.00    -0.249 OA
BRANCH  18  20
ATOM     20  OXT LIG    1       27.164 -13.924   1.814  0.00  0.00    -0.479 OA
ATOM     21  HXT LIG    1       27.135 -13.709   0.853  0.00  0.00    +0.295 HD
ENDBRANCH  18  20
ENDBRANCH  14  18
ENDBRANCH   1  14
TORSDOF 8
ENDMDL
MODEL 3
REMARK VINA RESULT:      -3.9      3.876      6.240
REMARK  Name = *****
REMARK                            x       y       z     vdW  Elec       q    Type
REMARK                         _______ _______ _______ _____ _____    ______ ____
ROOT
ATOM      1  C   LIG    1       26.259 -16.257   3.210  0.00  0.00    +0.172 C 
ENDROOT
BRANCH   1   2
ATOM      2  C   LIG    1       25.444 -17.508   3.510  0.00  0.00    -0.013 A 
ATOM      3  C   LIG    1       24.057 -17.417   3.715  0.00  0.00    +0.055 A 
ATOM      4  C   LIG    1       23.314 -18.567   3.968  0.00  0.00    +0.159 A 
ATOM      5  C   LIG    1       23.923 -19.817   4.024  0.00  0.00    +0.158 A 
ATOM      6  C   LIG    1       25.292 -19.934   3.834  0.00  0.00    +0.049 A 
ATOM      7  C   LIG    1       26.047 -18.780   3.586  0.00  0.00    +0.010 A 
BRANCH   4   8
ATOM      8  O   LIG    1       21.965 -18.464   4.163  0.00  0.00    -0.503 OA
ATOM      9  H   LIG    1       21.575 -18.651   3.286  0.00  0.00    +0.292 HD
ENDBRANCH   4   8
BRANCH   5  10
ATOM     10  O   LIG    1       23.133 -20.905   4.274  0.00  0.00    -0.503 OA
ATOM     11  H   LIG    1       23.531 -21.676   3.832  0.00  0.00    +0.292 HD
ENDBRANCH   5  10
ENDBRANCH   1   2
BRANCH   1  12
ATOM     12  O   LIG    1       27.548 -16.335   3.869  0.00  0.00    -0.385 OA
ATOM     13  H   LIG    1       27.841 -17.261   3.761  0.00  0.00    +0.210 HD
ENDBRANCH   1  12
BRANCH   1  14
ATOM     14  CA  LIG    1       25.589 -14.921   3.621  0.00  0.00    +0.194 C 
BRANCH  14  15
ATOM     15  N   LIG    1       26.124 -14.347   4.886  0.00  0.00    -0.316 NA
ATOM     16  H1  LIG    1       25.375 -14.269   5.570  0.00  0.00    +0.119 HD
ATOM     17  H2  LIG    1       26.814 -14.995   5.274  0.00  0.00    +0.119 HD
ENDBRANCH  14  15
BRANCH  14  18
ATOM     18  C   LIG    1       25.795 -13.907   2.482  0.00  0.00    +0.325 C 
ATOM     19  O   LIG    1       25.015 -12.995   2.225  0.00  0.00    -0.249 OA
BRANCH  18  20
ATOM     20  OXT LIG    1       26.967 -14.057   1.815  0.00  0.00    -0.479 OA
ATOM     21  HXT LIG    1       26.928 -13.623   0.931  0.00  0.00    +0.295 HD
ENDBRANCH  18  20
ENDBRANCH  14  18
ENDBRANCH   1  14
TORSDOF 8
ENDMDL
MODEL 4
REMARK VINA RESULT:      -3.8      4.440      6.753
REMARK  Name = *****
REMARK                            x       y       z     vdW  Elec       q    Type
REMARK                         _______ _______ _______ _____ _____    ______ ____
ROOT
ATOM      1  C   LIG    1       24.911 -14.719   3.935  0.00  0.00    +0.172 C 
ENDROOT
BRANCH   1   2
ATOM      2  C   LIG    1       24.344 -16.132   3.960  0.00  0.00    -0.013 A 
ATOM      3  C   LIG    1       25.145 -17.222   3.578  0.00  0.00    +0.055 A 
ATOM      4  C   LIG    1       24.628 -18.515   3.622  0.00  0.00    +0.159 A 
ATOM      5  C   LIG    1       23.322 -18.751   4.041  0.00  0.00    +0.158 A 
ATOM      6  C   LIG    1       22.509 -17.692   4.415  0.00  0.00    +0.049 A 
ATOM      7  C   LIG    1       23.019 -16.389   4.366  0.00  0.00    +0.010 A 
BRANCH   4   8
ATOM      8  O   LIG    1       25.418 -19.565   3.250  0.00  0.00    -0.503 OA
ATOM      9  H   LIG    1       25.528 -19.459   2.283  0.00  0.00    +0.292 HD
ENDBRANCH   4   8
BRANCH   5  10
ATOM     10  O   LIG    1       22.880 -20.045   4.063  0.00  0.00    -0.503 OA
ATOM     11  H   LIG    1       21.919 -20.034   4.220  0.00  0.00    +0.292 HD
ENDBRANCH   5  10
ENDBRANCH   1   2
BRANCH   1  12
ATOM     12  O   LIG    1       24.060 -13.857   3.138  0.00  0.00    -0.385 OA
ATOM     13  H   LIG    1       24.229 -12.951   3.461  0.00  0.00    +0.210 HD
ENDBRANCH   1  12
BRANCH   1  14
ATOM     14  CA  LIG    1       26.358 -14.600   3.395  0.00  0.00    +0.194 C 
BRANCH  14  15
ATOM     15  N   LIG    1       26.435 -14.106   1.992  0.00  0.00    -0.316 NA
ATOM     16  H1  LIG    1       26.729 -14.862   1.379  0.00  0.00    +0.119 HD
ATOM     17  H2  LIG    1       25.498 -13.827   1.692  0.00  0.00    +0.119 HD
ENDBRANCH  14  15
BRANCH  14  18
ATOM     18  C   LIG    1       27.138 -13.638   4.309  0.00  0.00    +0.325 C 
ATOM     19  O   LIG    1       28.286 -13.263   4.091  0.00  0.00    -0.249 OA
BRANCH  18  20
ATOM     20  OXT LIG    1       26.419 -13.170   5.360  0.00  0.00    -0.479 OA
ATOM     21  HXT LIG    1       26.943 -13.211   6.193  0.00  0.00    +0.295 HD
ENDBRANCH  18  20
ENDBRANCH  14  18
ENDBRANCH   1  14
TORSDOF 8
ENDMDL
MODEL 5
REMARK VINA RESULT:      -3.6      1.229      1.878
REMARK  Name = *****
REMARK                            x       y       z     vdW  Elec       q    Type
REMARK                         _______ _______ _______ _____ _____    ______ ____
ROOT
ATOM      1  C   LIG    1       24.855 -21.245   4.366  0.00  0.00    +0.172 C 
ENDROOT
BRANCH   1   2
ATOM      2  C   LIG    1       25.541 -19.898   4.176  0.00  0.00    -0.013 A 
ATOM      3  C   LIG    1       26.849 -19.697   4.647  0.00  0.00    +0.055 A 
ATOM      4  C   LIG    1       27.478 -18.470   4.451  0.00  0.00    +0.159 A 
ATOM      5  C   LIG    1       26.830 -17.429   3.793  0.00  0.00    +0.158 A 
ATOM      6  C   LIG    1       25.536 -17.599   3.325  0.00  0.00    +0.049 A 
ATOM      7  C   LIG    1       24.894 -18.828   3.525  0.00  0.00    +0.010 A 
BRANCH   4   8
ATOM      8  O   LIG    1       28.751 -18.289   4.913  0.00  0.00    -0.503 OA
ATOM      9  H   LIG    1       28.642 -17.777   5.740  0.00  0.00    +0.292 HD
ENDBRANCH   4   8
BRANCH   5  10
ATOM     10  O   LIG    1       27.509 -16.252   3.632  0.00  0.00    -0.503 OA
ATOM     11  H   LIG    1       27.052 -15.567   4.152  0.00  0.00    +0.292 HD
ENDBRANCH   5  10
ENDBRANCH   1   2
BRANCH   1  12
ATOM     12  O   LIG    1       23.920 -21.483   3.285  0.00  0.00    -0.385 OA
ATOM     13  H   LIG    1       24.455 -21.842   2.551  0.00  0.00    +0.210 HD
ENDBRANCH   1  12
BRANCH   1  14
ATOM     14  CA  LIG    1       24.095 -21.412   5.706  0.00  0.00    +0.194 C 
BRANCH  14  15
ATOM     15  N   LIG    1       24.745 -20.720   6.853  0.00  0.00    -0.316 NA
ATOM     16  H1  LIG    1       24.061 -20.139   7.334  0.00  0.00    +0.119 HD
ATOM     17  H2  LIG    1       25.061 -21.423   7.524  0.00  0.00    +0.119 HD
ENDBRANCH  14  15
BRANCH  14  18
ATOM     18  C   LIG    1       22.671 -20.859   5.527  0.00  0.00    +0.325 C 
ATOM     19  O   LIG    1       21.715 -21.531   5.154  0.00  0.00    -0.249 OA
BRANCH  18  20
ATOM     20  OXT LIG    1       22.534 -19.559   5.890  0.00  0.00    -0.479 OA
ATOM     21  HXT LIG    1       21.953 -19.075   5.258  0.00  0.00    +0.295 HD
ENDBRANCH  18  20
ENDBRANCH  14  18
ENDBRANCH   1  14
TORSDOF 8
ENDMDL
MODEL 6
REMARK VINA RESULT:      -3.6      3.463      4.539
REMARK  Name = *****
REMARK                            x       y       z     vdW  Elec       q    Type
REMARK                         _______ _______ _______ _____ _____    ______ ____
ROOT
ATOM      1  C   LIG    1       23.301 -18.605   3.887  0.00  0.00    +0.172 C 
ENDROOT
BRANCH   1   2
ATOM      2  C   LIG    1       23.842 -17.181   3.912  0.00  0.00    -0.013 A 
ATOM      3  C   LIG    1       25.136 -16.907   3.437  0.00  0.00    +0.055 A 
ATOM      4  C   LIG    1       25.617 -15.601   3.443  0.00  0.00    +0.159 A 
ATOM      5  C   LIG    1       24.835 -14.550   3.915  0.00  0.00    +0.158 A 
ATOM      6  C   LIG    1       23.559 -14.795   4.397  0.00  0.00    +0.049 A 
ATOM      7  C   LIG    1       23.071 -16.108   4.401  0.00  0.00    +0.010 A 
BRANCH   4   8
ATOM      8  O   LIG    1       26.877 -15.348   2.976  0.00  0.00    -0.503 OA
ATOM      9  H   LIG    1       27.272 -16.234   2.846  0.00  0.00    +0.292 HD
ENDBRANCH   4   8
BRANCH   5  10
ATOM     10  O   LIG    1       25.370 -13.292   3.889  0.00  0.00    -0.503 OA
ATOM     11  H   LIG    1       24.966 -12.777   4.611  0.00  0.00    +0.292 HD
ENDBRANCH   5  10
ENDBRANCH   1   2
BRANCH   1  12
ATOM     12  O   LIG    1       21.861 -18.591   4.055  0.00  0.00    -0.385 OA
ATOM     13  H   LIG    1       21.682 -19.168   4.822  0.00  0.00    +0.210 HD
ENDBRANCH   1  12
BRANCH   1  14
ATOM     14  CA  LIG    1       23.902 -19.555   4.953  0.00  0.00    +0.194 C 
BRANCH  14  15
ATOM     15  N   LIG    1       22.879 -20.213   5.813  0.00  0.00    -0.316 NA
ATOM     16  H1  LIG    1       23.164 -20.155   6.788  0.00  0.00    +0.119 HD
ATOM     17  H2  LIG    1       22.000 -19.697   5.729  0.00  0.00    +0.119 HD
ENDBRANCH  14  15
BRANCH  14  18
ATOM     18  C   LIG    1       24.720 -20.639   4.229  0.00  0.00    +0.325 C 
ATOM     19  O   LIG    1       24.225 -21.572   3.605  0.00  0.00    -0.249 OA
BRANCH  18  20
ATOM     20  OXT LIG    1       26.062 -20.439   4.275  0.00  0.00    -0.479 OA
ATOM     21  HXT LIG    1       26.549 -21.269   4.065  0.00  0.00    +0.295 HD
ENDBRANCH  18  20
ENDBRANCH  14  18
ENDBRANCH   1  14
TORSDOF 8
ENDMDL
MODEL 7
REMARK VINA RESULT:      -3.5      4.335      6.924
REMARK  Name = *****
REMARK                            x       y       z     vdW  Elec       q    Type
REMARK                         _______ _______ _______ _____ _____    ______ ____
ROOT
ATOM      1  C   LIG    1       25.382 -14.820   3.694  0.00  0.00    +0.172 C 
ENDROOT
BRANCH   1   2
ATOM      2  C   LIG    1       24.931 -16.274   3.726  0.00  0.00    -0.013 A 
ATOM      3  C   LIG    1       23.620 -16.600   4.114  0.00  0.00    +0.055 A 
ATOM      4  C   LIG    1       23.207 -17.930   4.121  0.00  0.00    +0.159 A 
ATOM      5  C   LIG    1       24.074 -18.953   3.750  0.00  0.00    +0.158 A 
ATOM      6  C   LIG    1       25.375 -18.659   3.372  0.00  0.00    +0.049 A 
ATOM      7  C   LIG    1       25.801 -17.324   3.369  0.00  0.00    +0.010 A 
BRANCH   4   8
ATOM      8  O   LIG    1       21.929 -18.232   4.499  0.00  0.00    -0.503 OA
ATOM      9  H   LIG    1       21.442 -18.338   3.657  0.00  0.00    +0.292 HD
ENDBRANCH   4   8
BRANCH   5  10
ATOM     10  O   LIG    1       23.601 -20.236   3.778  0.00  0.00    -0.503 OA
ATOM     11  H   LIG    1       23.185 -20.423   2.917  0.00  0.00    +0.292 HD
ENDBRANCH   5  10
ENDBRANCH   1   2
BRANCH   1  12
ATOM     12  O   LIG    1       24.498 -14.045   2.846  0.00  0.00    -0.385 OA
ATOM     13  H   LIG    1       24.475 -14.517   1.991  0.00  0.00    +0.210 HD
ENDBRANCH   1  12
BRANCH   1  14
ATOM     14  CA  LIG    1       26.836 -14.594   3.208  0.00  0.00    +0.194 C 
BRANCH  14  15
ATOM     15  N   LIG    1       26.928 -14.082   1.813  0.00  0.00    -0.316 NA
ATOM     16  H1  LIG    1       26.942 -13.065   1.822  0.00  0.00    +0.119 HD
ATOM     17  H2  LIG    1       27.817 -14.388   1.410  0.00  0.00    +0.119 HD
ENDBRANCH  14  15
BRANCH  14  18
ATOM     18  C   LIG    1       27.513 -13.588   4.157  0.00  0.00    +0.325 C 
ATOM     19  O   LIG    1       27.164 -13.398   5.318  0.00  0.00    -0.249 OA
BRANCH  18  20
ATOM     20  OXT LIG    1       28.592 -12.965   3.621  0.00  0.00    -0.479 OA
ATOM     21  HXT LIG    1       28.949 -13.472   2.856  0.00  0.00    +0.295 HD
ENDBRANCH  18  20
ENDBRANCH  14  18
ENDBRANCH   1  14
TORSDOF 8
ENDMDL
MODEL 8
REMARK VINA RESULT:      -3.4      2.894      4.109
REMARK  Name = *****
REMARK                            x       y       z     vdW  Elec       q    Type
REMARK                         _______ _______ _______ _____ _____    ______ ____
ROOT
ATOM      1  C   LIG    1       23.367 -20.739   4.103  0.00  0.00    +0.172 C 
ENDROOT
BRANCH   1   2
ATOM      2  C   LIG    1       23.413 -19.217   4.119  0.00  0.00    -0.013 A 
ATOM      3  C   LIG    1       24.569 -18.540   3.695  0.00  0.00    +0.055 A 
ATOM      4  C   LIG    1       24.598 -17.147   3.691  0.00  0.00    +0.159 A 
ATOM      5  C   LIG    1       23.494 -16.406   4.104  0.00  0.00    +0.158 A 
ATOM      6  C   LIG    1       22.345 -17.050   4.535  0.00  0.00    +0.049 A 
ATOM      7  C   LIG    1       22.311 -18.450   4.549  0.00  0.00    +0.010 A 
BRANCH   4   8
ATOM      8  O   LIG    1       25.728 -16.502   3.275  0.00  0.00    -0.503 OA
ATOM      9  H   LIG    1       25.454 -16.026   2.465  0.00  0.00    +0.292 HD
ENDBRANCH   4   8
BRANCH   5  10
ATOM     10  O   LIG    1       23.591 -15.042   4.073  0.00  0.00    -0.503 OA
ATOM     11  H   LIG    1       24.328 -14.805   3.482  0.00  0.00    +0.292 HD
ENDBRANCH   5  10
ENDBRANCH   1   2
BRANCH   1  12
ATOM     12  O   LIG    1       22.045 -21.199   4.481  0.00  0.00    -0.385 OA
ATOM     13  H   LIG    1       21.743 -21.762   3.742  0.00  0.00    +0.210 HD
ENDBRANCH   1  12
BRANCH   1  14
ATOM     14  CA  LIG    1       24.402 -21.438   5.021  0.00  0.00    +0.194 C 
BRANCH  14  15
ATOM     15  N   LIG    1       25.816 -21.174   4.638  0.00  0.00    -0.316 NA
ATOM     16  H1  LIG    1       26.438 -21.724   5.226  0.00  0.00    +0.119 HD
ATOM     17  H2  LIG    1       25.960 -21.490   3.677  0.00  0.00    +0.119 HD
ENDBRANCH  14  15
BRANCH  14  18
ATOM     18  C   LIG    1       24.173 -20.954   6.464  0.00  0.00    +0.325 C 
ATOM     19  O   LIG    1       23.107 -21.058   7.062  0.00  0.00    -0.249 OA
BRANCH  18  20
ATOM     20  OXT LIG    1       25.285 -20.459   7.062  0.00  0.00    -0.479 OA
ATOM     21  HXT LIG    1       25.051 -19.918   7.852  0.00  0.00    +0.295 HD
ENDBRANCH  18  20
ENDBRANCH  14  18
ENDBRANCH   1  14
TORSDOF 8
ENDMDL
MODEL 9
REMARK VINA RESULT:      -3.3      4.112      5.245
REMARK  Name = *****
REMARK                            x       y       z     vdW  Elec       q    Type
REMARK                         _______ _______ _______ _____ _____    ______ ____
ROOT
ATOM      1  C   LIG    1       25.681 -17.986   3.610  0.00  0.00    +0.172 C 
ENDROOT
BRANCH   1   2
ATOM      2  C   LIG    1       25.379 -16.493   3.600  0.00  0.00    -0.013 A 
ATOM      3  C   LIG    1       26.336 -15.580   3.127  0.00  0.00    +0.055 A 
ATOM      4  C   LIG    1       26.045 -14.218   3.101  0.00  0.00    +0.159 A 
ATOM      5  C   LIG    1       24.814 -13.739   3.539  0.00  0.00    +0.158 A 
ATOM      6  C   LIG    1       23.856 -14.618   4.019  0.00  0.00    +0.049 A 
ATOM      7  C   LIG    1       24.143 -15.988   4.055  0.00  0.00    +0.010 A 
BRANCH   4   8
ATOM      8  O   LIG    1       26.985 -13.342   2.636  0.00  0.00    -0.503 OA
ATOM      9  H   LIG    1       27.384 -13.795   1.866  0.00  0.00    +0.292 HD
ENDBRANCH   4   8
BRANCH   5  10
ATOM     10  O   LIG    1       24.595 -12.390   3.482  0.00  0.00    -0.503 OA
ATOM     11  H   LIG    1       24.842 -12.081   2.592  0.00  0.00    +0.292 HD
ENDBRANCH   5  10
ENDBRANCH   1   2
BRANCH   1  12
ATOM     12  O   LIG    1       25.896 -18.457   2.257  0.00  0.00    -0.385 OA
ATOM     13  H   LIG    1       25.796 -17.670   1.687  0.00  0.00    +0.210 HD
ENDBRANCH   1  12
BRANCH   1  14
ATOM     14  CA  LIG    1       24.592 -18.873   4.263  0.00  0.00    +0.194 C 
BRANCH  14  15
ATOM     15  N   LIG    1       23.520 -19.297   3.320  0.00  0.00    -0.316 NA
ATOM     16  H1  LIG    1       23.556 -18.721   2.482  0.00  0.00    +0.119 HD
ATOM     17  H2  LIG    1       23.704 -20.259   3.027  0.00  0.00    +0.119 HD
ENDBRANCH  14  15
BRANCH  14  18
ATOM     18  C   LIG    1       25.272 -20.125   4.845  0.00  0.00    +0.325 C 
ATOM     19  O   LIG    1       24.691 -20.974   5.515  0.00  0.00    -0.249 OA
BRANCH  18  20
ATOM     20  OXT LIG    1       26.575 -20.258   4.494  0.00  0.00    -0.479 OA
ATOM     21  HXT LIG    1       26.771 -19.760   3.667  0.00  0.00    +0.295 HD
ENDBRANCH  18  20
ENDBRANCH  14  18
ENDBRANCH   1  14
TORSDOF 8
ENDMDL
