MODEL 1
REMARK VINA RESULT:       0.7      0.000      0.000
REMARK  Name = *****
REMARK                            x       y       z     vdW  Elec       q    Type
REMARK                         _______ _______ _______ _____ _____    ______ ____
ROOT
ATOM      1  C   LIG    1       23.462 -18.649   3.713  0.00  0.00    +0.122 C 
ENDROOT
BRANCH   1   2
ATOM      2  C   LIG    1       24.514 -19.308   4.686  0.00  0.00    +0.172 C 
ATOM      3  C   LIG    1       25.934 -18.769   4.414  0.00  0.00    +0.176 C 
ATOM      4  C   LIG    1       26.956 -19.421   5.351  0.00  0.00    +0.177 C 
ATOM      5  C   LIG    1       26.894 -20.947   5.249  0.00  0.00    +0.184 C 
ATOM      6  C   LIG    1       25.437 -21.471   5.363  0.00  0.00    +0.207 C 
ATOM      7  O   LIG    1       24.550 -20.745   4.477  0.00  0.00    -0.356 OA
BRANCH   3   8
ATOM      8  O   LIG    1       26.349 -19.071   3.065  0.00  0.00    -0.387 OA
ATOM      9  H   LIG    1       27.244 -19.462   3.107  0.00  0.00    +0.210 HD
ENDBRANCH   3   8
BRANCH   4  10
ATOM     10  O   LIG    1       28.287 -19.006   4.986  0.00  0.00    -0.387 OA
ATOM     11  H   LIG    1       28.791 -18.954   5.826  0.00  0.00    +0.210 HD
ENDBRANCH   4  10
BRANCH   5  12
ATOM     12  O   LIG    1       27.818 -21.541   6.169  0.00  0.00    -0.386 OA
ATOM     13  H   LIG    1       27.317 -21.668   7.001  0.00  0.00    +0.210 HD
ENDBRANCH   5  12
BRANCH   6  14
ATOM     14  S   LIG    1       24.747 -21.572   7.062  0.00  0.00    -0.131 S 
ATOM     15  C   LIG    1       22.973 -21.570   6.661  0.00  0.00    +0.087 C 
ENDBRANCH   6  14
ENDBRANCH   1   2
BRANCH   1  17
ATOM     16  C   LIG    1       23.428 -16.127   3.958  0.00  0.00    +0.231 C 
ATOM     17  N   LIG    1       23.873 -17.275   3.302  0.00  0.00    -0.307 N 
ATOM     18  H   LIG    1       24.449 -17.145   2.479  0.00  0.00    +0.149 HD
ATOM     19  O   LIG    1       22.638 -16.181   4.882  0.00  0.00    -0.274 OA
BRANCH  16  24
ATOM     20  C   LIG    1       26.029 -13.448   3.844  0.00  0.00    +0.005 C 
ATOM     21  C   LIG    1       24.752 -12.613   3.917  0.00  0.00    +0.088 C 
ATOM     22  N   LIG    1       23.664 -13.574   4.227  0.00  0.00    -0.294 NA
ATOM     23  C   LIG    1       23.618 -13.819   5.673  0.00  0.00    +0.105 C 
ATOM     24  C   LIG    1       24.013 -14.783   3.420  0.00  0.00    +0.143 C 
ATOM     25  C   LIG    1       25.543 -14.787   3.284  0.00  0.00    +0.033 C 
BRANCH  20  26
ATOM     26  C   LIG    1       27.148 -12.786   3.025  0.00  0.00    +0.004 C 
BRANCH  26  28
ATOM     27  C   LIG    1       28.524 -12.697   5.153  0.00  0.00    +0.004 C 
ATOM     28  C   LIG    1       28.534 -12.973   3.656  0.00  0.00    -0.003 C 
ENDBRANCH  26  28
ENDBRANCH  20  26
ENDBRANCH  16  24
ENDBRANCH   1  17
BRANCH   1  29
ATOM     29  C   LIG    1       21.986 -18.753   4.240  0.00  0.00    +0.100 C 
ATOM     30  C   LIG    1       21.601 -20.153   4.731  0.00  0.00    +0.026 C 
ATOM     31 CL   LIG    1       20.781 -18.193   3.037  0.00  0.00    -0.120 Cl
ENDBRANCH   1  29
TORSDOF 10
ENDMDL
MODEL 2
REMARK VINA RESULT:       1.4      3.423      7.344
REMARK  Name = *****
REMARK                            x       y       z     vdW  Elec       q    Type
REMARK                         _______ _______ _______ _____ _____    ______ ____
ROOT
ATOM      1  C   LIG    1       27.453 -17.667   4.085  0.00  0.00    +0.122 C 
ENDROOT
BRANCH   1   2
ATOM      2  C   LIG    1       27.084 -16.135   4.022  0.00  0.00    +0.172 C 
ATOM      3  C   LIG    1       25.555 -15.932   4.055  0.00  0.00    +0.176 C 
ATOM      4  C   LIG    1       25.199 -14.444   3.978  0.00  0.00    +0.177 C 
ATOM      5  C   LIG    1       25.836 -13.792   2.748  0.00  0.00    +0.184 C 
ATOM      6  C   LIG    1       27.346 -14.135   2.634  0.00  0.00    +0.207 C 
ATOM      7  O   LIG    1       27.569 -15.560   2.779  0.00  0.00    -0.356 OA
BRANCH   3   8
ATOM      8  O   LIG    1       24.926 -16.572   2.924  0.00  0.00    -0.387 OA
ATOM      9  H   LIG    1       25.549 -17.238   2.573  0.00  0.00    +0.210 HD
ENDBRANCH   3   8
BRANCH   4  10
ATOM     10  O   LIG    1       23.770 -14.288   3.872  0.00  0.00    -0.387 OA
ATOM     11  H   LIG    1       23.395 -15.191   3.951  0.00  0.00    +0.210 HD
ENDBRANCH   4  10
BRANCH   5  12
ATOM     12  O   LIG    1       25.536 -12.391   2.721  0.00  0.00    -0.386 OA
ATOM     13  H   LIG    1       26.403 -11.936   2.704  0.00  0.00    +0.210 HD
ENDBRANCH   5  12
BRANCH   6  14
ATOM     14  S   LIG    1       28.475 -13.170   3.712  0.00  0.00    -0.131 S 
ATOM     15  C   LIG    1       27.526 -13.227   5.262  0.00  0.00    +0.087 C 
ENDBRANCH   6  14
ENDBRANCH   1   2
BRANCH   1  17
ATOM     16  C   LIG    1       26.083 -19.725   4.642  0.00  0.00    +0.231 C 
ATOM     17  N   LIG    1       26.247 -18.533   3.936  0.00  0.00    -0.307 N 
ATOM     18  H   LIG    1       25.535 -18.295   3.257  0.00  0.00    +0.149 HD
ATOM     19  O   LIG    1       26.943 -20.152   5.390  0.00  0.00    -0.274 OA
BRANCH  16  24
ATOM     20  C   LIG    1       22.373 -20.039   4.940  0.00  0.00    +0.005 C 
ATOM     21  C   LIG    1       22.818 -21.444   5.340  0.00  0.00    +0.088 C 
ATOM     22  N   LIG    1       24.290 -21.363   5.508  0.00  0.00    -0.294 NA
ATOM     23  C   LIG    1       24.608 -20.852   6.846  0.00  0.00    +0.105 C 
ATOM     24  C   LIG    1       24.729 -20.464   4.397  0.00  0.00    +0.143 C 
ATOM     25  C   LIG    1       23.553 -19.516   4.116  0.00  0.00    +0.033 C 
BRANCH  20  26
ATOM     26  C   LIG    1       21.023 -20.010   4.204  0.00  0.00    +0.004 C 
BRANCH  26  28
ATOM     27  C   LIG    1       19.350 -18.608   2.914  0.00  0.00    +0.004 C 
ATOM     28  C   LIG    1       20.715 -18.639   3.588  0.00  0.00    -0.003 C 
ENDBRANCH  26  28
ENDBRANCH  20  26
ENDBRANCH  16  24
ENDBRANCH   1  17
BRANCH   1  29
ATOM     29  C   LIG    1       28.363 -18.030   5.312  0.00  0.00    +0.100 C 
ATOM     30  C   LIG    1       29.167 -16.846   5.859  0.00  0.00    +0.026 C 
ATOM     31 CL   LIG    1       29.475 -19.394   4.969  0.00  0.00    -0.120 Cl
ENDBRANCH   1  29
TORSDOF 10
ENDMDL
MODEL 3
REMARK VINA RESULT:       2.4      3.309      7.338
REMARK  Name = *****
REMARK                            x       y       z     vdW  Elec       q    Type
REMARK                         _______ _______ _______ _____ _____    ______ ____
ROOT
ATOM      1  C   LIG    1       26.712 -16.451   3.363  0.00  0.00    +0.122 C 
ENDROOT
BRANCH   1   2
ATOM      2  C   LIG    1       25.627 -15.316   3.210  0.00  0.00    +0.172 C 
ATOM      3  C   LIG    1       26.218 -14.077   2.506  0.00  0.00    +0.176 C 
ATOM      4  C   LIG    1       25.167 -12.971   2.372  0.00  0.00    +0.177 C 
ATOM      5  C   LIG    1       24.565 -12.622   3.736  0.00  0.00    +0.184 C 
ATOM      6  C   LIG    1       24.119 -13.892   4.509  0.00  0.00    +0.207 C 
ATOM      7  O   LIG    1       25.169 -14.891   4.521  0.00  0.00    -0.356 OA
BRANCH   3   8
ATOM      8  O   LIG    1       27.313 -13.525   3.268  0.00  0.00    -0.387 OA
ATOM      9  H   LIG    1       27.735 -12.829   2.726  0.00  0.00    +0.210 HD
ENDBRANCH   3   8
BRANCH   4  10
ATOM     10  O   LIG    1       25.777 -11.779   1.839  0.00  0.00    -0.387 OA
ATOM     11  H   LIG    1       25.360 -11.029   2.313  0.00  0.00    +0.210 HD
ENDBRANCH   4  10
BRANCH   5  12
ATOM     12  O   LIG    1       23.548 -11.624   3.585  0.00  0.00    -0.386 OA
ATOM     13  H   LIG    1       23.016 -11.663   4.407  0.00  0.00    +0.210 HD
ENDBRANCH   5  12
BRANCH   6  14
ATOM     14  S   LIG    1       22.511 -14.620   4.003  0.00  0.00    -0.131 S 
ATOM     15  C   LIG    1       22.499 -16.085   5.080  0.00  0.00    +0.087 C 
ENDBRANCH   6  14
ENDBRANCH   1   2
BRANCH   1  17
ATOM     16  C   LIG    1       25.849 -18.823   3.134  0.00  0.00    +0.231 C 
ATOM     17  N   LIG    1       26.127 -17.705   3.920  0.00  0.00    -0.307 N 
ATOM     18  H   LIG    1       25.859 -17.747   4.896  0.00  0.00    +0.149 HD
ATOM     19  O   LIG    1       26.026 -18.822   1.930  0.00  0.00    -0.274 OA
BRANCH  16  24
ATOM     20  C   LIG    1       24.320 -20.454   6.127  0.00  0.00    +0.005 C 
ATOM     21  C   LIG    1       25.447 -21.433   5.804  0.00  0.00    +0.088 C 
ATOM     22  N   LIG    1       26.286 -20.754   4.785  0.00  0.00    -0.294 NA
ATOM     23  C   LIG    1       27.230 -19.846   5.447  0.00  0.00    +0.105 C 
ATOM     24  C   LIG    1       25.294 -20.061   3.908  0.00  0.00    +0.143 C 
ATOM     25  C   LIG    1       24.081 -19.740   4.794  0.00  0.00    +0.033 C 
BRANCH  20  26
ATOM     26  C   LIG    1       23.073 -21.129   6.719  0.00  0.00    +0.004 C 
BRANCH  26  28
ATOM     27  C   LIG    1       21.665 -20.395   4.742  0.00  0.00    +0.004 C 
ATOM     28  C   LIG    1       22.065 -21.555   5.644  0.00  0.00    -0.003 C 
ENDBRANCH  26  28
ENDBRANCH  20  26
ENDBRANCH  16  24
ENDBRANCH   1  17
BRANCH   1  29
ATOM     29  C   LIG    1       28.013 -15.963   4.095  0.00  0.00    +0.100 C 
ATOM     30  C   LIG    1       28.803 -17.090   4.770  0.00  0.00    +0.026 C 
ATOM     31 CL   LIG    1       27.689 -14.668   5.291  0.00  0.00    -0.120 Cl
ENDBRANCH   1  29
TORSDOF 10
ENDMDL
