MODEL 1
REMARK VINA RESULT:      -7.7      0.000      0.000
REMARK  Name = *****
REMARK                            x       y       z     vdW  Elec       q    Type
REMARK                         _______ _______ _______ _____ _____    ______ ____
ROOT
ATOM      1  C   LIG    1       26.355 -21.122   7.930  0.00  0.00    +0.122 A 
ATOM      2  C   LIG    1       25.104 -20.621   7.614  0.00  0.00    +0.070 A 
ATOM      3  C   LIG    1       24.097 -21.451   7.068  0.00  0.00    +0.057 A 
ATOM      4  C   LIG    1       24.381 -22.857   7.007  0.00  0.00    +0.092 A 
ATOM      5  C   LIG    1       25.641 -23.348   7.241  0.00  0.00    +0.006 A 
ATOM      6  C   LIG    1       25.917 -24.718   6.998  0.00  0.00    +0.012 A 
ATOM      7  C   LIG    1       24.941 -25.548   6.436  0.00  0.00    +0.020 A 
ATOM      8  C   LIG    1       23.727 -24.995   6.258  0.00  0.00    +0.111 A 
ATOM      9  N   LIG    1       23.410 -23.742   6.661  0.00  0.00    -0.253 NA
ATOM     10  C   LIG    1       26.644 -22.476   7.734  0.00  0.00    +0.055 A 
ENDROOT
BRANCH   1  12
ATOM     11  C   LIG    1       28.511 -20.207   7.636  0.00  0.00    +0.277 C 
ATOM     12  O   LIG    1       27.378 -20.389   8.478  0.00  0.00    -0.495 OA
ENDBRANCH   1  12
BRANCH   3  13
ATOM     13  N   LIG    1       22.949 -20.789   6.590  0.00  0.00    -0.340 N 
ATOM     14  H   LIG    1       22.564 -20.115   7.242  0.00  0.00    +0.146 HD
BRANCH  13  15
ATOM     15  C   LIG    1       22.631 -20.463   5.180  0.00  0.00    +0.067 C 
ATOM     16  C   LIG    1       22.254 -18.984   5.045  0.00  0.00    +0.027 C 
BRANCH  15  17
ATOM     17  C   LIG    1       23.714 -20.724   4.125  0.00  0.00    +0.023 C 
BRANCH  17  18
ATOM     18  C   LIG    1       24.312 -19.505   3.387  0.00  0.00    +0.017 C 
BRANCH  18  19
ATOM     19  C   LIG    1       25.715 -19.163   3.848  0.00  0.00    +0.078 C 
BRANCH  19  20
ATOM     20  N   LIG    1       26.426 -20.311   4.383  0.00  0.00    -0.330 NA
ATOM     21  H   LIG    1       26.062 -21.144   3.924  0.00  0.00    +0.118 HD
ATOM     22  H   LIG    1       26.251 -20.400   5.377  0.00  0.00    +0.118 HD
ENDBRANCH  19  20
ENDBRANCH  18  19
ENDBRANCH  17  18
ENDBRANCH  15  17
ENDBRANCH  13  15
ENDBRANCH   3  13
TORSDOF 7
ENDMDL
MODEL 2
REMARK VINA RESULT:      -7.4      2.604      4.701
REMARK  Name = *****
REMARK                            x       y       z     vdW  Elec       q    Type
REMARK                         _______ _______ _______ _____ _____    ______ ____
ROOT
ATOM      1  C   LIG    1       23.688 -20.932   6.612  0.00  0.00    +0.122 A 
ATOM      2  C   LIG    1       25.010 -20.714   6.961  0.00  0.00    +0.070 A 
ATOM      3  C   LIG    1       25.913 -21.791   7.122  0.00  0.00    +0.057 A 
ATOM      4  C   LIG    1       25.437 -23.095   6.755  0.00  0.00    +0.092 A 
ATOM      5  C   LIG    1       24.112 -23.328   6.486  0.00  0.00    +0.006 A 
ATOM      6  C   LIG    1       23.656 -24.659   6.301  0.00  0.00    +0.012 A 
ATOM      7  C   LIG    1       24.530 -25.737   6.480  0.00  0.00    +0.020 A 
ATOM      8  C   LIG    1       25.817 -25.422   6.718  0.00  0.00    +0.111 A 
ATOM      9  N   LIG    1       26.288 -24.153   6.713  0.00  0.00    -0.253 NA
ATOM     10  C   LIG    1       23.221 -22.231   6.389  0.00  0.00    +0.055 A 
ENDROOT
BRANCH   1  12
ATOM     11  C   LIG    1       22.546 -19.564   5.064  0.00  0.00    +0.277 C 
ATOM     12  O   LIG    1       22.756 -19.942   6.420  0.00  0.00    -0.495 OA
ENDBRANCH   1  12
BRANCH   3  13
ATOM     13  N   LIG    1       27.163 -21.465   7.685  0.00  0.00    -0.340 N 
ATOM     14  H   LIG    1       27.329 -21.895   8.588  0.00  0.00    +0.146 HD
BRANCH  13  15
ATOM     15  C   LIG    1       28.419 -21.169   6.956  0.00  0.00    +0.067 C 
ATOM     16  C   LIG    1       28.192 -20.054   5.931  0.00  0.00    +0.027 C 
BRANCH  15  17
ATOM     17  C   LIG    1       29.640 -20.745   7.783  0.00  0.00    +0.023 C 
BRANCH  17  18
ATOM     18  C   LIG    1       30.571 -19.664   7.193  0.00  0.00    +0.017 C 
BRANCH  18  19
ATOM     19  C   LIG    1       31.403 -18.958   8.246  0.00  0.00    +0.078 C 
BRANCH  19  20
ATOM     20  N   LIG    1       31.954 -19.872   9.232  0.00  0.00    -0.330 NA
ATOM     21  H   LIG    1       32.168 -19.334  10.070  0.00  0.00    +0.118 HD
ATOM     22  H   LIG    1       32.819 -20.275   8.890  0.00  0.00    +0.118 HD
ENDBRANCH  19  20
ENDBRANCH  18  19
ENDBRANCH  17  18
ENDBRANCH  15  17
ENDBRANCH  13  15
ENDBRANCH   3  13
TORSDOF 7
ENDMDL
MODEL 3
REMARK VINA RESULT:      -7.2      2.594      4.756
REMARK  Name = *****
REMARK                            x       y       z     vdW  Elec       q    Type
REMARK                         _______ _______ _______ _____ _____    ______ ____
ROOT
ATOM      1  C   LIG    1       23.163 -20.129   5.530  0.00  0.00    +0.122 A 
ATOM      2  C   LIG    1       24.527 -20.002   5.330  0.00  0.00    +0.070 A 
ATOM      3  C   LIG    1       25.404 -21.094   5.530  0.00  0.00    +0.057 A 
ATOM      4  C   LIG    1       24.798 -22.369   5.793  0.00  0.00    +0.092 A 
ATOM      5  C   LIG    1       23.460 -22.487   6.071  0.00  0.00    +0.006 A 
ATOM      6  C   LIG    1       22.939 -23.735   6.499  0.00  0.00    +0.012 A 
ATOM      7  C   LIG    1       23.794 -24.820   6.724  0.00  0.00    +0.020 A 
ATOM      8  C   LIG    1       25.087 -24.628   6.405  0.00  0.00    +0.111 A 
ATOM      9  N   LIG    1       25.554 -23.497   5.824  0.00  0.00    -0.253 NA
ATOM     10  C   LIG    1       22.618 -21.357   5.917  0.00  0.00    +0.055 A 
ENDROOT
BRANCH   1  12
ATOM     11  C   LIG    1       22.525 -18.248   4.256  0.00  0.00    +0.277 C 
ATOM     12  O   LIG    1       22.246 -19.125   5.342  0.00  0.00    -0.495 OA
ENDBRANCH   1  12
BRANCH   3  13
ATOM     13  N   LIG    1       26.779 -20.790   5.506  0.00  0.00    -0.340 N 
ATOM     14  H   LIG    1       27.122 -20.518   4.591  0.00  0.00    +0.146 HD
BRANCH  13  15
ATOM     15  C   LIG    1       27.584 -20.215   6.609  0.00  0.00    +0.067 C 
ATOM     16  C   LIG    1       26.932 -20.519   7.962  0.00  0.00    +0.027 C 
BRANCH  15  17
ATOM     17  C   LIG    1       29.047 -20.662   6.732  0.00  0.00    +0.023 C 
BRANCH  17  18
ATOM     18  C   LIG    1       29.976 -19.845   7.657  0.00  0.00    +0.017 C 
BRANCH  18  19
ATOM     19  C   LIG    1       30.844 -20.716   8.545  0.00  0.00    +0.078 C 
BRANCH  19  20
ATOM     20  N   LIG    1       31.931 -19.979   9.165  0.00  0.00    -0.330 NA
ATOM     21  H   LIG    1       32.806 -20.411   8.872  0.00  0.00    +0.118 HD
ATOM     22  H   LIG    1       31.870 -20.049  10.174  0.00  0.00    +0.118 HD
ENDBRANCH  19  20
ENDBRANCH  18  19
ENDBRANCH  17  18
ENDBRANCH  15  17
ENDBRANCH  13  15
ENDBRANCH   3  13
TORSDOF 7
ENDMDL
MODEL 4
REMARK VINA RESULT:      -7.1      2.562      5.832
REMARK  Name = *****
REMARK                            x       y       z     vdW  Elec       q    Type
REMARK                         _______ _______ _______ _____ _____    ______ ____
ROOT
ATOM      1  C   LIG    1       24.633 -20.556   4.417  0.00  0.00    +0.122 A 
ATOM      2  C   LIG    1       24.261 -21.741   5.027  0.00  0.00    +0.070 A 
ATOM      3  C   LIG    1       25.077 -22.350   6.007  0.00  0.00    +0.057 A 
ATOM      4  C   LIG    1       26.222 -21.605   6.449  0.00  0.00    +0.092 A 
ATOM      5  C   LIG    1       26.640 -20.473   5.796  0.00  0.00    +0.006 A 
ATOM      6  C   LIG    1       27.873 -19.869   6.155  0.00  0.00    +0.012 A 
ATOM      7  C   LIG    1       28.705 -20.470   7.106  0.00  0.00    +0.020 A 
ATOM      8  C   LIG    1       28.211 -21.564   7.716  0.00  0.00    +0.111 A 
ATOM      9  N   LIG    1       26.959 -22.035   7.506  0.00  0.00    -0.253 NA
ATOM     10  C   LIG    1       25.825 -19.920   4.777  0.00  0.00    +0.055 A 
ENDROOT
BRANCH   1  12
ATOM     11  C   LIG    1       23.120 -18.802   3.963  0.00  0.00    +0.277 C 
ATOM     12  O   LIG    1       23.890 -19.893   3.471  0.00  0.00    -0.495 OA
ENDBRANCH   1  12
BRANCH   3  13
ATOM     13  N   LIG    1       24.704 -23.652   6.396  0.00  0.00    -0.340 N 
ATOM     14  H   LIG    1       23.796 -23.700   6.845  0.00  0.00    +0.146 HD
BRANCH  13  15
ATOM     15  C   LIG    1       25.077 -24.923   5.731  0.00  0.00    +0.067 C 
ATOM     16  C   LIG    1       26.340 -25.510   6.370  0.00  0.00    +0.027 C 
BRANCH  15  17
ATOM     17  C   LIG    1       24.041 -26.053   5.721  0.00  0.00    +0.023 C 
BRANCH  17  18
ATOM     18  C   LIG    1       24.463 -27.425   6.291  0.00  0.00    +0.017 C 
BRANCH  18  19
ATOM     19  C   LIG    1       24.437 -28.532   5.254  0.00  0.00    +0.078 C 
BRANCH  19  20
ATOM     20  N   LIG    1       23.287 -29.407   5.396  0.00  0.00    -0.330 NA
ATOM     21  H   LIG    1       22.736 -29.340   4.541  0.00  0.00    +0.118 HD
ATOM     22  H   LIG    1       22.706 -29.100   6.167  0.00  0.00    +0.118 HD
ENDBRANCH  19  20
ENDBRANCH  18  19
ENDBRANCH  17  18
ENDBRANCH  15  17
ENDBRANCH  13  15
ENDBRANCH   3  13
TORSDOF 7
ENDMDL
MODEL 5
REMARK VINA RESULT:      -7.1      2.052      5.313
REMARK  Name = *****
REMARK                            x       y       z     vdW  Elec       q    Type
REMARK                         _______ _______ _______ _____ _____    ______ ____
ROOT
ATOM      1  C   LIG    1       27.014 -21.760   7.449  0.00  0.00    +0.122 A 
ATOM      2  C   LIG    1       26.188 -22.868   7.367  0.00  0.00    +0.070 A 
ATOM      3  C   LIG    1       25.157 -22.945   6.403  0.00  0.00    +0.057 A 
ATOM      4  C   LIG    1       25.110 -21.898   5.421  0.00  0.00    +0.092 A 
ATOM      5  C   LIG    1       25.869 -20.762   5.543  0.00  0.00    +0.006 A 
ATOM      6  C   LIG    1       25.663 -19.680   4.649  0.00  0.00    +0.012 A 
ATOM      7  C   LIG    1       24.632 -19.728   3.705  0.00  0.00    +0.020 A 
ATOM      8  C   LIG    1       23.949 -20.886   3.634  0.00  0.00    +0.111 A 
ATOM      9  N   LIG    1       24.265 -21.985   4.360  0.00  0.00    -0.253 NA
ATOM     10  C   LIG    1       26.856 -20.694   6.558  0.00  0.00    +0.055 A 
ENDROOT
BRANCH   1  12
ATOM     11  C   LIG    1       29.259 -21.117   7.789  0.00  0.00    +0.277 C 
ATOM     12  O   LIG    1       28.047 -21.616   8.342  0.00  0.00    -0.495 OA
ENDBRANCH   1  12
BRANCH   3  13
ATOM     13  N   LIG    1       24.252 -24.014   6.555  0.00  0.00    -0.340 N 
ATOM     14  H   LIG    1       23.292 -23.720   6.693  0.00  0.00    +0.146 HD
BRANCH  13  15
ATOM     15  C   LIG    1       24.353 -25.361   5.945  0.00  0.00    +0.067 C 
ATOM     16  C   LIG    1       25.052 -25.281   4.584  0.00  0.00    +0.027 C 
BRANCH  15  17
ATOM     17  C   LIG    1       25.088 -26.449   6.738  0.00  0.00    +0.023 C 
BRANCH  17  18
ATOM     18  C   LIG    1       25.337 -27.806   6.042  0.00  0.00    +0.017 C 
BRANCH  18  19
ATOM     19  C   LIG    1       24.341 -28.873   6.450  0.00  0.00    +0.078 C 
BRANCH  19  20
ATOM     20  N   LIG    1       23.418 -29.218   5.383  0.00  0.00    -0.330 NA
ATOM     21  H   LIG    1       23.844 -28.937   4.501  0.00  0.00    +0.118 HD
ATOM     22  H   LIG    1       22.552 -28.703   5.489  0.00  0.00    +0.118 HD
ENDBRANCH  19  20
ENDBRANCH  18  19
ENDBRANCH  17  18
ENDBRANCH  15  17
ENDBRANCH  13  15
ENDBRANCH   3  13
TORSDOF 7
ENDMDL
MODEL 6
REMARK VINA RESULT:      -7.0      2.030      4.733
REMARK  Name = *****
REMARK                            x       y       z     vdW  Elec       q    Type
REMARK                         _______ _______ _______ _____ _____    ______ ____
ROOT
ATOM      1  C   LIG    1       27.992 -20.510   6.430  0.00  0.00    +0.122 A 
ATOM      2  C   LIG    1       27.282 -21.542   7.018  0.00  0.00    +0.070 A 
ATOM      3  C   LIG    1       25.951 -21.828   6.635  0.00  0.00    +0.057 A 
ATOM      4  C   LIG    1       25.432 -21.105   5.508  0.00  0.00    +0.092 A 
ATOM      5  C   LIG    1       26.097 -20.030   4.974  0.00  0.00    +0.006 A 
ATOM      6  C   LIG    1       25.469 -19.237   3.980  0.00  0.00    +0.012 A 
ATOM      7  C   LIG    1       24.144 -19.491   3.606  0.00  0.00    +0.020 A 
ATOM      8  C   LIG    1       23.572 -20.577   4.158  0.00  0.00    +0.111 A 
ATOM      9  N   LIG    1       24.232 -21.439   4.967  0.00  0.00    -0.253 NA
ATOM     10  C   LIG    1       27.410 -19.735   5.422  0.00  0.00    +0.055 A 
ENDROOT
BRANCH   1  12
ATOM     11  C   LIG    1       29.647 -18.827   6.470  0.00  0.00    +0.277 C 
ATOM     12  O   LIG    1       29.290 -20.180   6.732  0.00  0.00    -0.495 OA
ENDBRANCH   1  12
BRANCH   3  13
ATOM     13  N   LIG    1       25.263 -22.752   7.446  0.00  0.00    -0.340 N 
ATOM     14  H   LIG    1       24.533 -22.334   8.013  0.00  0.00    +0.146 HD
BRANCH  13  15
ATOM     15  C   LIG    1       25.006 -24.181   7.150  0.00  0.00    +0.067 C 
ATOM     16  C   LIG    1       23.581 -24.369   6.620  0.00  0.00    +0.027 C 
BRANCH  15  17
ATOM     17  C   LIG    1       25.930 -24.878   6.144  0.00  0.00    +0.023 C 
BRANCH  17  18
ATOM     18  C   LIG    1       25.276 -25.646   4.974  0.00  0.00    +0.017 C 
BRANCH  18  19
ATOM     19  C   LIG    1       25.783 -27.069   4.842  0.00  0.00    +0.078 C 
BRANCH  19  20
ATOM     20  N   LIG    1       27.220 -27.172   5.030  0.00  0.00    -0.330 NA
ATOM     21  H   LIG    1       27.651 -27.237   4.109  0.00  0.00    +0.118 HD
ATOM     22  H   LIG    1       27.446 -28.018   5.540  0.00  0.00    +0.118 HD
ENDBRANCH  19  20
ENDBRANCH  18  19
ENDBRANCH  17  18
ENDBRANCH  15  17
ENDBRANCH  13  15
ENDBRANCH   3  13
TORSDOF 7
ENDMDL
MODEL 7
REMARK VINA RESULT:      -7.0      2.379      5.181
REMARK  Name = *****
REMARK                            x       y       z     vdW  Elec       q    Type
REMARK                         _______ _______ _______ _____ _____    ______ ____
ROOT
ATOM      1  C   LIG    1       25.171 -20.178   4.701  0.00  0.00    +0.122 A 
ATOM      2  C   LIG    1       24.644 -21.039   5.648  0.00  0.00    +0.070 A 
ATOM      3  C   LIG    1       25.433 -21.529   6.715  0.00  0.00    +0.057 A 
ATOM      4  C   LIG    1       26.749 -20.971   6.855  0.00  0.00    +0.092 A 
ATOM      5  C   LIG    1       27.304 -20.182   5.879  0.00  0.00    +0.006 A 
ATOM      6  C   LIG    1       28.666 -19.799   5.976  0.00  0.00    +0.012 A 
ATOM      7  C   LIG    1       29.469 -20.293   7.011  0.00  0.00    +0.020 A 
ATOM      8  C   LIG    1       28.842 -21.040   7.939  0.00  0.00    +0.111 A 
ATOM      9  N   LIG    1       27.505 -21.254   7.947  0.00  0.00    -0.253 NA
ATOM     10  C   LIG    1       26.501 -19.756   4.792  0.00  0.00    +0.055 A 
ENDROOT
BRANCH   1  12
ATOM     11  C   LIG    1       23.250 -18.999   4.000  0.00  0.00    +0.277 C 
ATOM     12  O   LIG    1       24.468 -19.646   3.648  0.00  0.00    -0.495 OA
ENDBRANCH   1  12
BRANCH   3  13
ATOM     13  N   LIG    1       24.855 -22.557   7.484  0.00  0.00    -0.340 N 
ATOM     14  H   LIG    1       24.074 -22.252   8.054  0.00  0.00    +0.146 HD
BRANCH  13  15
ATOM     15  C   LIG    1       24.777 -23.996   7.135  0.00  0.00    +0.067 C 
ATOM     16  C   LIG    1       23.385 -24.341   6.599  0.00  0.00    +0.027 C 
BRANCH  15  17
ATOM     17  C   LIG    1       25.777 -24.535   6.104  0.00  0.00    +0.023 C 
BRANCH  17  18
ATOM     18  C   LIG    1       25.223 -25.377   4.934  0.00  0.00    +0.017 C 
BRANCH  18  19
ATOM     19  C   LIG    1       25.702 -26.815   4.960  0.00  0.00    +0.078 C 
BRANCH  19  20
ATOM     20  N   LIG    1       27.119 -26.930   5.256  0.00  0.00    -0.330 NA
ATOM     21  H   LIG    1       27.575 -27.344   4.445  0.00  0.00    +0.118 HD
ATOM     22  H   LIG    1       27.263 -27.550   6.045  0.00  0.00    +0.118 HD
ENDBRANCH  19  20
ENDBRANCH  18  19
ENDBRANCH  17  18
ENDBRANCH  15  17
ENDBRANCH  13  15
ENDBRANCH   3  13
TORSDOF 7
ENDMDL
MODEL 8
REMARK VINA RESULT:      -6.7      1.662      4.667
REMARK  Name = *****
REMARK                            x       y       z     vdW  Elec       q    Type
REMARK                         _______ _______ _______ _____ _____    ______ ____
ROOT
ATOM      1  C   LIG    1       26.380 -21.951   7.218  0.00  0.00    +0.122 A 
ATOM      2  C   LIG    1       26.014 -21.487   5.966  0.00  0.00    +0.070 A 
ATOM      3  C   LIG    1       26.718 -20.433   5.339  0.00  0.00    +0.057 A 
ATOM      4  C   LIG    1       27.916 -19.979   5.988  0.00  0.00    +0.092 A 
ATOM      5  C   LIG    1       28.240 -20.376   7.261  0.00  0.00    +0.006 A 
ATOM      6  C   LIG    1       29.335 -19.770   7.929  0.00  0.00    +0.012 A 
ATOM      7  C   LIG    1       30.028 -18.710   7.334  0.00  0.00    +0.020 A 
ATOM      8  C   LIG    1       29.663 -18.398   6.076  0.00  0.00    +0.111 A 
ATOM      9  N   LIG    1       28.743 -19.096   5.370  0.00  0.00    -0.253 NA
ATOM     10  C   LIG    1       27.477 -21.395   7.884  0.00  0.00    +0.055 A 
ENDROOT
BRANCH   1  12
ATOM     11  C   LIG    1       25.346 -24.067   7.067  0.00  0.00    +0.277 C 
ATOM     12  O   LIG    1       25.761 -22.979   7.885  0.00  0.00    -0.495 OA
ENDBRANCH   1  12
BRANCH   3  13
ATOM     13  N   LIG    1       26.126 -19.906   4.175  0.00  0.00    -0.340 N 
ATOM     14  H   LIG    1       26.010 -20.586   3.431  0.00  0.00    +0.146 HD
BRANCH  13  15
ATOM     15  C   LIG    1       25.137 -18.804   4.097  0.00  0.00    +0.067 C 
ATOM     16  C   LIG    1       25.669 -17.670   3.216  0.00  0.00    +0.027 C 
BRANCH  15  17
ATOM     17  C   LIG    1       23.739 -19.138   3.562  0.00  0.00    +0.023 C 
BRANCH  17  18
ATOM     18  C   LIG    1       22.551 -19.057   4.547  0.00  0.00    +0.017 C 
BRANCH  18  19
ATOM     19  C   LIG    1       22.606 -20.118   5.629  0.00  0.00    +0.078 C 
BRANCH  19  20
ATOM     20  N   LIG    1       22.482 -21.465   5.102  0.00  0.00    -0.330 NA
ATOM     21  H   LIG    1       22.232 -22.081   5.875  0.00  0.00    +0.118 HD
ATOM     22  H   LIG    1       23.370 -21.779   4.730  0.00  0.00    +0.118 HD
ENDBRANCH  19  20
ENDBRANCH  18  19
ENDBRANCH  17  18
ENDBRANCH  15  17
ENDBRANCH  13  15
ENDBRANCH   3  13
TORSDOF 7
ENDMDL
MODEL 9
REMARK VINA RESULT:      -6.6      2.552      4.668
REMARK  Name = *****
REMARK                            x       y       z     vdW  Elec       q    Type
REMARK                         _______ _______ _______ _____ _____    ______ ____
ROOT
ATOM      1  C   LIG    1       24.706 -21.091   7.112  0.00  0.00    +0.122 A 
ATOM      2  C   LIG    1       24.776 -20.899   5.743  0.00  0.00    +0.070 A 
ATOM      3  C   LIG    1       25.937 -20.368   5.135  0.00  0.00    +0.057 A 
ATOM      4  C   LIG    1       27.085 -20.188   5.979  0.00  0.00    +0.092 A 
ATOM      5  C   LIG    1       26.999 -20.299   7.343  0.00  0.00    +0.006 A 
ATOM      6  C   LIG    1       28.111 -19.941   8.149  0.00  0.00    +0.012 A 
ATOM      7  C   LIG    1       29.259 -19.391   7.567  0.00  0.00    +0.020 A 
ATOM      8  C   LIG    1       29.272 -19.339   6.222  0.00  0.00    +0.111 A 
ATOM      9  N   LIG    1       28.287 -19.849   5.445  0.00  0.00    -0.253 NA
ATOM     10  C   LIG    1       25.800 -20.780   7.926  0.00  0.00    +0.055 A 
ENDROOT
BRANCH   1  12
ATOM     11  C   LIG    1       22.947 -22.664   7.091  0.00  0.00    +0.277 C 
ATOM     12  O   LIG    1       23.625 -21.616   7.775  0.00  0.00    -0.495 OA
ENDBRANCH   1  12
BRANCH   3  13
ATOM     13  N   LIG    1       25.814 -20.018   3.776  0.00  0.00    -0.340 N 
ATOM     14  H   LIG    1       25.604 -20.803   3.169  0.00  0.00    +0.146 HD
BRANCH  13  15
ATOM     15  C   LIG    1       25.329 -18.730   3.226  0.00  0.00    +0.067 C 
ATOM     16  C   LIG    1       23.949 -18.390   3.799  0.00  0.00    +0.027 C 
BRANCH  15  17
ATOM     17  C   LIG    1       26.201 -17.487   3.449  0.00  0.00    +0.023 C 
BRANCH  17  18
ATOM     18  C   LIG    1       25.515 -16.104   3.388  0.00  0.00    +0.017 C 
BRANCH  18  19
ATOM     19  C   LIG    1       26.502 -14.953   3.395  0.00  0.00    +0.078 C 
BRANCH  19  20
ATOM     20  N   LIG    1       26.674 -14.354   2.083  0.00  0.00    -0.330 NA
ATOM     21  H   LIG    1       27.310 -13.564   2.182  0.00  0.00    +0.118 HD
ATOM     22  H   LIG    1       25.788 -14.000   1.740  0.00  0.00    +0.118 HD
ENDBRANCH  19  20
ENDBRANCH  18  19
ENDBRANCH  17  18
ENDBRANCH  15  17
ENDBRANCH  13  15
ENDBRANCH   3  13
TORSDOF 7
ENDMDL
