MODEL 1
REMARK VINA RESULT:      -9.2      0.000      0.000
REMARK  Name = *****
REMARK                            x       y       z     vdW  Elec       q    Type
REMARK                         _______ _______ _______ _____ _____    ______ ____
ROOT
ATOM      1  C   LIG    1       24.014 -20.698   3.423  0.00  0.00    +0.052 C 
ATOM      2  C   LIG    1       25.139 -20.442   4.376  0.00  0.00    +0.040 C 
ATOM      3  C   LIG    1       25.491 -21.199   5.431  0.00  0.00    +0.142 C 
ATOM      4  O   LIG    1       26.591 -20.956   6.231  0.00  0.00    -0.454 OA
ATOM      5  C   LIG    1       27.485 -19.974   5.882  0.00  0.00    +0.153 A 
ATOM      6  C   LIG    1       27.186 -19.052   4.885  0.00  0.00    +0.065 A 
ATOM      7  C   LIG    1       28.057 -17.991   4.597  0.00  0.00    +0.015 A 
ATOM      8  C   LIG    1       29.260 -17.869   5.288  0.00  0.00    +0.002 A 
ATOM      9  C   LIG    1       29.592 -18.813   6.254  0.00  0.00    +0.019 A 
ATOM     10  C   LIG    1       28.710 -19.865   6.561  0.00  0.00    +0.102 A 
ATOM     11  C   LIG    1       25.947 -19.222   4.112  0.00  0.00    +0.196 C 
ATOM     12  O   LIG    1       25.613 -18.392   3.274  0.00  0.00    -0.287 OA
ENDROOT
BRANCH   3  13
ATOM     13  C   LIG    1       24.701 -22.358   5.891  0.00  0.00    +0.018 A 
ATOM     14  C   LIG    1       23.408 -22.201   6.404  0.00  0.00    +0.011 A 
ATOM     15  C   LIG    1       22.675 -23.314   6.834  0.00  0.00    +0.001 A 
ATOM     16  C   LIG    1       23.225 -24.592   6.751  0.00  0.00    +0.000 A 
ATOM     17  C   LIG    1       24.510 -24.760   6.238  0.00  0.00    +0.001 A 
ATOM     18  C   LIG    1       25.244 -23.650   5.809  0.00  0.00    +0.011 A 
ENDBRANCH   3  13
BRANCH  10  19
ATOM     19  C   LIG    1       29.165 -20.810   7.603  0.00  0.00    +0.343 C 
ATOM     20  O   LIG    1       28.399 -21.553   8.211  0.00  0.00    -0.245 OA
BRANCH  19  21
ATOM     21  O   LIG    1       30.489 -20.695   7.822  0.00  0.00    -0.460 OA
BRANCH  21  22
ATOM     22  C   LIG    1       30.851 -20.138   9.090  0.00  0.00    +0.247 C 
BRANCH  22  23
ATOM     23  C   LIG    1       31.842 -18.986   8.868  0.00  0.00    +0.125 C 
BRANCH  23  24
ATOM     24  N   LIG    1       31.237 -17.649   8.907  0.00  0.00    -0.299 NA
ATOM     25  C   LIG    1       30.160 -17.575   9.904  0.00  0.00    +0.084 C 
ATOM     26  C   LIG    1       30.640 -17.584  11.359  0.00  0.00    +0.015 C 
ATOM     27  C   LIG    1       31.736 -16.557  11.623  0.00  0.00    +0.002 C 
ATOM     28  C   LIG    1       32.803 -16.523  10.534  0.00  0.00    +0.015 C 
ATOM     29  C   LIG    1       32.204 -16.565   9.129  0.00  0.00    +0.084 C 
ENDBRANCH  23  24
ENDBRANCH  22  23
ENDBRANCH  21  22
ENDBRANCH  19  21
ENDBRANCH  10  19
TORSDOF 6
ENDMDL
MODEL 2
REMARK VINA RESULT:      -8.7      3.083      7.880
REMARK  Name = *****
REMARK                            x       y       z     vdW  Elec       q    Type
REMARK                         _______ _______ _______ _____ _____    ______ ____
ROOT
ATOM      1  C   LIG    1       28.328 -17.972   4.611  0.00  0.00    +0.052 C 
ATOM      2  C   LIG    1       27.287 -18.987   4.967  0.00  0.00    +0.040 C 
ATOM      3  C   LIG    1       27.368 -19.923   5.928  0.00  0.00    +0.142 C 
ATOM      4  O   LIG    1       26.341 -20.784   6.267  0.00  0.00    -0.454 OA
ATOM      5  C   LIG    1       25.098 -20.615   5.708  0.00  0.00    +0.153 A 
ATOM      6  C   LIG    1       24.907 -19.762   4.627  0.00  0.00    +0.065 A 
ATOM      7  C   LIG    1       23.658 -19.666   3.994  0.00  0.00    +0.015 A 
ATOM      8  C   LIG    1       22.577 -20.403   4.470  0.00  0.00    +0.002 A 
ATOM      9  C   LIG    1       22.745 -21.223   5.581  0.00  0.00    +0.019 A 
ATOM     10  C   LIG    1       24.001 -21.339   6.203  0.00  0.00    +0.102 A 
ATOM     11  C   LIG    1       26.034 -18.936   4.168  0.00  0.00    +0.196 C 
ATOM     12  O   LIG    1       25.925 -18.225   3.176  0.00  0.00    -0.287 OA
ENDROOT
BRANCH   3  13
ATOM     13  C   LIG    1       28.598 -20.177   6.704  0.00  0.00    +0.018 A 
ATOM     14  C   LIG    1       28.682 -21.242   7.610  0.00  0.00    +0.011 A 
ATOM     15  C   LIG    1       29.858 -21.465   8.336  0.00  0.00    +0.001 A 
ATOM     16  C   LIG    1       30.961 -20.631   8.159  0.00  0.00    +0.000 A 
ATOM     17  C   LIG    1       30.891 -19.572   7.258  0.00  0.00    +0.001 A 
ATOM     18  C   LIG    1       29.716 -19.346   6.533  0.00  0.00    +0.011 A 
ENDBRANCH   3  13
BRANCH  10  19
ATOM     19  C   LIG    1       24.064 -22.237   7.376  0.00  0.00    +0.343 C 
ATOM     20  O   LIG    1       24.456 -21.868   8.480  0.00  0.00    -0.245 OA
BRANCH  19  21
ATOM     21  O   LIG    1       23.702 -23.492   7.049  0.00  0.00    -0.460 OA
BRANCH  21  22
ATOM     22  C   LIG    1       24.716 -24.274   6.409  0.00  0.00    +0.247 C 
BRANCH  22  23
ATOM     23  C   LIG    1       24.136 -25.648   6.045  0.00  0.00    +0.125 C 
BRANCH  23  24
ATOM     24  N   LIG    1       25.114 -26.591   5.487  0.00  0.00    -0.299 NA
ATOM     25  C   LIG    1       26.273 -26.752   6.376  0.00  0.00    +0.084 C 
ATOM     26  C   LIG    1       25.987 -27.544   7.656  0.00  0.00    +0.015 C 
ATOM     27  C   LIG    1       25.288 -28.871   7.382  0.00  0.00    +0.002 C 
ATOM     28  C   LIG    1       24.160 -28.757   6.362  0.00  0.00    +0.015 C 
ATOM     29  C   LIG    1       24.548 -27.906   5.154  0.00  0.00    +0.084 C 
ENDBRANCH  23  24
ENDBRANCH  22  23
ENDBRANCH  21  22
ENDBRANCH  19  21
ENDBRANCH  10  19
TORSDOF 6
ENDMDL
MODEL 3
REMARK VINA RESULT:      -8.1      6.154     10.112
REMARK  Name = *****
REMARK                            x       y       z     vdW  Elec       q    Type
REMARK                         _______ _______ _______ _____ _____    ______ ____
ROOT
ATOM      1  C   LIG    1       25.584 -31.987  11.131  0.00  0.00    +0.052 C 
ATOM      2  C   LIG    1       25.360 -31.081   9.961  0.00  0.00    +0.040 C 
ATOM      3  C   LIG    1       25.337 -29.736   9.974  0.00  0.00    +0.142 C 
ATOM      4  O   LIG    1       25.205 -28.948   8.847  0.00  0.00    -0.454 OA
ATOM      5  C   LIG    1       25.234 -29.529   7.602  0.00  0.00    +0.153 A 
ATOM      6  C   LIG    1       25.142 -30.908   7.450  0.00  0.00    +0.065 A 
ATOM      7  C   LIG    1       25.073 -31.491   6.177  0.00  0.00    +0.015 A 
ATOM      8  C   LIG    1       25.132 -30.691   5.039  0.00  0.00    +0.002 A 
ATOM      9  C   LIG    1       25.273 -29.314   5.178  0.00  0.00    +0.019 A 
ATOM     10  C   LIG    1       25.319 -28.724   6.454  0.00  0.00    +0.102 A 
ATOM     11  C   LIG    1       25.146 -31.754   8.653  0.00  0.00    +0.196 C 
ATOM     12  O   LIG    1       24.997 -32.967   8.564  0.00  0.00    -0.287 OA
ENDROOT
BRANCH   3  13
ATOM     13  C   LIG    1       25.398 -28.941  11.217  0.00  0.00    +0.018 A 
ATOM     14  C   LIG    1       24.324 -28.909  12.115  0.00  0.00    +0.011 A 
ATOM     15  C   LIG    1       24.403 -28.149  13.288  0.00  0.00    +0.001 A 
ATOM     16  C   LIG    1       25.555 -27.419  13.576  0.00  0.00    +0.000 A 
ATOM     17  C   LIG    1       26.631 -27.447  12.691  0.00  0.00    +0.001 A 
ATOM     18  C   LIG    1       26.554 -28.205  11.518  0.00  0.00    +0.011 A 
ENDBRANCH   3  13
BRANCH  10  19
ATOM     19  C   LIG    1       25.470 -27.254   6.484  0.00  0.00    +0.343 C 
ATOM     20  O   LIG    1       26.564 -26.694   6.478  0.00  0.00    -0.245 OA
BRANCH  19  21
ATOM     21  O   LIG    1       24.274 -26.642   6.580  0.00  0.00    -0.460 OA
BRANCH  21  22
ATOM     22  C   LIG    1       24.088 -25.525   5.705  0.00  0.00    +0.247 C 
BRANCH  22  23
ATOM     23  C   LIG    1       24.187 -24.227   6.520  0.00  0.00    +0.125 C 
BRANCH  23  24
ATOM     24  N   LIG    1       25.250 -23.314   6.081  0.00  0.00    -0.299 NA
ATOM     25  C   LIG    1       24.694 -22.072   5.524  0.00  0.00    +0.084 C 
ATOM     26  C   LIG    1       24.081 -21.129   6.563  0.00  0.00    +0.015 C 
ATOM     27  C   LIG    1       25.015 -20.861   7.738  0.00  0.00    +0.002 C 
ATOM     28  C   LIG    1       25.706 -22.118   8.256  0.00  0.00    +0.015 C 
ATOM     29  C   LIG    1       26.234 -23.001   7.125  0.00  0.00    +0.084 C 
ENDBRANCH  23  24
ENDBRANCH  22  23
ENDBRANCH  21  22
ENDBRANCH  19  21
ENDBRANCH  10  19
TORSDOF 6
ENDMDL
MODEL 4
REMARK VINA RESULT:      -7.9      6.434     10.480
REMARK  Name = *****
REMARK                            x       y       z     vdW  Elec       q    Type
REMARK                         _______ _______ _______ _____ _____    ______ ____
ROOT
ATOM      1  C   LIG    1       24.825 -32.655  10.946  0.00  0.00    +0.052 C 
ATOM      2  C   LIG    1       24.703 -31.734   9.772  0.00  0.00    +0.040 C 
ATOM      3  C   LIG    1       24.371 -30.432   9.799  0.00  0.00    +0.142 C 
ATOM      4  O   LIG    1       24.353 -29.609   8.689  0.00  0.00    -0.454 OA
ATOM      5  C   LIG    1       24.829 -30.074   7.488  0.00  0.00    +0.153 A 
ATOM      6  C   LIG    1       25.099 -31.424   7.296  0.00  0.00    +0.065 A 
ATOM      7  C   LIG    1       25.491 -31.911   6.041  0.00  0.00    +0.015 A 
ATOM      8  C   LIG    1       25.653 -31.034   4.972  0.00  0.00    +0.002 A 
ATOM      9  C   LIG    1       25.434 -29.674   5.165  0.00  0.00    +0.019 A 
ATOM     10  C   LIG    1       25.017 -29.185   6.416  0.00  0.00    +0.102 A 
ATOM     11  C   LIG    1       24.990 -32.338   8.444  0.00  0.00    +0.196 C 
ATOM     12  O   LIG    1       25.151 -33.544   8.300  0.00  0.00    -0.287 OA
ENDROOT
BRANCH   3  13
ATOM     13  C   LIG    1       23.930 -29.738  11.026  0.00  0.00    +0.018 A 
ATOM     14  C   LIG    1       22.589 -29.754  11.430  0.00  0.00    +0.011 A 
ATOM     15  C   LIG    1       22.192 -29.091  12.597  0.00  0.00    +0.001 A 
ATOM     16  C   LIG    1       23.130 -28.410  13.372  0.00  0.00    +0.000 A 
ATOM     17  C   LIG    1       24.467 -28.391  12.981  0.00  0.00    +0.001 A 
ATOM     18  C   LIG    1       24.866 -29.052  11.815  0.00  0.00    +0.011 A 
ENDBRANCH   3  13
BRANCH  10  19
ATOM     19  C   LIG    1       24.815 -27.724   6.508  0.00  0.00    +0.343 C 
ATOM     20  O   LIG    1       23.780 -27.169   6.146  0.00  0.00    -0.245 OA
BRANCH  19  21
ATOM     21  O   LIG    1       25.918 -27.107   6.972  0.00  0.00    -0.460 OA
BRANCH  21  22
ATOM     22  C   LIG    1       26.324 -25.947   6.238  0.00  0.00    +0.247 C 
BRANCH  22  23
ATOM     23  C   LIG    1       25.880 -24.690   7.000  0.00  0.00    +0.125 C 
BRANCH  23  24
ATOM     24  N   LIG    1       25.631 -23.520   6.148  0.00  0.00    -0.299 NA
ATOM     25  C   LIG    1       24.244 -23.496   5.661  0.00  0.00    +0.084 C 
ATOM     26  C   LIG    1       23.202 -23.151   6.729  0.00  0.00    +0.015 C 
ATOM     27  C   LIG    1       23.556 -21.890   7.511  0.00  0.00    +0.002 C 
ATOM     28  C   LIG    1       25.024 -21.828   7.920  0.00  0.00    +0.015 C 
ATOM     29  C   LIG    1       25.963 -22.239   6.786  0.00  0.00    +0.084 C 
ENDBRANCH  23  24
ENDBRANCH  22  23
ENDBRANCH  21  22
ENDBRANCH  19  21
ENDBRANCH  10  19
TORSDOF 6
ENDMDL
MODEL 5
REMARK VINA RESULT:      -7.9      5.801      9.728
REMARK  Name = *****
REMARK                            x       y       z     vdW  Elec       q    Type
REMARK                         _______ _______ _______ _____ _____    ______ ____
ROOT
ATOM      1  C   LIG    1       25.190 -31.769  10.450  0.00  0.00    +0.052 C 
ATOM      2  C   LIG    1       25.148 -30.616   9.497  0.00  0.00    +0.040 C 
ATOM      3  C   LIG    1       25.789 -29.441   9.624  0.00  0.00    +0.142 C 
ATOM      4  O   LIG    1       25.778 -28.440   8.670  0.00  0.00    -0.454 OA
ATOM      5  C   LIG    1       25.203 -28.672   7.445  0.00  0.00    +0.153 A 
ATOM      6  C   LIG    1       24.415 -29.796   7.223  0.00  0.00    +0.065 A 
ATOM      7  C   LIG    1       23.748 -29.981   6.003  0.00  0.00    +0.015 A 
ATOM      8  C   LIG    1       23.900 -29.052   4.977  0.00  0.00    +0.002 A 
ATOM      9  C   LIG    1       24.726 -27.949   5.171  0.00  0.00    +0.019 A 
ATOM     10  C   LIG    1       25.377 -27.748   6.401  0.00  0.00    +0.102 A 
ATOM     11  C   LIG    1       24.309 -30.808   8.284  0.00  0.00    +0.196 C 
ATOM     12  O   LIG    1       23.569 -31.776   8.155  0.00  0.00    -0.287 OA
ENDROOT
BRANCH   3  13
ATOM     13  C   LIG    1       26.544 -29.061  10.834  0.00  0.00    +0.018 A 
ATOM     14  C   LIG    1       25.963 -28.278  11.840  0.00  0.00    +0.011 A 
ATOM     15  C   LIG    1       26.696 -27.929  12.980  0.00  0.00    +0.001 A 
ATOM     16  C   LIG    1       28.012 -28.363  13.129  0.00  0.00    +0.000 A 
ATOM     17  C   LIG    1       28.599 -29.145  12.137  0.00  0.00    +0.001 A 
ATOM     18  C   LIG    1       27.869 -29.494  10.996  0.00  0.00    +0.011 A 
ENDBRANCH   3  13
BRANCH  10  19
ATOM     19  C   LIG    1       26.229 -26.544   6.496  0.00  0.00    +0.343 C 
ATOM     20  O   LIG    1       27.385 -26.509   6.082  0.00  0.00    -0.245 OA
BRANCH  19  21
ATOM     21  O   LIG    1       25.593 -25.546   7.140  0.00  0.00    -0.460 OA
BRANCH  21  22
ATOM     22  C   LIG    1       26.021 -24.225   6.791  0.00  0.00    +0.247 C 
BRANCH  22  23
ATOM     23  C   LIG    1       24.931 -23.552   5.945  0.00  0.00    +0.125 C 
BRANCH  23  24
ATOM     24  N   LIG    1       25.273 -22.202   5.478  0.00  0.00    -0.299 NA
ATOM     25  C   LIG    1       24.209 -21.642   4.633  0.00  0.00    +0.084 C 
ATOM     26  C   LIG    1       22.940 -21.240   5.391  0.00  0.00    +0.015 C 
ATOM     27  C   LIG    1       23.232 -20.360   6.602  0.00  0.00    +0.002 C 
ATOM     28  C   LIG    1       24.418 -20.849   7.429  0.00  0.00    +0.015 C 
ATOM     29  C   LIG    1       25.604 -21.265   6.559  0.00  0.00    +0.084 C 
ENDBRANCH  23  24
ENDBRANCH  22  23
ENDBRANCH  21  22
ENDBRANCH  19  21
ENDBRANCH  10  19
TORSDOF 6
ENDMDL
MODEL 6
REMARK VINA RESULT:      -7.6      3.475      6.955
REMARK  Name = *****
REMARK                            x       y       z     vdW  Elec       q    Type
REMARK                         _______ _______ _______ _____ _____    ______ ____
ROOT
ATOM      1  C   LIG    1       25.784 -18.290   3.115  0.00  0.00    +0.052 C 
ATOM      2  C   LIG    1       26.037 -19.043   4.383  0.00  0.00    +0.040 C 
ATOM      3  C   LIG    1       25.144 -19.759   5.088  0.00  0.00    +0.142 C 
ATOM      4  O   LIG    1       25.454 -20.501   6.212  0.00  0.00    -0.454 OA
ATOM      5  C   LIG    1       26.766 -20.657   6.586  0.00  0.00    +0.153 A 
ATOM      6  C   LIG    1       27.772 -19.886   6.014  0.00  0.00    +0.065 A 
ATOM      7  C   LIG    1       29.097 -19.976   6.467  0.00  0.00    +0.015 A 
ATOM      8  C   LIG    1       29.428 -20.873   7.479  0.00  0.00    +0.002 A 
ATOM      9  C   LIG    1       28.439 -21.684   8.025  0.00  0.00    +0.019 A 
ATOM     10  C   LIG    1       27.105 -21.580   7.589  0.00  0.00    +0.102 A 
ATOM     11  C   LIG    1       27.430 -18.988   4.902  0.00  0.00    +0.196 C 
ATOM     12  O   LIG    1       28.273 -18.241   4.419  0.00  0.00    -0.287 OA
ENDROOT
BRANCH   3  13
ATOM     13  C   LIG    1       23.703 -19.790   4.768  0.00  0.00    +0.018 A 
ATOM     14  C   LIG    1       23.036 -18.652   4.299  0.00  0.00    +0.011 A 
ATOM     15  C   LIG    1       21.669 -18.703   4.001  0.00  0.00    +0.001 A 
ATOM     16  C   LIG    1       20.959 -19.891   4.163  0.00  0.00    +0.000 A 
ATOM     17  C   LIG    1       21.613 -21.031   4.626  0.00  0.00    +0.001 A 
ATOM     18  C   LIG    1       22.979 -20.981   4.926  0.00  0.00    +0.011 A 
ENDBRANCH   3  13
BRANCH  10  19
ATOM     19  C   LIG    1       26.138 -22.490   8.238  0.00  0.00    +0.343 C 
ATOM     20  O   LIG    1       25.544 -22.205   9.275  0.00  0.00    -0.245 OA
BRANCH  19  21
ATOM     21  O   LIG    1       26.054 -23.662   7.579  0.00  0.00    -0.460 OA
BRANCH  21  22
ATOM     22  C   LIG    1       24.914 -23.802   6.725  0.00  0.00    +0.247 C 
BRANCH  22  23
ATOM     23  C   LIG    1       24.652 -25.294   6.477  0.00  0.00    +0.125 C 
BRANCH  23  24
ATOM     24  N   LIG    1       25.853 -26.077   6.160  0.00  0.00    -0.299 NA
ATOM     25  C   LIG    1       26.164 -27.038   7.228  0.00  0.00    +0.084 C 
ATOM     26  C   LIG    1       25.204 -28.229   7.311  0.00  0.00    +0.015 C 
ATOM     27  C   LIG    1       25.001 -28.916   5.964  0.00  0.00    +0.002 C 
ATOM     28  C   LIG    1       24.803 -27.935   4.813  0.00  0.00    +0.015 C 
ATOM     29  C   LIG    1       25.787 -26.768   4.865  0.00  0.00    +0.084 C 
ENDBRANCH  23  24
ENDBRANCH  22  23
ENDBRANCH  21  22
ENDBRANCH  19  21
ENDBRANCH  10  19
TORSDOF 6
ENDMDL
MODEL 7
REMARK VINA RESULT:      -7.4      7.731     11.835
REMARK  Name = *****
REMARK                            x       y       z     vdW  Elec       q    Type
REMARK                         _______ _______ _______ _____ _____    ______ ____
ROOT
ATOM      1  C   LIG    1       20.719 -29.702  12.932  0.00  0.00    +0.052 C 
ATOM      2  C   LIG    1       21.762 -30.018  11.906  0.00  0.00    +0.040 C 
ATOM      3  C   LIG    1       21.591 -30.714  10.769  0.00  0.00    +0.142 C 
ATOM      4  O   LIG    1       22.575 -30.907   9.817  0.00  0.00    -0.454 OA
ATOM      5  C   LIG    1       23.774 -30.249   9.934  0.00  0.00    +0.153 A 
ATOM      6  C   LIG    1       24.121 -29.590  11.109  0.00  0.00    +0.065 A 
ATOM      7  C   LIG    1       25.386 -29.004  11.262  0.00  0.00    +0.015 A 
ATOM      8  C   LIG    1       26.304 -29.043  10.216  0.00  0.00    +0.002 A 
ATOM      9  C   LIG    1       25.950 -29.656   9.018  0.00  0.00    +0.019 A 
ATOM     10  C   LIG    1       24.691 -30.266   8.870  0.00  0.00    +0.102 A 
ATOM     11  C   LIG    1       23.126 -29.494  12.187  0.00  0.00    +0.196 C 
ATOM     12  O   LIG    1       23.416 -28.984  13.263  0.00  0.00    -0.287 OA
ENDROOT
BRANCH   3  13
ATOM     13  C   LIG    1       20.332 -31.405  10.429  0.00  0.00    +0.018 A 
ATOM     14  C   LIG    1       19.149 -30.692  10.194  0.00  0.00    +0.011 A 
ATOM     15  C   LIG    1       17.965 -31.367   9.873  0.00  0.00    +0.001 A 
ATOM     16  C   LIG    1       17.954 -32.758   9.778  0.00  0.00    +0.000 A 
ATOM     17  C   LIG    1       19.125 -33.477  10.005  0.00  0.00    +0.001 A 
ATOM     18  C   LIG    1       20.308 -32.805  10.328  0.00  0.00    +0.011 A 
ENDBRANCH   3  13
BRANCH  10  19
ATOM     19  C   LIG    1       24.422 -30.887   7.556  0.00  0.00    +0.343 C 
ATOM     20  O   LIG    1       24.914 -31.958   7.210  0.00  0.00    -0.245 OA
BRANCH  19  21
ATOM     21  O   LIG    1       23.634 -30.101   6.797  0.00  0.00    -0.460 OA
BRANCH  21  22
ATOM     22  C   LIG    1       24.274 -29.511   5.661  0.00  0.00    +0.247 C 
BRANCH  22  23
ATOM     23  C   LIG    1       24.356 -27.991   5.863  0.00  0.00    +0.125 C 
BRANCH  23  24
ATOM     24  N   LIG    1       25.688 -27.419   5.632  0.00  0.00    -0.299 NA
ATOM     25  C   LIG    1       25.696 -26.534   4.458  0.00  0.00    +0.084 C 
ATOM     26  C   LIG    1       24.974 -25.199   4.664  0.00  0.00    +0.015 C 
ATOM     27  C   LIG    1       25.423 -24.475   5.929  0.00  0.00    +0.002 C 
ATOM     28  C   LIG    1       25.547 -25.398   7.138  0.00  0.00    +0.015 C 
ATOM     29  C   LIG    1       26.243 -26.716   6.797  0.00  0.00    +0.084 C 
ENDBRANCH  23  24
ENDBRANCH  22  23
ENDBRANCH  21  22
ENDBRANCH  19  21
ENDBRANCH  10  19
TORSDOF 6
ENDMDL
MODEL 8
REMARK VINA RESULT:      -7.3      7.827     11.339
REMARK  Name = *****
REMARK                            x       y       z     vdW  Elec       q    Type
REMARK                         _______ _______ _______ _____ _____    ______ ____
ROOT
ATOM      1  C   LIG    1       24.414 -26.100  14.423  0.00  0.00    +0.052 C 
ATOM      2  C   LIG    1       24.587 -27.212  13.436  0.00  0.00    +0.040 C 
ATOM      3  C   LIG    1       23.616 -27.969  12.895  0.00  0.00    +0.142 C 
ATOM      4  O   LIG    1       23.827 -28.932  11.926  0.00  0.00    -0.454 OA
ATOM      5  C   LIG    1       25.068 -29.060  11.352  0.00  0.00    +0.153 A 
ATOM      6  C   LIG    1       26.179 -28.421  11.891  0.00  0.00    +0.065 A 
ATOM      7  C   LIG    1       27.461 -28.632  11.363  0.00  0.00    +0.015 A 
ATOM      8  C   LIG    1       27.633 -29.463  10.260  0.00  0.00    +0.002 A 
ATOM      9  C   LIG    1       26.522 -30.069   9.681  0.00  0.00    +0.019 A 
ATOM     10  C   LIG    1       25.238 -29.878  10.222  0.00  0.00    +0.102 A 
ATOM     11  C   LIG    1       25.985 -27.493  13.016  0.00  0.00    +0.196 C 
ATOM     12  O   LIG    1       26.946 -26.966  13.564  0.00  0.00    -0.287 OA
ENDROOT
BRANCH   3  13
ATOM     13  C   LIG    1       22.204 -27.894  13.320  0.00  0.00    +0.018 A 
ATOM     14  C   LIG    1       21.423 -26.762  13.055  0.00  0.00    +0.011 A 
ATOM     15  C   LIG    1       20.086 -26.711  13.466  0.00  0.00    +0.001 A 
ATOM     16  C   LIG    1       19.516 -27.790  14.140  0.00  0.00    +0.000 A 
ATOM     17  C   LIG    1       20.283 -28.923  14.404  0.00  0.00    +0.001 A 
ATOM     18  C   LIG    1       21.619 -28.976  13.996  0.00  0.00    +0.011 A 
ENDBRANCH   3  13
BRANCH  10  19
ATOM     19  C   LIG    1       24.131 -30.570   9.528  0.00  0.00    +0.343 C 
ATOM     20  O   LIG    1       23.801 -31.725   9.782  0.00  0.00    -0.245 OA
BRANCH  19  21
ATOM     21  O   LIG    1       23.598 -29.792   8.565  0.00  0.00    -0.460 OA
BRANCH  21  22
ATOM     22  C   LIG    1       24.312 -29.782   7.325  0.00  0.00    +0.247 C 
BRANCH  22  23
ATOM     23  C   LIG    1       24.372 -28.343   6.792  0.00  0.00    +0.125 C 
BRANCH  23  24
ATOM     24  N   LIG    1       25.720 -27.886   6.429  0.00  0.00    -0.299 NA
ATOM     25  C   LIG    1       25.821 -27.605   4.989  0.00  0.00    +0.084 C 
ATOM     26  C   LIG    1       25.086 -26.340   4.536  0.00  0.00    +0.015 C 
ATOM     27  C   LIG    1       25.436 -25.121   5.382  0.00  0.00    +0.002 C 
ATOM     28  C   LIG    1       25.465 -25.416   6.879  0.00  0.00    +0.015 C 
ATOM     29  C   LIG    1       26.182 -26.726   7.202  0.00  0.00    +0.084 C 
ENDBRANCH  23  24
ENDBRANCH  22  23
ENDBRANCH  21  22
ENDBRANCH  19  21
ENDBRANCH  10  19
TORSDOF 6
ENDMDL
MODEL 9
REMARK VINA RESULT:      -7.3      6.890     10.715
REMARK  Name = *****
REMARK                            x       y       z     vdW  Elec       q    Type
REMARK                         _______ _______ _______ _____ _____    ______ ____
ROOT
ATOM      1  C   LIG    1       24.412 -28.249   4.466  0.00  0.00    +0.052 C 
ATOM      2  C   LIG    1       25.023 -28.573   5.793  0.00  0.00    +0.040 C 
ATOM      3  C   LIG    1       25.281 -27.713   6.795  0.00  0.00    +0.142 C 
ATOM      4  O   LIG    1       25.773 -28.083   8.032  0.00  0.00    -0.454 OA
ATOM      5  C   LIG    1       25.889 -29.414   8.349  0.00  0.00    +0.153 A 
ATOM      6  C   LIG    1       25.762 -30.398   7.376  0.00  0.00    +0.065 A 
ATOM      7  C   LIG    1       25.978 -31.750   7.682  0.00  0.00    +0.015 A 
ATOM      8  C   LIG    1       26.290 -32.128   8.985  0.00  0.00    +0.002 A 
ATOM      9  C   LIG    1       26.372 -31.157   9.978  0.00  0.00    +0.019 A 
ATOM     10  C   LIG    1       26.178 -29.799   9.669  0.00  0.00    +0.102 A 
ATOM     11  C   LIG    1       25.368 -30.002   6.015  0.00  0.00    +0.196 C 
ATOM     12  O   LIG    1       25.315 -30.830   5.114  0.00  0.00    -0.287 OA
ENDROOT
BRANCH   3  13
ATOM     13  C   LIG    1       25.116 -26.252   6.664  0.00  0.00    +0.018 A 
ATOM     14  C   LIG    1       26.208 -25.382   6.777  0.00  0.00    +0.011 A 
ATOM     15  C   LIG    1       26.031 -24.000   6.650  0.00  0.00    +0.001 A 
ATOM     16  C   LIG    1       24.763 -23.474   6.403  0.00  0.00    +0.000 A 
ATOM     17  C   LIG    1       23.670 -24.330   6.285  0.00  0.00    +0.001 A 
ATOM     18  C   LIG    1       23.846 -25.712   6.414  0.00  0.00    +0.011 A 
ENDBRANCH   3  13
BRANCH  10  19
ATOM     19  C   LIG    1       26.288 -28.854  10.801  0.00  0.00    +0.343 C 
ATOM     20  O   LIG    1       27.287 -28.169  11.004  0.00  0.00    -0.245 OA
BRANCH  19  21
ATOM     21  O   LIG    1       25.193 -28.901  11.583  0.00  0.00    -0.460 OA
BRANCH  21  22
ATOM     22  C   LIG    1       25.421 -28.626  12.969  0.00  0.00    +0.247 C 
BRANCH  22  23
ATOM     23  C   LIG    1       24.547 -27.438  13.396  0.00  0.00    +0.125 C 
BRANCH  23  24
ATOM     24  N   LIG    1       23.484 -27.777  14.351  0.00  0.00    -0.299 NA
ATOM     25  C   LIG    1       22.542 -26.663  14.524  0.00  0.00    +0.084 C 
ATOM     26  C   LIG    1       21.620 -26.419  13.326  0.00  0.00    +0.015 C 
ATOM     27  C   LIG    1       20.921 -27.690  12.853  0.00  0.00    +0.002 C 
ATOM     28  C   LIG    1       21.851 -28.897  12.787  0.00  0.00    +0.015 C 
ATOM     29  C   LIG    1       22.754 -29.007  14.015  0.00  0.00    +0.084 C 
ENDBRANCH  23  24
ENDBRANCH  22  23
ENDBRANCH  21  22
ENDBRANCH  19  21
ENDBRANCH  10  19
TORSDOF 6
ENDMDL
