MODEL 1
REMARK VINA RESULT:      -4.7      0.000      0.000
REMARK  Name = *****
REMARK                            x       y       z     vdW  Elec       q    Type
REMARK                         _______ _______ _______ _____ _____    ______ ____
ROOT
ATOM      1  CA  LIG    1       25.667 -13.608   2.640  0.00  0.00    +0.182 C 
ATOM      2  N   LIG    1       26.894 -12.881   2.839  0.00  0.00    -0.302 N 
ATOM      3  H   LIG    1       27.032 -11.905   2.594  0.00  0.00    +0.149 HD
ATOM      4  C   LIG    1       27.878 -13.630   3.439  0.00  0.00    +0.214 C 
ATOM      5  O   LIG    1       29.012 -13.256   3.672  0.00  0.00    -0.276 OA
ATOM      6  C   LIG    1       27.319 -15.003   3.696  0.00  0.00    +0.098 C 
ATOM      7  C   LIG    1       25.811 -14.776   3.606  0.00  0.00    +0.043 C 
ENDROOT
BRANCH   1   9
ATOM      8  O   LIG    1       23.932 -12.576   4.007  0.00  0.00    -0.249 OA
ATOM      9  C   LIG    1       24.436 -12.735   2.903  0.00  0.00    +0.325 C 
BRANCH   9  10
ATOM     10  OXT LIG    1       23.987 -12.071   1.812  0.00  0.00    -0.479 OA
ATOM     11  HXT LIG    1       23.031 -11.885   1.795  0.00  0.00    +0.295 HD
ENDBRANCH   9  10
ENDBRANCH   1   9
TORSDOF 2
ENDMDL
MODEL 2
REMARK VINA RESULT:      -4.5      6.394      6.949
REMARK  Name = *****
REMARK                            x       y       z     vdW  Elec       q    Type
REMARK                         _______ _______ _______ _____ _____    ______ ____
ROOT
ATOM      1  CA  LIG    1       25.587 -20.346   4.621  0.00  0.00    +0.182 C 
ATOM      2  N   LIG    1       26.949 -20.015   4.951  0.00  0.00    -0.302 N 
ATOM      3  H   LIG    1       27.605 -19.571   4.315  0.00  0.00    +0.149 HD
ATOM      4  C   LIG    1       27.285 -20.329   6.246  0.00  0.00    +0.214 C 
ATOM      5  O   LIG    1       28.385 -20.187   6.748  0.00  0.00    -0.276 OA
ATOM      6  C   LIG    1       26.073 -20.928   6.905  0.00  0.00    +0.098 C 
ATOM      7  C   LIG    1       24.935 -20.478   5.991  0.00  0.00    +0.043 C 
ENDROOT
BRANCH   1   9
ATOM      8  O   LIG    1       23.739 -19.201   3.518  0.00  0.00    -0.249 OA
ATOM      9  C   LIG    1       24.941 -19.282   3.728  0.00  0.00    +0.325 C 
BRANCH   9  10
ATOM     10  OXT LIG    1       25.813 -18.366   3.244  0.00  0.00    -0.479 OA
ATOM     11  HXT LIG    1       26.683 -18.338   3.682  0.00  0.00    +0.295 HD
ENDBRANCH   9  10
ENDBRANCH   1   9
TORSDOF 2
ENDMDL
MODEL 3
REMARK VINA RESULT:      -4.5      6.900      7.421
REMARK  Name = *****
REMARK                            x       y       z     vdW  Elec       q    Type
REMARK                         _______ _______ _______ _____ _____    ______ ____
ROOT
ATOM      1  CA  LIG    1       25.276 -20.948   5.178  0.00  0.00    +0.182 C 
ATOM      2  N   LIG    1       26.454 -20.258   4.719  0.00  0.00    -0.302 N 
ATOM      3  H   LIG    1       26.611 -19.961   3.761  0.00  0.00    +0.149 HD
ATOM      4  C   LIG    1       27.357 -19.998   5.722  0.00  0.00    +0.214 C 
ATOM      5  O   LIG    1       28.443 -19.468   5.579  0.00  0.00    -0.276 OA
ATOM      6  C   LIG    1       26.788 -20.537   7.006  0.00  0.00    +0.098 C 
ATOM      7  C   LIG    1       25.303 -20.690   6.679  0.00  0.00    +0.043 C 
ENDROOT
BRANCH   1   9
ATOM      8  O   LIG    1       23.932 -19.369   3.897  0.00  0.00    -0.249 OA
ATOM      9  C   LIG    1       24.009 -20.439   4.485  0.00  0.00    +0.325 C 
BRANCH   9  10
ATOM     10  OXT LIG    1       22.981 -21.319   4.501  0.00  0.00    -0.479 OA
ATOM     11  HXT LIG    1       23.046 -22.056   3.866  0.00  0.00    +0.295 HD
ENDBRANCH   9  10
ENDBRANCH   1   9
TORSDOF 2
ENDMDL
MODEL 4
REMARK VINA RESULT:      -4.5      1.953      2.161
REMARK  Name = *****
REMARK                            x       y       z     vdW  Elec       q    Type
REMARK                         _______ _______ _______ _____ _____    ______ ____
ROOT
ATOM      1  CA  LIG    1       25.298 -13.415   3.899  0.00  0.00    +0.182 C 
ATOM      2  N   LIG    1       25.042 -14.820   3.713  0.00  0.00    -0.302 N 
ATOM      3  H   LIG    1       24.128 -15.254   3.790  0.00  0.00    +0.149 HD
ATOM      4  C   LIG    1       26.166 -15.537   3.378  0.00  0.00    +0.214 C 
ATOM      5  O   LIG    1       26.216 -16.742   3.213  0.00  0.00    -0.276 OA
ATOM      6  C   LIG    1       27.323 -14.577   3.313  0.00  0.00    +0.098 C 
ATOM      7  C   LIG    1       26.630 -13.222   3.186  0.00  0.00    +0.043 C 
ENDROOT
BRANCH   1   9
ATOM      8  O   LIG    1       23.652 -11.618   3.944  0.00  0.00    -0.249 OA
ATOM      9  C   LIG    1       24.166 -12.550   3.340  0.00  0.00    +0.325 C 
BRANCH   9  10
ATOM     10  OXT LIG    1       23.824 -12.846   2.064  0.00  0.00    -0.479 OA
ATOM     11  HXT LIG    1       24.558 -13.114   1.481  0.00  0.00    +0.295 HD
ENDBRANCH   9  10
ENDBRANCH   1   9
TORSDOF 2
ENDMDL
MODEL 5
REMARK VINA RESULT:      -4.5      7.347      7.926
REMARK  Name = *****
REMARK                            x       y       z     vdW  Elec       q    Type
REMARK                         _______ _______ _______ _____ _____    ______ ____
ROOT
ATOM      1  CA  LIG    1       23.899 -21.182   5.624  0.00  0.00    +0.182 C 
ATOM      2  N   LIG    1       25.006 -20.647   4.874  0.00  0.00    -0.302 N 
ATOM      3  H   LIG    1       24.979 -20.429   3.883  0.00  0.00    +0.149 HD
ATOM      4  C   LIG    1       26.121 -20.416   5.643  0.00  0.00    +0.214 C 
ATOM      5  O   LIG    1       27.193 -20.009   5.235  0.00  0.00    -0.276 OA
ATOM      6  C   LIG    1       25.796 -20.811   7.058  0.00  0.00    +0.098 C 
ATOM      7  C   LIG    1       24.268 -20.833   7.059  0.00  0.00    +0.043 C 
ENDROOT
BRANCH   1   9
ATOM      8  O   LIG    1       22.343 -19.393   5.055  0.00  0.00    -0.249 OA
ATOM      9  C   LIG    1       22.561 -20.592   5.168  0.00  0.00    +0.325 C 
BRANCH   9  10
ATOM     10  OXT LIG    1       21.643 -21.520   4.810  0.00  0.00    -0.479 OA
ATOM     11  HXT LIG    1       21.548 -22.276   5.417  0.00  0.00    +0.295 HD
ENDBRANCH   9  10
ENDBRANCH   1   9
TORSDOF 2
ENDMDL
MODEL 6
REMARK VINA RESULT:      -4.5      6.798      7.816
REMARK  Name = *****
REMARK                            x       y       z     vdW  Elec       q    Type
REMARK                         _______ _______ _______ _____ _____    ______ ____
ROOT
ATOM      1  CA  LIG    1       24.444 -20.091   4.115  0.00  0.00    +0.182 C 
ATOM      2  N   LIG    1       24.471 -20.796   5.370  0.00  0.00    -0.302 N 
ATOM      3  H   LIG    1       25.301 -21.215   5.777  0.00  0.00    +0.149 HD
ATOM      4  C   LIG    1       23.252 -20.824   6.004  0.00  0.00    +0.214 C 
ATOM      5  O   LIG    1       23.010 -21.395   7.051  0.00  0.00    -0.276 OA
ATOM      6  C   LIG    1       22.268 -20.079   5.144  0.00  0.00    +0.098 C 
ATOM      7  C   LIG    1       23.174 -19.257   4.229  0.00  0.00    +0.043 C 
ENDROOT
BRANCH   1   9
ATOM      8  O   LIG    1       25.735 -18.179   3.327  0.00  0.00    -0.249 OA
ATOM      9  C   LIG    1       25.712 -19.260   3.899  0.00  0.00    +0.325 C 
BRANCH   9  10
ATOM     10  OXT LIG    1       26.819 -19.785   4.475  0.00  0.00    -0.479 OA
ATOM     11  HXT LIG    1       26.668 -20.548   5.063  0.00  0.00    +0.295 HD
ENDBRANCH   9  10
ENDBRANCH   1   9
TORSDOF 2
ENDMDL
MODEL 7
REMARK VINA RESULT:      -4.5      1.428      3.895
REMARK  Name = *****
REMARK                            x       y       z     vdW  Elec       q    Type
REMARK                         _______ _______ _______ _____ _____    ______ ____
ROOT
ATOM      1  CA  LIG    1       26.026 -14.313   3.551  0.00  0.00    +0.182 C 
ATOM      2  N   LIG    1       25.428 -13.528   4.600  0.00  0.00    -0.302 N 
ATOM      3  H   LIG    1       25.694 -13.576   5.579  0.00  0.00    +0.149 HD
ATOM      4  C   LIG    1       24.465 -12.658   4.146  0.00  0.00    +0.214 C 
ATOM      5  O   LIG    1       23.789 -11.923   4.841  0.00  0.00    -0.276 OA
ATOM      6  C   LIG    1       24.361 -12.824   2.655  0.00  0.00    +0.098 C 
ATOM      7  C   LIG    1       25.673 -13.520   2.300  0.00  0.00    +0.043 C 
ENDROOT
BRANCH   1   9
ATOM      8  O   LIG    1       28.345 -13.585   3.736  0.00  0.00    -0.249 OA
ATOM      9  C   LIG    1       27.531 -14.498   3.763  0.00  0.00    +0.325 C 
BRANCH   9  10
ATOM     10  OXT LIG    1       27.892 -15.766   4.073  0.00  0.00    -0.479 OA
ATOM     11  HXT LIG    1       27.483 -16.465   3.532  0.00  0.00    +0.295 HD
ENDBRANCH   9  10
ENDBRANCH   1   9
TORSDOF 2
ENDMDL
MODEL 8
REMARK VINA RESULT:      -4.5      1.842      3.700
REMARK  Name = *****
REMARK                            x       y       z     vdW  Elec       q    Type
REMARK                         _______ _______ _______ _____ _____    ______ ____
ROOT
ATOM      1  CA  LIG    1       25.870 -14.236   3.935  0.00  0.00    +0.182 C 
ATOM      2  N   LIG    1       26.008 -13.248   2.895  0.00  0.00    -0.302 N 
ATOM      3  H   LIG    1       26.867 -13.063   2.387  0.00  0.00    +0.149 HD
ATOM      4  C   LIG    1       24.837 -12.584   2.619  0.00  0.00    +0.214 C 
ATOM      5  O   LIG    1       24.708 -11.678   1.816  0.00  0.00    -0.276 OA
ATOM      6  C   LIG    1       23.770 -13.135   3.525  0.00  0.00    +0.098 C 
ATOM      7  C   LIG    1       24.366 -14.466   3.977  0.00  0.00    +0.043 C 
ENDROOT
BRANCH   1   9
ATOM      8  O   LIG    1       26.219 -16.502   3.109  0.00  0.00    -0.249 OA
ATOM      9  C   LIG    1       26.682 -15.499   3.634  0.00  0.00    +0.325 C 
BRANCH   9  10
ATOM     10  OXT LIG    1       28.000 -15.389   3.923  0.00  0.00    -0.479 OA
ATOM     11  HXT LIG    1       28.283 -14.529   4.282  0.00  0.00    +0.295 HD
ENDBRANCH   9  10
ENDBRANCH   1   9
TORSDOF 2
ENDMDL
MODEL 9
REMARK VINA RESULT:      -4.5      2.689      3.591
REMARK  Name = *****
REMARK                            x       y       z     vdW  Elec       q    Type
REMARK                         _______ _______ _______ _____ _____    ______ ____
ROOT
ATOM      1  CA  LIG    1       27.088 -13.481   3.455  0.00  0.00    +0.182 C 
ATOM      2  N   LIG    1       27.211 -14.875   3.114  0.00  0.00    -0.302 N 
ATOM      3  H   LIG    1       28.051 -15.304   2.739  0.00  0.00    +0.149 HD
ATOM      4  C   LIG    1       26.075 -15.601   3.381  0.00  0.00    +0.214 C 
ATOM      5  O   LIG    1       25.917 -16.783   3.141  0.00  0.00    -0.276 OA
ATOM      6  C   LIG    1       25.053 -14.662   3.961  0.00  0.00    +0.098 C 
ATOM      7  C   LIG    1       25.903 -13.475   4.411  0.00  0.00    +0.043 C 
ENDROOT
BRANCH   1   9
ATOM      8  O   LIG    1       28.451 -12.428   5.180  0.00  0.00    -0.249 OA
ATOM      9  C   LIG    1       28.378 -12.925   4.064  0.00  0.00    +0.325 C 
BRANCH   9  10
ATOM     10  OXT LIG    1       29.475 -13.105   3.291  0.00  0.00    -0.479 OA
ATOM     11  HXT LIG    1       29.883 -12.292   2.943  0.00  0.00    +0.295 HD
ENDBRANCH   9  10
ENDBRANCH   1   9
TORSDOF 2
ENDMDL
