MODEL 1
REMARK VINA RESULT:       4.6      0.000      0.000
REMARK  Name = *****
REMARK                            x       y       z     vdW  Elec       q    Type
REMARK                         _______ _______ _______ _____ _____    ______ ____
ROOT
ATOM      1  C   LIG    1       27.935 -14.323   4.219  0.00  0.00    +0.201 C 
ATOM      2  C   LIG    1       26.818 -14.254   5.293  0.00  0.00    +0.042 C 
ATOM      3  C   LIG    1       27.328 -14.719   6.671  0.00  0.00    +0.025 C 
ATOM      4  C   LIG    1       26.174 -12.873   5.481  0.00  0.00    +0.025 C 
ATOM      5  S   LIG    1       25.507 -15.471   4.775  0.00  0.00    -0.127 S 
ATOM      6  C   LIG    1       26.553 -16.270   3.485  0.00  0.00    +0.165 C 
ATOM      7  C   LIG    1       27.216 -17.626   3.837  0.00  0.00    +0.190 C 
ATOM      8  C   LIG    1       28.417 -16.745   4.258  0.00  0.00    +0.240 C 
ATOM      9  O   LIG    1       29.382 -16.829   4.992  0.00  0.00    -0.273 OA
ATOM     10  N   LIG    1       27.883 -15.655   3.633  0.00  0.00    -0.271 N 
ENDROOT
BRANCH   7  11
ATOM     11  N   LIG    1       26.571 -18.448   4.896  0.00  0.00    -0.300 N 
ATOM     12  H   LIG    1       25.633 -18.224   5.211  0.00  0.00    +0.150 HD
ATOM     13  C   LIG    1       27.231 -19.526   5.456  0.00  0.00    +0.235 C 
ATOM     14  O   LIG    1       28.373 -19.844   5.116  0.00  0.00    -0.274 OA
BRANCH  13  15
ATOM     15  C   LIG    1       26.417 -20.335   6.497  0.00  0.00    +0.168 C 
BRANCH  15  16
ATOM     16  C   LIG    1       25.023 -20.643   5.979  0.00  0.00    -0.022 A 
ATOM     17  C   LIG    1       23.923 -20.758   6.849  0.00  0.00    +0.006 A 
ATOM     18  C   LIG    1       22.649 -21.041   6.351  0.00  0.00    +0.000 A 
ATOM     19  C   LIG    1       22.457 -21.214   4.983  0.00  0.00    +0.000 A 
ATOM     20  C   LIG    1       23.536 -21.103   4.110  0.00  0.00    +0.000 A 
ATOM     21  C   LIG    1       24.810 -20.818   4.603  0.00  0.00    +0.006 A 
ENDBRANCH  15  16
BRANCH  15  22
ATOM     22  N   LIG    1       27.148 -21.569   6.842  0.00  0.00    -0.316 NA
ATOM     23  H   LIG    1       28.064 -21.319   7.210  0.00  0.00    +0.119 HD
ATOM     24  H   LIG    1       26.643 -22.020   7.609  0.00  0.00    +0.119 HD
ENDBRANCH  15  22
ENDBRANCH  13  15
ENDBRANCH   7  11
BRANCH   1  25
ATOM     25  C   LIG    1       27.782 -13.332   3.055  0.00  0.00    +0.332 C 
ATOM     26  O   LIG    1       28.420 -12.296   2.919  0.00  0.00    -0.249 OA
BRANCH  25  27
ATOM     27  O   LIG    1       26.871 -13.797   2.162  0.00  0.00    -0.423 OA
BRANCH  27  28
ATOM     28  C   LIG    1       25.810 -12.889   1.812  0.00  0.00    +0.370 C 
ATOM     29  C   LIG    1       25.832 -11.707   2.772  0.00  0.00    +0.100 C 
BRANCH  28  30
ATOM     30  O   LIG    1       24.619 -13.669   1.933  0.00  0.00    -0.394 OA
BRANCH  30  31
ATOM     31  C   LIG    1       23.782 -13.329   2.930  0.00  0.00    +0.513 C 
ATOM     32  O   LIG    1       23.643 -12.216   3.409  0.00  0.00    -0.203 OA
BRANCH  31  33
ATOM     33  O   LIG    1       23.076 -14.438   3.254  0.00  0.00    -0.434 OA
BRANCH  33  35
ATOM     34  C   LIG    1       22.162 -15.981   4.906  0.00  0.00    +0.048 C 
ATOM     35  C   LIG    1       22.950 -14.709   4.652  0.00  0.00    +0.232 C 
ENDBRANCH  33  35
ENDBRANCH  31  33
ENDBRANCH  30  31
ENDBRANCH  28  30
ENDBRANCH  27  28
ENDBRANCH  25  27
ENDBRANCH   1  25
TORSDOF 11
ENDMDL
MODEL 2
REMARK VINA RESULT:       5.4      2.337      7.021
REMARK  Name = *****
REMARK                            x       y       z     vdW  Elec       q    Type
REMARK                         _______ _______ _______ _____ _____    ______ ____
ROOT
ATOM      1  C   LIG    1       26.222 -20.482   4.532  0.00  0.00    +0.201 C 
ATOM      2  C   LIG    1       25.492 -19.951   3.270  0.00  0.00    +0.042 C 
ATOM      3  C   LIG    1       26.431 -19.907   2.049  0.00  0.00    +0.025 C 
ATOM      4  C   LIG    1       24.238 -20.734   2.860  0.00  0.00    +0.025 C 
ATOM      5  S   LIG    1       25.016 -18.188   3.636  0.00  0.00    -0.127 S 
ATOM      6  C   LIG    1       26.055 -18.070   5.154  0.00  0.00    +0.165 C 
ATOM      7  C   LIG    1       27.417 -17.338   5.036  0.00  0.00    +0.190 C 
ATOM      8  C   LIG    1       27.973 -18.757   4.772  0.00  0.00    +0.240 C 
ATOM      9  O   LIG    1       28.940 -19.260   4.234  0.00  0.00    -0.273 OA
ATOM     10  N   LIG    1       26.812 -19.332   5.201  0.00  0.00    -0.271 N 
ENDROOT
BRANCH   7  11
ATOM     11  N   LIG    1       27.563 -16.335   3.946  0.00  0.00    -0.300 N 
ATOM     12  H   LIG    1       27.666 -16.642   2.984  0.00  0.00    +0.150 HD
ATOM     13  C   LIG    1       27.552 -14.981   4.224  0.00  0.00    +0.235 C 
ATOM     14  O   LIG    1       27.434 -14.549   5.372  0.00  0.00    -0.274 OA
BRANCH  13  15
ATOM     15  C   LIG    1       27.645 -14.050   2.989  0.00  0.00    +0.168 C 
BRANCH  15  16
ATOM     16  C   LIG    1       26.339 -13.305   2.770  0.00  0.00    -0.022 A 
ATOM     17  C   LIG    1       26.287 -12.116   2.021  0.00  0.00    +0.006 A 
ATOM     18  C   LIG    1       25.076 -11.447   1.830  0.00  0.00    +0.000 A 
ATOM     19  C   LIG    1       23.904 -11.955   2.385  0.00  0.00    +0.000 A 
ATOM     20  C   LIG    1       23.940 -13.131   3.130  0.00  0.00    +0.000 A 
ATOM     21  C   LIG    1       25.148 -13.803   3.320  0.00  0.00    +0.006 A 
ENDBRANCH  15  16
BRANCH  15  22
ATOM     22  N   LIG    1       28.775 -13.117   3.160  0.00  0.00    -0.316 NA
ATOM     23  H   LIG    1       29.415 -13.497   3.855  0.00  0.00    +0.119 HD
ATOM     24  H   LIG    1       29.289 -13.094   2.276  0.00  0.00    +0.119 HD
ENDBRANCH  15  22
ENDBRANCH  13  15
ENDBRANCH   7  11
BRANCH   1  25
ATOM     25  C   LIG    1       25.318 -21.170   5.566  0.00  0.00    +0.332 C 
ATOM     26  O   LIG    1       25.631 -21.422   6.723  0.00  0.00    -0.249 OA
BRANCH  25  27
ATOM     27  O   LIG    1       24.095 -21.411   5.030  0.00  0.00    -0.423 OA
BRANCH  27  28
ATOM     28  C   LIG    1       22.966 -21.093   5.865  0.00  0.00    +0.370 C 
ATOM     29  C   LIG    1       21.690 -21.555   5.172  0.00  0.00    +0.100 C 
BRANCH  28  30
ATOM     30  O   LIG    1       23.023 -19.674   6.016  0.00  0.00    -0.394 OA
BRANCH  30  31
ATOM     31  C   LIG    1       22.370 -18.950   5.088  0.00  0.00    +0.513 C 
ATOM     32  O   LIG    1       22.047 -19.325   3.974  0.00  0.00    -0.203 OA
BRANCH  31  33
ATOM     33  O   LIG    1       22.080 -17.752   5.649  0.00  0.00    -0.434 OA
BRANCH  33  35
ATOM     34  C   LIG    1       22.497 -15.363   5.396  0.00  0.00    +0.048 C 
ATOM     35  C   LIG    1       22.006 -16.645   4.748  0.00  0.00    +0.232 C 
ENDBRANCH  33  35
ENDBRANCH  31  33
ENDBRANCH  30  31
ENDBRANCH  28  30
ENDBRANCH  27  28
ENDBRANCH  25  27
ENDBRANCH   1  25
TORSDOF 11
ENDMDL
MODEL 3
REMARK VINA RESULT:       7.5      1.452      2.525
REMARK  Name = *****
REMARK                            x       y       z     vdW  Elec       q    Type
REMARK                         _______ _______ _______ _____ _____    ______ ____
ROOT
ATOM      1  C   LIG    1       26.023 -14.697   3.667  0.00  0.00    +0.201 C 
ATOM      2  C   LIG    1       24.706 -15.418   4.060  0.00  0.00    +0.042 C 
ATOM      3  C   LIG    1       24.584 -15.580   5.587  0.00  0.00    +0.025 C 
ATOM      4  C   LIG    1       23.419 -14.746   3.562  0.00  0.00    +0.025 C 
ATOM      5  S   LIG    1       24.810 -17.137   3.350  0.00  0.00    -0.127 S 
ATOM      6  C   LIG    1       26.602 -17.014   2.936  0.00  0.00    +0.165 C 
ATOM      7  C   LIG    1       27.609 -17.698   3.896  0.00  0.00    +0.190 C 
ATOM      8  C   LIG    1       27.672 -16.303   4.561  0.00  0.00    +0.240 C 
ATOM      9  O   LIG    1       27.963 -15.835   5.645  0.00  0.00    -0.273 OA
ATOM     10  N   LIG    1       27.040 -15.726   3.499  0.00  0.00    -0.271 N 
ENDROOT
BRANCH   7  11
ATOM     11  N   LIG    1       27.105 -18.826   4.724  0.00  0.00    -0.300 N 
ATOM     12  H   LIG    1       26.294 -19.355   4.423  0.00  0.00    +0.150 HD
ATOM     13  C   LIG    1       27.734 -19.173   5.905  0.00  0.00    +0.235 C 
ATOM     14  O   LIG    1       28.721 -18.565   6.325  0.00  0.00    -0.274 OA
BRANCH  13  15
ATOM     15  C   LIG    1       27.147 -20.408   6.633  0.00  0.00    +0.168 C 
BRANCH  15  16
ATOM     16  C   LIG    1       25.729 -20.692   6.167  0.00  0.00    -0.022 A 
ATOM     17  C   LIG    1       24.753 -21.199   7.044  0.00  0.00    +0.006 A 
ATOM     18  C   LIG    1       23.455 -21.452   6.595  0.00  0.00    +0.000 A 
ATOM     19  C   LIG    1       23.116 -21.205   5.267  0.00  0.00    +0.000 A 
ATOM     20  C   LIG    1       24.071 -20.704   4.387  0.00  0.00    +0.000 A 
ATOM     21  C   LIG    1       25.369 -20.447   4.832  0.00  0.00    +0.006 A 
ENDBRANCH  15  16
BRANCH  15  22
ATOM     22  N   LIG    1       28.028 -21.572   6.417  0.00  0.00    -0.316 NA
ATOM     23  H   LIG    1       28.382 -21.547   5.463  0.00  0.00    +0.119 HD
ATOM     24  H   LIG    1       28.840 -21.458   7.029  0.00  0.00    +0.119 HD
ENDBRANCH  15  22
ENDBRANCH  13  15
ENDBRANCH   7  11
BRANCH   1  25
ATOM     25  C   LIG    1       25.971 -13.920   2.343  0.00  0.00    +0.332 C 
ATOM     26  O   LIG    1       24.953 -13.494   1.812  0.00  0.00    -0.249 OA
BRANCH  25  27
ATOM     27  O   LIG    1       27.227 -13.721   1.869  0.00  0.00    -0.423 OA
BRANCH  27  28
ATOM     28  C   LIG    1       28.027 -12.759   2.582  0.00  0.00    +0.370 C 
ATOM     29  C   LIG    1       29.156 -13.487   3.300  0.00  0.00    +0.100 C 
BRANCH  28  30
ATOM     30  O   LIG    1       27.113 -12.139   3.489  0.00  0.00    -0.394 OA
BRANCH  30  31
ATOM     31  C   LIG    1       27.395 -12.265   4.799  0.00  0.00    +0.513 C 
ATOM     32  O   LIG    1       28.482 -12.092   5.324  0.00  0.00    -0.203 OA
BRANCH  31  33
ATOM     33  O   LIG    1       26.232 -12.553   5.431  0.00  0.00    -0.434 OA
BRANCH  33  35
ATOM     34  C   LIG    1       23.945 -12.058   4.745  0.00  0.00    +0.048 C 
ATOM     35  C   LIG    1       25.226 -11.539   5.373  0.00  0.00    +0.232 C 
ENDBRANCH  33  35
ENDBRANCH  31  33
ENDBRANCH  30  31
ENDBRANCH  28  30
ENDBRANCH  27  28
ENDBRANCH  25  27
ENDBRANCH   1  25
TORSDOF 11
ENDMDL
