MODEL 1
REMARK VINA RESULT:      -4.5      0.000      0.000
REMARK  Name = *****
REMARK                            x       y       z     vdW  Elec       q    Type
REMARK                         _______ _______ _______ _____ _____    ______ ____
ROOT
ATOM      1  C   LIG    1       23.116 -16.882   4.218  0.00  0.00    +0.198 A 
ATOM      2  N   LIG    1       24.415 -16.852   3.755  0.00  0.00    -0.331 N 
ATOM      3  H   LIG    1       24.938 -17.639   3.421  0.00  0.00    +0.168 HD
ATOM      4  C   LIG    1       24.813 -15.538   3.688  0.00  0.00    +0.070 A 
ATOM      5  C   LIG    1       23.725 -14.831   4.185  0.00  0.00    +0.090 A 
ATOM      6  C   LIG    1       23.793 -13.440   4.293  0.00  0.00    +0.033 A 
ATOM      7  C   LIG    1       24.964 -12.794   3.882  0.00  0.00    +0.048 A 
ATOM      8  C   LIG    1       26.049 -13.513   3.375  0.00  0.00    +0.129 A 
ATOM      9  C   LIG    1       25.987 -14.915   3.252  0.00  0.00    +0.073 A 
ATOM     10  N   LIG    1       22.690 -15.671   4.499  0.00  0.00    -0.220 NA
ENDROOT
BRANCH   1  11
ATOM     11  S   LIG    1       22.159 -18.312   4.491  0.00  0.00    +0.096 S 
ATOM     12  O   LIG    1       20.877 -18.184   3.724  0.00  0.00    -0.249 OA
BRANCH  11  13
ATOM     13  C   LIG    1       23.208 -19.647   3.899  0.00  0.00    +0.171 C 
BRANCH  13  16
ATOM     14  C   LIG    1       26.195 -20.647   6.040  0.00  0.00    +0.165 A 
ATOM     15  C   LIG    1       25.473 -20.113   4.955  0.00  0.00    +0.184 A 
ATOM     16  C   LIG    1       24.078 -20.286   4.947  0.00  0.00    +0.099 A 
ATOM     17  N   LIG    1       23.406 -20.992   5.899  0.00  0.00    -0.255 NA
ATOM     18  C   LIG    1       24.131 -21.462   6.932  0.00  0.00    +0.115 A 
ATOM     19  C   LIG    1       25.498 -21.295   7.058  0.00  0.00    +0.069 A 
BRANCH  14  21
ATOM     20  C   LIG    1       28.327 -21.119   7.060  0.00  0.00    +0.277 C 
ATOM     21  O   LIG    1       27.558 -20.537   6.019  0.00  0.00    -0.491 OA
ENDBRANCH  14  21
BRANCH  15  22
ATOM     22  O   LIG    1       26.003 -19.488   3.856  0.00  0.00    -0.490 OA
ATOM     23  C   LIG    1       26.999 -18.498   4.091  0.00  0.00    +0.277 C 
ENDBRANCH  15  22
ENDBRANCH  13  16
ENDBRANCH  11  13
ENDBRANCH   1  11
BRANCH   8  24
ATOM     24  O   LIG    1       27.241 -12.960   2.976  0.00  0.00    -0.434 OA
BRANCH  24  25
ATOM     25  C   LIG    1       28.375 -13.289   3.764  0.00  0.00    +0.541 C 
ATOM     26  F   LIG    1       28.046 -13.087   5.065  0.00  0.00    -0.166 F 
ATOM     27  F   LIG    1       29.386 -12.428   3.487  0.00  0.00    -0.166 F 
ENDBRANCH  24  25
ENDBRANCH   8  24
TORSDOF 7
ENDMDL
