MODEL 1
REMARK VINA RESULT:      -8.4      0.000      0.000
REMARK  Name = *****
REMARK                            x       y       z     vdW  Elec       q    Type
REMARK                         _______ _______ _______ _____ _____    ______ ____
ROOT
ATOM      1  O   LIG    1       22.949 -24.331   6.899  0.00  0.00    -0.273 OA
ATOM      2  C   LIG    1       23.667 -23.506   6.330  0.00  0.00    +0.239 C 
ATOM      3  N   LIG    1       23.168 -22.256   6.075  0.00  0.00    -0.283 N 
ATOM      4  H   LIG    1       22.179 -22.188   6.287  0.00  0.00    +0.155 HD
ATOM      5  C   LIG    1       23.802 -21.196   5.413  0.00  0.00    +0.043 A 
ATOM      6  C   LIG    1       25.193 -21.001   5.351  0.00  0.00    +0.023 A 
ATOM      7  C   LIG    1       25.709 -19.930   4.602  0.00  0.00    +0.032 A 
ATOM      8  C   LIG    1       24.850 -19.041   3.960  0.00  0.00    +0.042 A 
ATOM      9  C   LIG    1       23.473 -19.195   4.066  0.00  0.00    +0.022 A 
ATOM     10 CL   LIG    1       25.494 -17.729   3.055  0.00  0.00    -0.084 Cl
ATOM     11  C   LIG    1       26.143 -21.801   6.182  0.00  0.00    +0.076 C 
ATOM     12  N   LIG    1       26.071 -23.064   6.419  0.00  0.00    -0.273 NA
ATOM     13  C   LIG    1       22.952 -20.265   4.796  0.00  0.00    +0.025 A 
ATOM     14  C   LIG    1       25.033 -23.855   5.774  0.00  0.00    +0.238 C 
ENDROOT
BRANCH  11  15
ATOM     15  C   LIG    1       27.248 -21.069   6.857  0.00  0.00    +0.019 A 
ATOM     16  C   LIG    1       27.075 -20.463   8.105  0.00  0.00    +0.050 A 
ATOM     17 CL   LIG    1       25.601 -20.580   8.997  0.00  0.00    -0.083 Cl
ATOM     18  C   LIG    1       28.144 -19.777   8.690  0.00  0.00    +0.021 A 
ATOM     19  C   LIG    1       29.373 -19.696   8.031  0.00  0.00    +0.002 A 
ATOM     20  C   LIG    1       29.541 -20.299   6.785  0.00  0.00    +0.001 A 
ATOM     21  C   LIG    1       28.480 -20.986   6.193  0.00  0.00    +0.011 A 
ENDBRANCH  11  15
TORSDOF 1
ENDMDL
MODEL 2
REMARK VINA RESULT:      -8.4      2.465      4.544
REMARK  Name = *****
REMARK                            x       y       z     vdW  Elec       q    Type
REMARK                         _______ _______ _______ _____ _____    ______ ____
ROOT
ATOM      1  O   LIG    1       29.695 -20.187   6.399  0.00  0.00    -0.273 OA
ATOM      2  C   LIG    1       28.465 -20.249   6.356  0.00  0.00    +0.239 C 
ATOM      3  N   LIG    1       27.823 -19.904   5.195  0.00  0.00    -0.283 N 
ATOM      4  H   LIG    1       28.456 -19.504   4.513  0.00  0.00    +0.155 HD
ATOM      5  C   LIG    1       26.443 -19.872   4.954  0.00  0.00    +0.043 A 
ATOM      6  C   LIG    1       25.488 -20.658   5.623  0.00  0.00    +0.023 A 
ATOM      7  C   LIG    1       24.124 -20.488   5.331  0.00  0.00    +0.032 A 
ATOM      8  C   LIG    1       23.721 -19.578   4.356  0.00  0.00    +0.042 A 
ATOM      9  C   LIG    1       24.664 -18.840   3.652  0.00  0.00    +0.022 A 
ATOM     10 CL   LIG    1       22.049 -19.388   4.002  0.00  0.00    -0.084 Cl
ATOM     11  C   LIG    1       25.880 -21.784   6.524  0.00  0.00    +0.076 C 
ATOM     12  N   LIG    1       26.849 -21.779   7.372  0.00  0.00    -0.273 NA
ATOM     13  C   LIG    1       26.020 -18.992   3.945  0.00  0.00    +0.025 A 
ATOM     14  C   LIG    1       27.617 -20.559   7.574  0.00  0.00    +0.238 C 
ENDROOT
BRANCH  11  15
ATOM     15  C   LIG    1       25.127 -23.059   6.397  0.00  0.00    +0.019 A 
ATOM     16  C   LIG    1       23.833 -23.205   6.908  0.00  0.00    +0.050 A 
ATOM     17 CL   LIG    1       22.978 -21.902   7.651  0.00  0.00    -0.083 Cl
ATOM     18  C   LIG    1       23.174 -24.430   6.771  0.00  0.00    +0.021 A 
ATOM     19  C   LIG    1       23.804 -25.501   6.133  0.00  0.00    +0.002 A 
ATOM     20  C   LIG    1       25.096 -25.354   5.627  0.00  0.00    +0.001 A 
ATOM     21  C   LIG    1       25.762 -24.134   5.759  0.00  0.00    +0.011 A 
ENDBRANCH  11  15
TORSDOF 1
ENDMDL
MODEL 3
REMARK VINA RESULT:      -7.7      2.691      5.328
REMARK  Name = *****
REMARK                            x       y       z     vdW  Elec       q    Type
REMARK                         _______ _______ _______ _____ _____    ______ ____
ROOT
ATOM      1  O   LIG    1       28.867 -19.877   8.430  0.00  0.00    -0.273 OA
ATOM      2  C   LIG    1       28.154 -20.491   7.634  0.00  0.00    +0.239 C 
ATOM      3  N   LIG    1       27.374 -21.517   8.097  0.00  0.00    -0.283 N 
ATOM      4  H   LIG    1       27.571 -21.742   9.064  0.00  0.00    +0.155 HD
ATOM      5  C   LIG    1       26.529 -22.355   7.356  0.00  0.00    +0.043 A 
ATOM      6  C   LIG    1       25.910 -22.008   6.142  0.00  0.00    +0.023 A 
ATOM      7  C   LIG    1       25.132 -22.963   5.464  0.00  0.00    +0.032 A 
ATOM      8  C   LIG    1       24.940 -24.230   6.009  0.00  0.00    +0.042 A 
ATOM      9  C   LIG    1       25.502 -24.559   7.236  0.00  0.00    +0.022 A 
ATOM     10 CL   LIG    1       23.978 -25.384   5.173  0.00  0.00    -0.084 Cl
ATOM     11  C   LIG    1       25.919 -20.608   5.621  0.00  0.00    +0.076 C 
ATOM     12  N   LIG    1       26.915 -19.792   5.644  0.00  0.00    -0.273 NA
ATOM     13  C   LIG    1       26.288 -23.623   7.910  0.00  0.00    +0.025 A 
ATOM     14  C   LIG    1       28.205 -20.252   6.138  0.00  0.00    +0.238 C 
ENDROOT
BRANCH  11  15
ATOM     15  C   LIG    1       24.644 -20.070   5.076  0.00  0.00    +0.019 A 
ATOM     16  C   LIG    1       23.451 -20.125   5.804  0.00  0.00    +0.050 A 
ATOM     17 CL   LIG    1       23.375 -20.742   7.415  0.00  0.00    -0.083 Cl
ATOM     18  C   LIG    1       22.278 -19.615   5.240  0.00  0.00    +0.021 A 
ATOM     19  C   LIG    1       22.297 -19.060   3.958  0.00  0.00    +0.002 A 
ATOM     20  C   LIG    1       23.488 -19.010   3.233  0.00  0.00    +0.001 A 
ATOM     21  C   LIG    1       24.664 -19.516   3.789  0.00  0.00    +0.011 A 
ENDBRANCH  11  15
TORSDOF 1
ENDMDL
MODEL 4
REMARK VINA RESULT:      -6.9      2.638      5.575
REMARK  Name = *****
REMARK                            x       y       z     vdW  Elec       q    Type
REMARK                         _______ _______ _______ _____ _____    ______ ____
ROOT
ATOM      1  O   LIG    1       28.790 -19.738   8.332  0.00  0.00    -0.273 OA
ATOM      2  C   LIG    1       28.076 -20.371   7.553  0.00  0.00    +0.239 C 
ATOM      3  N   LIG    1       27.332 -21.416   8.033  0.00  0.00    -0.283 N 
ATOM      4  H   LIG    1       27.556 -21.634   8.997  0.00  0.00    +0.155 HD
ATOM      5  C   LIG    1       26.493 -22.276   7.312  0.00  0.00    +0.043 A 
ATOM      6  C   LIG    1       25.839 -21.947   6.111  0.00  0.00    +0.023 A 
ATOM      7  C   LIG    1       25.071 -22.922   5.451  0.00  0.00    +0.032 A 
ATOM      8  C   LIG    1       24.923 -24.193   6.002  0.00  0.00    +0.042 A 
ATOM      9  C   LIG    1       25.519 -24.505   7.217  0.00  0.00    +0.022 A 
ATOM     10 CL   LIG    1       23.972 -25.372   5.189  0.00  0.00    -0.084 Cl
ATOM     11  C   LIG    1       25.801 -20.548   5.588  0.00  0.00    +0.076 C 
ATOM     12  N   LIG    1       26.776 -19.707   5.589  0.00  0.00    -0.273 NA
ATOM     13  C   LIG    1       26.295 -23.549   7.873  0.00  0.00    +0.025 A 
ATOM     14  C   LIG    1       28.088 -20.134   6.055  0.00  0.00    +0.238 C 
ENDROOT
BRANCH  11  15
ATOM     15  C   LIG    1       24.502 -20.043   5.071  0.00  0.00    +0.019 A 
ATOM     16  C   LIG    1       24.436 -19.073   4.065  0.00  0.00    +0.050 A 
ATOM     17 CL   LIG    1       25.845 -18.445   3.290  0.00  0.00    -0.083 Cl
ATOM     18  C   LIG    1       23.188 -18.625   3.623  0.00  0.00    +0.021 A 
ATOM     19  C   LIG    1       22.017 -19.140   4.184  0.00  0.00    +0.002 A 
ATOM     20  C   LIG    1       22.085 -20.105   5.189  0.00  0.00    +0.001 A 
ATOM     21  C   LIG    1       23.327 -20.558   5.637  0.00  0.00    +0.011 A 
ENDBRANCH  11  15
TORSDOF 1
ENDMDL
MODEL 5
REMARK VINA RESULT:      -6.9      2.310      3.942
REMARK  Name = *****
REMARK                            x       y       z     vdW  Elec       q    Type
REMARK                         _______ _______ _______ _____ _____    ______ ____
ROOT
ATOM      1  O   LIG    1       22.242 -20.009   5.232  0.00  0.00    -0.273 OA
ATOM      2  C   LIG    1       23.050 -20.792   5.734  0.00  0.00    +0.239 C 
ATOM      3  N   LIG    1       23.502 -21.848   4.987  0.00  0.00    -0.283 N 
ATOM      4  H   LIG    1       23.005 -21.936   4.109  0.00  0.00    +0.155 HD
ATOM      5  C   LIG    1       24.385 -22.862   5.380  0.00  0.00    +0.043 A 
ATOM      6  C   LIG    1       25.370 -22.734   6.375  0.00  0.00    +0.023 A 
ATOM      7  C   LIG    1       26.156 -23.847   6.720  0.00  0.00    +0.032 A 
ATOM      8  C   LIG    1       25.991 -25.059   6.053  0.00  0.00    +0.042 A 
ATOM      9  C   LIG    1       25.059 -25.175   5.029  0.00  0.00    +0.022 A 
ATOM     10 CL   LIG    1       26.965 -26.410   6.479  0.00  0.00    -0.084 Cl
ATOM     11  C   LIG    1       25.723 -21.411   6.974  0.00  0.00    +0.076 C 
ATOM     12  N   LIG    1       24.897 -20.481   7.308  0.00  0.00    -0.273 NA
ATOM     13  C   LIG    1       24.265 -24.079   4.690  0.00  0.00    +0.025 A 
ATOM     14  C   LIG    1       23.466 -20.720   7.190  0.00  0.00    +0.238 C 
ENDROOT
BRANCH  11  15
ATOM     15  C   LIG    1       27.166 -21.100   7.151  0.00  0.00    +0.019 A 
ATOM     16  C   LIG    1       27.864 -20.301   6.239  0.00  0.00    +0.050 A 
ATOM     17 CL   LIG    1       27.096 -19.549   4.889  0.00  0.00    -0.083 Cl
ATOM     18  C   LIG    1       29.223 -20.049   6.446  0.00  0.00    +0.021 A 
ATOM     19  C   LIG    1       29.879 -20.595   7.553  0.00  0.00    +0.002 A 
ATOM     20  C   LIG    1       29.181 -21.394   8.458  0.00  0.00    +0.001 A 
ATOM     21  C   LIG    1       27.823 -21.650   8.260  0.00  0.00    +0.011 A 
ENDBRANCH  11  15
TORSDOF 1
ENDMDL
MODEL 6
REMARK VINA RESULT:      -6.8      6.890      8.818
REMARK  Name = *****
REMARK                            x       y       z     vdW  Elec       q    Type
REMARK                         _______ _______ _______ _____ _____    ______ ____
ROOT
ATOM      1  O   LIG    1       24.090 -32.722   5.584  0.00  0.00    -0.273 OA
ATOM      2  C   LIG    1       24.629 -31.694   5.998  0.00  0.00    +0.239 C 
ATOM      3  N   LIG    1       24.025 -30.488   5.762  0.00  0.00    -0.283 N 
ATOM      4  H   LIG    1       23.228 -30.573   5.143  0.00  0.00    +0.155 HD
ATOM      5  C   LIG    1       24.488 -29.212   6.113  0.00  0.00    +0.043 A 
ATOM      6  C   LIG    1       25.344 -28.933   7.194  0.00  0.00    +0.023 A 
ATOM      7  C   LIG    1       25.786 -27.616   7.405  0.00  0.00    +0.032 A 
ATOM      8  C   LIG    1       25.348 -26.585   6.576  0.00  0.00    +0.042 A 
ATOM      9  C   LIG    1       24.457 -26.846   5.543  0.00  0.00    +0.022 A 
ATOM     10 CL   LIG    1       25.890 -24.977   6.852  0.00  0.00    -0.084 Cl
ATOM     11  C   LIG    1       25.678 -29.962   8.225  0.00  0.00    +0.076 C 
ATOM     12  N   LIG    1       25.935 -31.204   8.007  0.00  0.00    -0.273 NA
ATOM     13  C   LIG    1       24.024 -28.153   5.317  0.00  0.00    +0.025 A 
ATOM     14  C   LIG    1       26.004 -31.690   6.637  0.00  0.00    +0.238 C 
ENDROOT
BRANCH  11  15
ATOM     15  C   LIG    1       25.653 -29.538   9.650  0.00  0.00    +0.019 A 
ATOM     16  C   LIG    1       24.500 -29.654  10.434  0.00  0.00    +0.050 A 
ATOM     17 CL   LIG    1       23.045 -30.368   9.841  0.00  0.00    -0.083 Cl
ATOM     18  C   LIG    1       24.529 -29.229  11.765  0.00  0.00    +0.021 A 
ATOM     19  C   LIG    1       25.698 -28.690  12.307  0.00  0.00    +0.002 A 
ATOM     20  C   LIG    1       26.845 -28.572  11.522  0.00  0.00    +0.001 A 
ATOM     21  C   LIG    1       26.827 -28.994  10.192  0.00  0.00    +0.011 A 
ENDBRANCH  11  15
TORSDOF 1
ENDMDL
MODEL 7
REMARK VINA RESULT:      -6.5      2.520      4.721
REMARK  Name = *****
REMARK                            x       y       z     vdW  Elec       q    Type
REMARK                         _______ _______ _______ _____ _____    ______ ____
ROOT
ATOM      1  O   LIG    1       29.495 -20.458   6.605  0.00  0.00    -0.273 OA
ATOM      2  C   LIG    1       28.274 -20.328   6.506  0.00  0.00    +0.239 C 
ATOM      3  N   LIG    1       27.735 -20.032   5.281  0.00  0.00    -0.283 N 
ATOM      4  H   LIG    1       28.446 -19.828   4.590  0.00  0.00    +0.155 HD
ATOM      5  C   LIG    1       26.387 -19.810   4.967  0.00  0.00    +0.043 A 
ATOM      6  C   LIG    1       25.295 -20.343   5.674  0.00  0.00    +0.023 A 
ATOM      7  C   LIG    1       23.987 -19.994   5.294  0.00  0.00    +0.032 A 
ATOM      8  C   LIG    1       23.771 -19.160   4.199  0.00  0.00    +0.042 A 
ATOM      9  C   LIG    1       24.845 -18.678   3.462  0.00  0.00    +0.022 A 
ATOM     10 CL   LIG    1       22.166 -18.750   3.740  0.00  0.00    -0.084 Cl
ATOM     11  C   LIG    1       25.467 -21.395   6.721  0.00  0.00    +0.076 C 
ATOM     12  N   LIG    1       26.396 -21.440   7.611  0.00  0.00    -0.273 NA
ATOM     13  C   LIG    1       26.147 -19.007   3.840  0.00  0.00    +0.025 A 
ATOM     14  C   LIG    1       27.349 -20.343   7.707  0.00  0.00    +0.238 C 
ENDROOT
BRANCH  11  15
ATOM     15  C   LIG    1       24.517 -22.539   6.707  0.00  0.00    +0.019 A 
ATOM     16  C   LIG    1       24.954 -23.857   6.534  0.00  0.00    +0.050 A 
ATOM     17 CL   LIG    1       26.625 -24.270   6.404  0.00  0.00    -0.083 Cl
ATOM     18  C   LIG    1       24.017 -24.894   6.516  0.00  0.00    +0.021 A 
ATOM     19  C   LIG    1       22.657 -24.616   6.668  0.00  0.00    +0.002 A 
ATOM     20  C   LIG    1       22.224 -23.301   6.837  0.00  0.00    +0.001 A 
ATOM     21  C   LIG    1       23.152 -22.258   6.856  0.00  0.00    +0.011 A 
ENDBRANCH  11  15
TORSDOF 1
ENDMDL
MODEL 8
REMARK VINA RESULT:      -6.0      7.826      9.784
REMARK  Name = *****
REMARK                            x       y       z     vdW  Elec       q    Type
REMARK                         _______ _______ _______ _____ _____    ______ ____
ROOT
ATOM      1  O   LIG    1       26.272 -33.821   6.377  0.00  0.00    -0.273 OA
ATOM      2  C   LIG    1       26.220 -32.645   6.741  0.00  0.00    +0.239 C 
ATOM      3  N   LIG    1       25.443 -31.765   6.035  0.00  0.00    -0.283 N 
ATOM      4  H   LIG    1       25.077 -32.174   5.184  0.00  0.00    +0.155 HD
ATOM      5  C   LIG    1       25.279 -30.391   6.261  0.00  0.00    +0.043 A 
ATOM      6  C   LIG    1       25.427 -29.755   7.506  0.00  0.00    +0.023 A 
ATOM      7  C   LIG    1       25.295 -28.358   7.590  0.00  0.00    +0.032 A 
ATOM      8  C   LIG    1       24.977 -27.612   6.457  0.00  0.00    +0.042 A 
ATOM      9  C   LIG    1       24.772 -28.242   5.236  0.00  0.00    +0.022 A 
ATOM     10 CL   LIG    1       24.809 -25.905   6.577  0.00  0.00    -0.084 Cl
ATOM     11  C   LIG    1       25.567 -30.526   8.778  0.00  0.00    +0.076 C 
ATOM     12  N   LIG    1       26.266 -31.594   8.950  0.00  0.00    -0.273 NA
ATOM     13  C   LIG    1       24.916 -29.627   5.140  0.00  0.00    +0.025 A 
ATOM     14  C   LIG    1       27.087 -32.094   7.856  0.00  0.00    +0.238 C 
ENDROOT
BRANCH  11  15
ATOM     15  C   LIG    1       24.779 -30.064   9.951  0.00  0.00    +0.019 A 
ATOM     16  C   LIG    1       25.364 -29.335  10.991  0.00  0.00    +0.050 A 
ATOM     17 CL   LIG    1       27.019 -28.844  10.961  0.00  0.00    -0.083 Cl
ATOM     18  C   LIG    1       24.580 -28.935  12.077  0.00  0.00    +0.021 A 
ATOM     19  C   LIG    1       23.223 -29.265  12.124  0.00  0.00    +0.002 A 
ATOM     20  C   LIG    1       22.643 -29.995  11.087  0.00  0.00    +0.001 A 
ATOM     21  C   LIG    1       23.418 -30.399   9.999  0.00  0.00    +0.011 A 
ENDBRANCH  11  15
TORSDOF 1
ENDMDL
MODEL 9
REMARK VINA RESULT:      -6.0      1.648      4.710
REMARK  Name = *****
REMARK                            x       y       z     vdW  Elec       q    Type
REMARK                         _______ _______ _______ _____ _____    ______ ____
ROOT
ATOM      1  O   LIG    1       23.543 -25.633   5.942  0.00  0.00    -0.273 OA
ATOM      2  C   LIG    1       23.862 -24.507   6.326  0.00  0.00    +0.239 C 
ATOM      3  N   LIG    1       25.186 -24.154   6.322  0.00  0.00    -0.283 N 
ATOM      4  H   LIG    1       25.790 -24.938   6.107  0.00  0.00    +0.155 HD
ATOM      5  C   LIG    1       25.755 -22.947   6.749  0.00  0.00    +0.043 A 
ATOM      6  C   LIG    1       25.096 -21.704   6.762  0.00  0.00    +0.023 A 
ATOM      7  C   LIG    1       25.758 -20.575   7.273  0.00  0.00    +0.032 A 
ATOM      8  C   LIG    1       27.072 -20.673   7.724  0.00  0.00    +0.042 A 
ATOM      9  C   LIG    1       27.747 -21.886   7.660  0.00  0.00    +0.022 A 
ATOM     10 CL   LIG    1       27.873 -19.281   8.337  0.00  0.00    -0.084 Cl
ATOM     11  C   LIG    1       23.768 -21.506   6.107  0.00  0.00    +0.076 C 
ATOM     12  N   LIG    1       22.774 -22.324   6.134  0.00  0.00    -0.273 NA
ATOM     13  C   LIG    1       27.093 -23.016   7.168  0.00  0.00    +0.025 A 
ATOM     14  C   LIG    1       22.868 -23.537   6.934  0.00  0.00    +0.238 C 
ENDROOT
BRANCH  11  15
ATOM     15  C   LIG    1       23.583 -20.277   5.290  0.00  0.00    +0.019 A 
ATOM     16  C   LIG    1       24.561 -19.833   4.394  0.00  0.00    +0.050 A 
ATOM     17 CL   LIG    1       26.019 -20.712   4.105  0.00  0.00    -0.083 Cl
ATOM     18  C   LIG    1       24.341 -18.665   3.659  0.00  0.00    +0.021 A 
ATOM     19  C   LIG    1       23.155 -17.945   3.821  0.00  0.00    +0.002 A 
ATOM     20  C   LIG    1       22.183 -18.388   4.718  0.00  0.00    +0.001 A 
ATOM     21  C   LIG    1       22.393 -19.554   5.456  0.00  0.00    +0.011 A 
ENDBRANCH  11  15
TORSDOF 1
ENDMDL
