MODEL 1
REMARK VINA RESULT:      -7.2      0.000      0.000
REMARK  Name = *****
REMARK                            x       y       z     vdW  Elec       q    Type
REMARK                         _______ _______ _______ _____ _____    ______ ____
ROOT
ATOM      1  C   LIG    1       28.312 -19.992   5.828  0.00  0.00    +0.025 A 
ATOM      2  C   LIG    1       28.619 -20.804   6.922  0.00  0.00    +0.023 A 
ATOM      3  C   LIG    1       29.645 -20.454   7.783  0.00  0.00    +0.015 A 
ATOM      4  C   LIG    1       30.332 -19.253   7.594  0.00  0.00    +0.037 A 
ATOM      5  C   LIG    1       30.058 -18.435   6.501  0.00  0.00    +0.015 A 
ATOM      6  C   LIG    1       29.023 -18.799   5.638  0.00  0.00    +0.023 A 
ENDROOT
BRANCH   4   7
ATOM      7  C   LIG    1       31.323 -18.913   8.622  0.00  0.00    +0.244 C 
ATOM      8  N   LIG    1       31.527 -17.597   8.946  0.00  0.00    -0.301 N 
ATOM      9  H   LIG    1       30.793 -16.951   8.678  0.00  0.00    +0.150 HD
ATOM     10  O   LIG    1       31.941 -19.812   9.169  0.00  0.00    -0.270 OA
BRANCH   8  11
ATOM     11  C   LIG    1       32.250 -17.257  10.174  0.00  0.00    +0.225 C 
BRANCH  11  12
ATOM     12  C   LIG    1       31.544 -16.372  11.209  0.00  0.00    +0.322 C 
ATOM     13  O   LIG    1       30.321 -16.360  11.326  0.00  0.00    -0.249 OA
BRANCH  12  14
ATOM     14  O   LIG    1       32.324 -15.686  12.074  0.00  0.00    -0.479 OA
ATOM     15  H   LIG    1       31.782 -15.228  12.758  0.00  0.00    +0.295 HD
ENDBRANCH  12  14
ENDBRANCH  11  12
ENDBRANCH   8  11
ENDBRANCH   4   7
BRANCH   1  16
ATOM     16  N   LIG    1       27.156 -20.245   5.085  0.00  0.00    -0.358 N 
ATOM     17  H   LIG    1       26.918 -21.230   5.021  0.00  0.00    +0.142 HD
ATOM     18  H   LIG    1       27.134 -19.780   4.184  0.00  0.00    +0.142 HD
ENDBRANCH   1  16
TORSDOF 5
ENDMDL
MODEL 2
REMARK VINA RESULT:      -7.2      2.863      3.979
REMARK  Name = *****
REMARK                            x       y       z     vdW  Elec       q    Type
REMARK                         _______ _______ _______ _____ _____    ______ ____
ROOT
ATOM      1  C   LIG    1       24.701 -21.220   7.385  0.00  0.00    +0.025 A 
ATOM      2  C   LIG    1       25.664 -21.047   8.383  0.00  0.00    +0.023 A 
ATOM      3  C   LIG    1       26.928 -20.585   8.059  0.00  0.00    +0.015 A 
ATOM      4  C   LIG    1       27.221 -20.228   6.741  0.00  0.00    +0.037 A 
ATOM      5  C   LIG    1       26.285 -20.408   5.725  0.00  0.00    +0.015 A 
ATOM      6  C   LIG    1       25.015 -20.877   6.063  0.00  0.00    +0.023 A 
ENDROOT
BRANCH   4   7
ATOM      7  C   LIG    1       28.547 -19.641   6.516  0.00  0.00    +0.244 C 
ATOM      8  N   LIG    1       29.475 -19.680   7.524  0.00  0.00    -0.301 N 
ATOM      9  H   LIG    1       29.309 -20.357   8.260  0.00  0.00    +0.150 HD
ATOM     10  O   LIG    1       28.795 -19.133   5.435  0.00  0.00    -0.270 OA
BRANCH   8  11
ATOM     11  C   LIG    1       30.883 -19.409   7.223  0.00  0.00    +0.225 C 
BRANCH  11  12
ATOM     12  C   LIG    1       31.752 -18.781   8.321  0.00  0.00    +0.322 C 
ATOM     13  O   LIG    1       32.119 -19.422   9.302  0.00  0.00    -0.249 OA
BRANCH  12  14
ATOM     14  O   LIG    1       32.197 -17.522   8.115  0.00  0.00    -0.479 OA
ATOM     15  H   LIG    1       33.104 -17.522   7.729  0.00  0.00    +0.295 HD
ENDBRANCH  12  14
ENDBRANCH  11  12
ENDBRANCH   8  11
ENDBRANCH   4   7
BRANCH   1  16
ATOM     16  N   LIG    1       23.379 -21.494   7.744  0.00  0.00    -0.358 N 
ATOM     17  H   LIG    1       22.729 -20.748   7.515  0.00  0.00    +0.142 HD
ATOM     18  H   LIG    1       23.269 -21.827   8.695  0.00  0.00    +0.142 HD
ENDBRANCH   1  16
TORSDOF 5
ENDMDL
MODEL 3
REMARK VINA RESULT:      -7.2      3.627      5.317
REMARK  Name = *****
REMARK                            x       y       z     vdW  Elec       q    Type
REMARK                         _______ _______ _______ _____ _____    ______ ____
ROOT
ATOM      1  C   LIG    1       23.256 -20.866   5.571  0.00  0.00    +0.025 A 
ATOM      2  C   LIG    1       24.461 -20.642   4.900  0.00  0.00    +0.023 A 
ATOM      3  C   LIG    1       25.640 -20.508   5.612  0.00  0.00    +0.015 A 
ATOM      4  C   LIG    1       25.635 -20.662   7.000  0.00  0.00    +0.037 A 
ATOM      5  C   LIG    1       24.445 -20.868   7.695  0.00  0.00    +0.015 A 
ATOM      6  C   LIG    1       23.262 -20.999   6.966  0.00  0.00    +0.023 A 
ENDROOT
BRANCH   4   7
ATOM      7  C   LIG    1       26.948 -20.617   7.654  0.00  0.00    +0.244 C 
ATOM      8  N   LIG    1       28.035 -20.182   6.941  0.00  0.00    -0.301 N 
ATOM      9  H   LIG    1       27.837 -19.645   6.105  0.00  0.00    +0.150 HD
ATOM     10  O   LIG    1       27.043 -20.965   8.820  0.00  0.00    -0.270 OA
BRANCH   8  11
ATOM     11  C   LIG    1       29.266 -19.817   7.648  0.00  0.00    +0.225 C 
BRANCH  11  12
ATOM     12  C   LIG    1       30.466 -19.344   6.818  0.00  0.00    +0.322 C 
ATOM     13  O   LIG    1       30.361 -18.460   5.971  0.00  0.00    -0.249 OA
BRANCH  12  14
ATOM     14  O   LIG    1       31.676 -19.856   7.131  0.00  0.00    -0.479 OA
ATOM     15  H   LIG    1       32.106 -20.266   6.344  0.00  0.00    +0.295 HD
ENDBRANCH  12  14
ENDBRANCH  11  12
ENDBRANCH   8  11
ENDBRANCH   4   7
BRANCH   1  16
ATOM     16  N   LIG    1       22.112 -21.197   4.840  0.00  0.00    -0.358 N 
ATOM     17  H   LIG    1       21.842 -22.173   4.920  0.00  0.00    +0.142 HD
ATOM     18  H   LIG    1       22.128 -20.875   3.878  0.00  0.00    +0.142 HD
ENDBRANCH   1  16
TORSDOF 5
ENDMDL
MODEL 4
REMARK VINA RESULT:      -7.2      3.700      5.276
REMARK  Name = *****
REMARK                            x       y       z     vdW  Elec       q    Type
REMARK                         _______ _______ _______ _____ _____    ______ ____
ROOT
ATOM      1  C   LIG    1       23.200 -21.192   5.541  0.00  0.00    +0.025 A 
ATOM      2  C   LIG    1       23.286 -21.318   6.929  0.00  0.00    +0.023 A 
ATOM      3  C   LIG    1       24.497 -21.121   7.572  0.00  0.00    +0.015 A 
ATOM      4  C   LIG    1       25.619 -20.731   6.838  0.00  0.00    +0.037 A 
ATOM      5  C   LIG    1       25.563 -20.616   5.451  0.00  0.00    +0.015 A 
ATOM      6  C   LIG    1       24.339 -20.820   4.813  0.00  0.00    +0.023 A 
ENDROOT
BRANCH   4   7
ATOM      7  C   LIG    1       26.825 -20.434   7.620  0.00  0.00    +0.244 C 
ATOM      8  N   LIG    1       28.027 -20.308   6.973  0.00  0.00    -0.301 N 
ATOM      9  H   LIG    1       27.983 -20.137   5.976  0.00  0.00    +0.150 HD
ATOM     10  O   LIG    1       26.730 -20.304   8.830  0.00  0.00    -0.270 OA
BRANCH   8  11
ATOM     11  C   LIG    1       29.162 -19.697   7.669  0.00  0.00    +0.225 C 
BRANCH  11  12
ATOM     12  C   LIG    1       30.397 -19.313   6.843  0.00  0.00    +0.322 C 
ATOM     13  O   LIG    1       30.355 -18.437   5.983  0.00  0.00    -0.249 OA
BRANCH  12  14
ATOM     14  O   LIG    1       31.570 -19.896   7.175  0.00  0.00    -0.479 OA
ATOM     15  H   LIG    1       32.336 -19.378   6.832  0.00  0.00    +0.295 HD
ENDBRANCH  12  14
ENDBRANCH  11  12
ENDBRANCH   8  11
ENDBRANCH   4   7
BRANCH   1  16
ATOM     16  N   LIG    1       21.945 -21.196   4.926  0.00  0.00    -0.358 N 
ATOM     17  H   LIG    1       21.783 -22.002   4.331  0.00  0.00    +0.142 HD
ATOM     18  H   LIG    1       21.705 -20.322   4.471  0.00  0.00    +0.142 HD
ENDBRANCH   1  16
TORSDOF 5
ENDMDL
MODEL 5
REMARK VINA RESULT:      -7.1      3.568      5.365
REMARK  Name = *****
REMARK                            x       y       z     vdW  Elec       q    Type
REMARK                         _______ _______ _______ _____ _____    ______ ____
ROOT
ATOM      1  C   LIG    1       23.754 -23.006   6.983  0.00  0.00    +0.025 A 
ATOM      2  C   LIG    1       23.723 -21.646   7.300  0.00  0.00    +0.023 A 
ATOM      3  C   LIG    1       24.898 -20.968   7.579  0.00  0.00    +0.015 A 
ATOM      4  C   LIG    1       26.123 -21.631   7.477  0.00  0.00    +0.037 A 
ATOM      5  C   LIG    1       26.180 -22.991   7.181  0.00  0.00    +0.015 A 
ATOM      6  C   LIG    1       24.989 -23.663   6.905  0.00  0.00    +0.023 A 
ENDROOT
BRANCH   4   7
ATOM      7  C   LIG    1       27.318 -20.802   7.678  0.00  0.00    +0.244 C 
ATOM      8  N   LIG    1       28.332 -20.857   6.757  0.00  0.00    -0.301 N 
ATOM      9  H   LIG    1       28.091 -21.234   5.848  0.00  0.00    +0.150 HD
ATOM     10  O   LIG    1       27.381 -20.081   8.660  0.00  0.00    -0.270 OA
BRANCH   8  11
ATOM     11  C   LIG    1       29.364 -19.817   6.755  0.00  0.00    +0.225 C 
BRANCH  11  12
ATOM     12  C   LIG    1       30.623 -20.044   7.603  0.00  0.00    +0.322 C 
ATOM     13  O   LIG    1       31.736 -19.693   7.217  0.00  0.00    -0.249 OA
BRANCH  12  14
ATOM     14  O   LIG    1       30.452 -20.542   8.846  0.00  0.00    -0.479 OA
ATOM     15  H   LIG    1       31.275 -20.458   9.382  0.00  0.00    +0.295 HD
ENDBRANCH  12  14
ENDBRANCH  11  12
ENDBRANCH   8  11
ENDBRANCH   4   7
BRANCH   1  16
ATOM     16  N   LIG    1       22.596 -23.630   6.513  0.00  0.00    -0.358 N 
ATOM     17  H   LIG    1       22.774 -24.468   5.969  0.00  0.00    +0.142 HD
ATOM     18  H   LIG    1       21.944 -23.001   6.056  0.00  0.00    +0.142 HD
ENDBRANCH   1  16
TORSDOF 5
ENDMDL
MODEL 6
REMARK VINA RESULT:      -7.0      7.884     10.758
REMARK  Name = *****
REMARK                            x       y       z     vdW  Elec       q    Type
REMARK                         _______ _______ _______ _____ _____    ______ ____
ROOT
ATOM      1  C   LIG    1       23.932 -22.199   7.412  0.00  0.00    +0.025 A 
ATOM      2  C   LIG    1       25.297 -22.485   7.490  0.00  0.00    +0.023 A 
ATOM      3  C   LIG    1       25.770 -23.734   7.124  0.00  0.00    +0.015 A 
ATOM      4  C   LIG    1       24.888 -24.688   6.613  0.00  0.00    +0.037 A 
ATOM      5  C   LIG    1       23.520 -24.435   6.542  0.00  0.00    +0.015 A 
ATOM      6  C   LIG    1       23.055 -23.174   6.916  0.00  0.00    +0.023 A 
ENDROOT
BRANCH   4   7
ATOM      7  C   LIG    1       25.498 -25.938   6.145  0.00  0.00    +0.244 C 
ATOM      8  N   LIG    1       24.723 -27.065   6.049  0.00  0.00    -0.301 N 
ATOM      9  H   LIG    1       23.721 -26.919   6.024  0.00  0.00    +0.150 HD
ATOM     10  O   LIG    1       26.682 -25.946   5.849  0.00  0.00    -0.270 OA
BRANCH   8  11
ATOM     11  C   LIG    1       25.212 -28.217   5.286  0.00  0.00    +0.225 C 
BRANCH  11  12
ATOM     12  C   LIG    1       24.555 -29.581   5.531  0.00  0.00    +0.322 C 
ATOM     13  O   LIG    1       25.218 -30.581   5.797  0.00  0.00    -0.249 OA
BRANCH  12  14
ATOM     14  O   LIG    1       23.205 -29.623   5.558  0.00  0.00    -0.479 OA
ATOM     15  H   LIG    1       22.878 -30.121   6.344  0.00  0.00    +0.295 HD
ENDBRANCH  12  14
ENDBRANCH  11  12
ENDBRANCH   8  11
ENDBRANCH   4   7
BRANCH   1  16
ATOM     16  N   LIG    1       23.492 -20.886   7.592  0.00  0.00    -0.358 N 
ATOM     17  H   LIG    1       23.488 -20.584   8.561  0.00  0.00    +0.142 HD
ATOM     18  H   LIG    1       22.623 -20.671   7.114  0.00  0.00    +0.142 HD
ENDBRANCH   1  16
TORSDOF 5
ENDMDL
MODEL 7
REMARK VINA RESULT:      -7.0      3.788      5.014
REMARK  Name = *****
REMARK                            x       y       z     vdW  Elec       q    Type
REMARK                         _______ _______ _______ _____ _____    ______ ____
ROOT
ATOM      1  C   LIG    1       24.205 -21.438   6.123  0.00  0.00    +0.025 A 
ATOM      2  C   LIG    1       25.246 -20.816   5.430  0.00  0.00    +0.023 A 
ATOM      3  C   LIG    1       26.421 -20.490   6.086  0.00  0.00    +0.015 A 
ATOM      4  C   LIG    1       26.591 -20.843   7.426  0.00  0.00    +0.037 A 
ATOM      5  C   LIG    1       25.561 -21.447   8.144  0.00  0.00    +0.015 A 
ATOM      6  C   LIG    1       24.380 -21.769   7.474  0.00  0.00    +0.023 A 
ENDROOT
BRANCH   4   7
ATOM      7  C   LIG    1       27.911 -20.559   8.001  0.00  0.00    +0.244 C 
ATOM      8  N   LIG    1       28.924 -21.467   7.831  0.00  0.00    -0.301 N 
ATOM      9  H   LIG    1       28.801 -22.140   7.084  0.00  0.00    +0.150 HD
ATOM     10  O   LIG    1       28.078 -19.518   8.616  0.00  0.00    -0.270 OA
BRANCH   8  11
ATOM     11  C   LIG    1       30.307 -21.067   8.099  0.00  0.00    +0.225 C 
BRANCH  11  12
ATOM     12  C   LIG    1       31.127 -21.907   9.087  0.00  0.00    +0.322 C 
ATOM     13  O   LIG    1       30.788 -22.042  10.260  0.00  0.00    -0.249 OA
BRANCH  12  14
ATOM     14  O   LIG    1       32.181 -22.592   8.593  0.00  0.00    -0.479 OA
ATOM     15  H   LIG    1       32.547 -22.155   7.788  0.00  0.00    +0.295 HD
ENDBRANCH  12  14
ENDBRANCH  11  12
ENDBRANCH   8  11
ENDBRANCH   4   7
BRANCH   1  16
ATOM     16  N   LIG    1       23.110 -21.940   5.415  0.00  0.00    -0.358 N 
ATOM     17  H   LIG    1       22.553 -21.223   4.959  0.00  0.00    +0.142 HD
ATOM     18  H   LIG    1       22.543 -22.597   5.940  0.00  0.00    +0.142 HD
ENDBRANCH   1  16
TORSDOF 5
ENDMDL
MODEL 8
REMARK VINA RESULT:      -6.8      2.430      3.616
REMARK  Name = *****
REMARK                            x       y       z     vdW  Elec       q    Type
REMARK                         _______ _______ _______ _____ _____    ______ ____
ROOT
ATOM      1  C   LIG    1       24.932 -20.626   6.713  0.00  0.00    +0.025 A 
ATOM      2  C   LIG    1       25.894 -20.432   5.720  0.00  0.00    +0.023 A 
ATOM      3  C   LIG    1       27.236 -20.360   6.054  0.00  0.00    +0.015 A 
ATOM      4  C   LIG    1       27.633 -20.548   7.379  0.00  0.00    +0.037 A 
ATOM      5  C   LIG    1       26.692 -20.725   8.391  0.00  0.00    +0.015 A 
ATOM      6  C   LIG    1       25.343 -20.793   8.043  0.00  0.00    +0.023 A 
ENDROOT
BRANCH   4   7
ATOM      7  C   LIG    1       29.081 -20.568   7.617  0.00  0.00    +0.244 C 
ATOM      8  N   LIG    1       29.893 -19.756   6.869  0.00  0.00    -0.301 N 
ATOM      9  H   LIG    1       29.440 -18.980   6.400  0.00  0.00    +0.150 HD
ATOM     10  O   LIG    1       29.530 -21.307   8.479  0.00  0.00    -0.270 OA
BRANCH   8  11
ATOM     11  C   LIG    1       31.271 -19.513   7.302  0.00  0.00    +0.225 C 
BRANCH  11  12
ATOM     12  C   LIG    1       31.504 -18.570   8.489  0.00  0.00    +0.322 C 
ATOM     13  O   LIG    1       31.766 -17.380   8.330  0.00  0.00    -0.249 OA
BRANCH  12  14
ATOM     14  O   LIG    1       31.297 -19.069   9.727  0.00  0.00    -0.479 OA
ATOM     15  H   LIG    1       31.960 -19.765   9.948  0.00  0.00    +0.295 HD
ENDBRANCH  12  14
ENDBRANCH  11  12
ENDBRANCH   8  11
ENDBRANCH   4   7
BRANCH   1  16
ATOM     16  N   LIG    1       23.610 -20.895   6.349  0.00  0.00    -0.358 N 
ATOM     17  H   LIG    1       23.443 -20.850   5.348  0.00  0.00    +0.142 HD
ATOM     18  H   LIG    1       22.920 -20.376   6.881  0.00  0.00    +0.142 HD
ENDBRANCH   1  16
TORSDOF 5
ENDMDL
MODEL 9
REMARK VINA RESULT:      -6.6      4.562      6.999
REMARK  Name = *****
REMARK                            x       y       z     vdW  Elec       q    Type
REMARK                         _______ _______ _______ _____ _____    ______ ____
ROOT
ATOM      1  C   LIG    1       30.598 -19.654   7.172  0.00  0.00    +0.025 A 
ATOM      2  C   LIG    1       29.978 -18.914   6.163  0.00  0.00    +0.023 A 
ATOM      3  C   LIG    1       28.682 -19.210   5.778  0.00  0.00    +0.015 A 
ATOM      4  C   LIG    1       27.969 -20.208   6.445  0.00  0.00    +0.037 A 
ATOM      5  C   LIG    1       28.570 -20.973   7.442  0.00  0.00    +0.015 A 
ATOM      6  C   LIG    1       29.878 -20.668   7.820  0.00  0.00    +0.023 A 
ENDROOT
BRANCH   4   7
ATOM      7  C   LIG    1       26.567 -20.371   6.044  0.00  0.00    +0.244 C 
ATOM      8  N   LIG    1       26.225 -20.205   4.727  0.00  0.00    -0.301 N 
ATOM      9  H   LIG    1       26.982 -20.266   4.057  0.00  0.00    +0.150 HD
ATOM     10  O   LIG    1       25.736 -20.654   6.892  0.00  0.00    -0.270 OA
BRANCH   8  11
ATOM     11  C   LIG    1       24.922 -20.679   4.252  0.00  0.00    +0.225 C 
BRANCH  11  12
ATOM     12  C   LIG    1       23.697 -19.784   4.482  0.00  0.00    +0.322 C 
ATOM     13  O   LIG    1       23.321 -18.972   3.640  0.00  0.00    -0.249 OA
BRANCH  12  14
ATOM     14  O   LIG    1       22.972 -20.000   5.601  0.00  0.00    -0.479 OA
ATOM     15  H   LIG    1       23.244 -19.390   6.327  0.00  0.00    +0.295 HD
ENDBRANCH  12  14
ENDBRANCH  11  12
ENDBRANCH   8  11
ENDBRANCH   4   7
BRANCH   1  16
ATOM     16  N   LIG    1       31.823 -19.225   7.688  0.00  0.00    -0.358 N 
ATOM     17  H   LIG    1       31.803 -19.033   8.685  0.00  0.00    +0.142 HD
ATOM     18  H   LIG    1       32.257 -18.478   7.157  0.00  0.00    +0.142 HD
ENDBRANCH   1  16
TORSDOF 5
ENDMDL
