MODEL 1
REMARK VINA RESULT:      -3.9      0.000      0.000
REMARK  Name = *****
REMARK                            x       y       z     vdW  Elec       q    Type
REMARK                         _______ _______ _______ _____ _____    ______ ____
ROOT
ATOM      1  S   LIG    1       23.866 -14.763   4.014  0.00  0.00    +0.073 S 
ATOM      2  O   LIG    1       23.504 -14.906   5.409  0.00  0.00    -0.150 OA
ATOM      3  O   LIG    1       23.070 -13.972   3.104  0.00  0.00    -0.150 OA
ENDROOT
BRANCH   1   4
ATOM      4  C   LIG    1       25.537 -14.164   3.966  0.00  0.00    +0.109 A 
ATOM      5  C   LIG    1       26.125 -13.657   5.126  0.00  0.00    +0.030 A 
ATOM      6  C   LIG    1       27.448 -13.212   5.085  0.00  0.00    +0.024 A 
ATOM      7  C   LIG    1       28.200 -13.300   3.908  0.00  0.00    +0.025 A 
ATOM      8  C   LIG    1       27.569 -13.740   2.740  0.00  0.00    +0.024 A 
ATOM      9  C   LIG    1       26.246 -14.186   2.764  0.00  0.00    +0.030 A 
BRANCH   7  10
ATOM     10  N   LIG    1       29.475 -12.731   3.842  0.00  0.00    -0.358 N 
ATOM     11  H   LIG    1       29.731 -12.185   4.659  0.00  0.00    +0.142 HD
ATOM     12  H   LIG    1       30.208 -13.376   3.564  0.00  0.00    +0.142 HD
ENDBRANCH   7  10
ENDBRANCH   1   4
BRANCH   1  13
ATOM     13  N   LIG    1       24.017 -16.293   3.389  0.00  0.00    -0.199 N 
ATOM     14  H   LIG    1       24.402 -16.304   2.447  0.00  0.00    +0.175 HD
BRANCH  13  19
ATOM     15  N   LIG    1       23.242 -19.981   4.883  0.00  0.00    -0.299 N 
ATOM     16  C   LIG    1       24.495 -19.677   4.332  0.00  0.00    +0.350 C 
ATOM     17  O   LIG    1       25.393 -20.516   4.292  0.00  0.00    -0.244 OA
ATOM     18  N   LIG    1       24.692 -18.416   3.821  0.00  0.00    -0.177 NA
ATOM     19  C   LIG    1       23.752 -17.550   3.946  0.00  0.00    +0.145 C 
ATOM     20  C   LIG    1       22.454 -17.778   4.588  0.00  0.00    +0.063 C 
ATOM     21  C   LIG    1       22.265 -19.024   5.019  0.00  0.00    +0.094 C 
BRANCH  15  23
ATOM     22  C   LIG    1       23.207 -21.434   6.893  0.00  0.00    +0.027 C 
ATOM     23  C   LIG    1       22.995 -21.331   5.390  0.00  0.00    +0.123 C 
ENDBRANCH  15  23
ENDBRANCH  13  19
ENDBRANCH   1  13
TORSDOF 5
ENDMDL
MODEL 2
REMARK VINA RESULT:      -3.5      2.666      6.127
REMARK  Name = *****
REMARK                            x       y       z     vdW  Elec       q    Type
REMARK                         _______ _______ _______ _____ _____    ______ ____
ROOT
ATOM      1  S   LIG    1       22.941 -19.635   4.215  0.00  0.00    +0.073 S 
ATOM      2  O   LIG    1       23.221 -19.678   2.794  0.00  0.00    -0.150 OA
ATOM      3  O   LIG    1       21.884 -20.426   4.802  0.00  0.00    -0.150 OA
ENDROOT
BRANCH   1   4
ATOM      4  C   LIG    1       24.459 -20.012   5.057  0.00  0.00    +0.109 A 
ATOM      5  C   LIG    1       24.421 -20.533   6.352  0.00  0.00    +0.030 A 
ATOM      6  C   LIG    1       25.618 -20.850   6.997  0.00  0.00    +0.024 A 
ATOM      7  C   LIG    1       26.849 -20.685   6.352  0.00  0.00    +0.025 A 
ATOM      8  C   LIG    1       26.869 -20.092   5.085  0.00  0.00    +0.024 A 
ATOM      9  C   LIG    1       25.680 -19.767   4.428  0.00  0.00    +0.030 A 
BRANCH   7  10
ATOM     10  N   LIG    1       28.043 -20.879   7.052  0.00  0.00    -0.358 N 
ATOM     11  H   LIG    1       28.330 -20.086   7.616  0.00  0.00    +0.142 HD
ATOM     12  H   LIG    1       28.091 -21.754   7.564  0.00  0.00    +0.142 HD
ENDBRANCH   7  10
ENDBRANCH   1   4
BRANCH   1  13
ATOM     13  N   LIG    1       22.696 -18.044   4.617  0.00  0.00    -0.199 N 
ATOM     14  H   LIG    1       21.888 -17.904   5.220  0.00  0.00    +0.175 HD
BRANCH  13  19
ATOM     15  N   LIG    1       24.889 -14.728   3.825  0.00  0.00    -0.299 N 
ATOM     16  C   LIG    1       25.370 -16.003   3.497  0.00  0.00    +0.350 C 
ATOM     17  O   LIG    1       26.463 -16.152   2.955  0.00  0.00    -0.244 OA
ATOM     18  N   LIG    1       24.590 -17.093   3.810  0.00  0.00    -0.177 NA
ATOM     19  C   LIG    1       23.426 -16.889   4.310  0.00  0.00    +0.145 C 
ATOM     20  C   LIG    1       22.831 -15.581   4.597  0.00  0.00    +0.063 C 
ATOM     21  C   LIG    1       23.629 -14.545   4.343  0.00  0.00    +0.094 C 
BRANCH  15  23
ATOM     22  C   LIG    1       25.300 -12.838   2.273  0.00  0.00    +0.027 C 
ATOM     23  C   LIG    1       25.722 -13.559   3.545  0.00  0.00    +0.123 C 
ENDBRANCH  15  23
ENDBRANCH  13  19
ENDBRANCH   1  13
TORSDOF 5
ENDMDL
MODEL 3
REMARK VINA RESULT:      -3.2      3.149      6.988
REMARK  Name = *****
REMARK                            x       y       z     vdW  Elec       q    Type
REMARK                         _______ _______ _______ _____ _____    ______ ____
ROOT
ATOM      1  S   LIG    1       28.337 -19.438   5.802  0.00  0.00    +0.073 S 
ATOM      2  O   LIG    1       28.472 -18.552   6.940  0.00  0.00    -0.150 OA
ATOM      3  O   LIG    1       29.242 -20.545   5.594  0.00  0.00    -0.150 OA
ENDROOT
BRANCH   1   4
ATOM      4  C   LIG    1       26.676 -20.067   5.825  0.00  0.00    +0.109 A 
ATOM      5  C   LIG    1       26.089 -20.430   7.038  0.00  0.00    +0.030 A 
ATOM      6  C   LIG    1       24.773 -20.899   7.049  0.00  0.00    +0.024 A 
ATOM      7  C   LIG    1       24.028 -20.977   5.867  0.00  0.00    +0.025 A 
ATOM      8  C   LIG    1       24.659 -20.681   4.655  0.00  0.00    +0.024 A 
ATOM      9  C   LIG    1       25.974 -20.213   4.627  0.00  0.00    +0.030 A 
BRANCH   7  10
ATOM     10  N   LIG    1       22.763 -21.572   5.870  0.00  0.00    -0.358 N 
ATOM     11  H   LIG    1       22.019 -20.973   5.528  0.00  0.00    +0.142 HD
ATOM     12  H   LIG    1       22.735 -22.498   5.455  0.00  0.00    +0.142 HD
ENDBRANCH   7  10
ENDBRANCH   1   4
BRANCH   1  13
ATOM     13  N   LIG    1       28.340 -18.490   4.441  0.00  0.00    -0.199 N 
ATOM     14  H   LIG    1       28.972 -18.829   3.718  0.00  0.00    +0.175 HD
BRANCH  13  19
ATOM     15  N   LIG    1       26.178 -15.165   3.599  0.00  0.00    -0.299 N 
ATOM     16  C   LIG    1       27.474 -15.066   4.126  0.00  0.00    +0.350 C 
ATOM     17  O   LIG    1       27.992 -13.972   4.340  0.00  0.00    -0.244 OA
ATOM     18  N   LIG    1       28.150 -16.229   4.412  0.00  0.00    -0.177 NA
ATOM     19  C   LIG    1       27.601 -17.348   4.107  0.00  0.00    +0.145 C 
ATOM     20  C   LIG    1       26.288 -17.517   3.476  0.00  0.00    +0.063 C 
ATOM     21  C   LIG    1       25.627 -16.379   3.267  0.00  0.00    +0.094 C 
BRANCH  15  23
ATOM     22  C   LIG    1       23.997 -14.014   3.857  0.00  0.00    +0.027 C 
ATOM     23  C   LIG    1       25.423 -13.941   3.332  0.00  0.00    +0.123 C 
ENDBRANCH  15  23
ENDBRANCH  13  19
ENDBRANCH   1  13
TORSDOF 5
ENDMDL
MODEL 4
REMARK VINA RESULT:      -2.8      2.470      3.236
REMARK  Name = *****
REMARK                            x       y       z     vdW  Elec       q    Type
REMARK                         _______ _______ _______ _____ _____    ______ ____
ROOT
ATOM      1  S   LIG    1       26.770 -15.538   3.381  0.00  0.00    +0.073 S 
ATOM      2  O   LIG    1       27.322 -14.981   2.164  0.00  0.00    -0.150 OA
ATOM      3  O   LIG    1       27.621 -16.036   4.438  0.00  0.00    -0.150 OA
ENDROOT
BRANCH   1   4
ATOM      4  C   LIG    1       25.680 -14.316   4.068  0.00  0.00    +0.109 A 
ATOM      5  C   LIG    1       26.162 -13.409   5.014  0.00  0.00    +0.030 A 
ATOM      6  C   LIG    1       25.304 -12.435   5.529  0.00  0.00    +0.024 A 
ATOM      7  C   LIG    1       23.981 -12.336   5.085  0.00  0.00    +0.025 A 
ATOM      8  C   LIG    1       23.496 -13.299   4.195  0.00  0.00    +0.024 A 
ATOM      9  C   LIG    1       24.341 -14.281   3.673  0.00  0.00    +0.030 A 
BRANCH   7  10
ATOM     10  N   LIG    1       23.096 -11.447   5.703  0.00  0.00    -0.358 N 
ATOM     11  H   LIG    1       22.170 -11.827   5.868  0.00  0.00    +0.142 HD
ATOM     12  H   LIG    1       23.474 -10.982   6.523  0.00  0.00    +0.142 HD
ENDBRANCH   7  10
ENDBRANCH   1   4
BRANCH   1  13
ATOM     13  N   LIG    1       25.720 -16.743   2.936  0.00  0.00    -0.199 N 
ATOM     14  H   LIG    1       25.291 -16.585   2.027  0.00  0.00    +0.175 HD
BRANCH  13  19
ATOM     15  N   LIG    1       24.658 -20.143   4.871  0.00  0.00    -0.299 N 
ATOM     16  C   LIG    1       23.685 -19.278   4.350  0.00  0.00    +0.350 C 
ATOM     17  O   LIG    1       22.486 -19.529   4.459  0.00  0.00    -0.244 OA
ATOM     18  N   LIG    1       24.105 -18.129   3.723  0.00  0.00    -0.177 NA
ATOM     19  C   LIG    1       25.366 -17.941   3.569  0.00  0.00    +0.145 C 
ATOM     20  C   LIG    1       26.430 -18.847   4.012  0.00  0.00    +0.063 C 
ATOM     21  C   LIG    1       25.999 -19.921   4.671  0.00  0.00    +0.094 C 
BRANCH  15  23
ATOM     22  C   LIG    1       23.903 -21.073   7.043  0.00  0.00    +0.027 C 
ATOM     23  C   LIG    1       24.232 -21.348   5.583  0.00  0.00    +0.123 C 
ENDBRANCH  15  23
ENDBRANCH  13  19
ENDBRANCH   1  13
TORSDOF 5
ENDMDL
MODEL 5
REMARK VINA RESULT:      -2.5      1.521      1.894
REMARK  Name = *****
REMARK                            x       y       z     vdW  Elec       q    Type
REMARK                         _______ _______ _______ _____ _____    ______ ____
ROOT
ATOM      1  S   LIG    1       23.536 -13.765   3.944  0.00  0.00    +0.073 S 
ATOM      2  O   LIG    1       23.053 -12.705   4.804  0.00  0.00    -0.150 OA
ATOM      3  O   LIG    1       23.035 -13.935   2.600  0.00  0.00    -0.150 OA
ENDROOT
BRANCH   1   4
ATOM      4  C   LIG    1       25.304 -13.613   3.869  0.00  0.00    +0.109 A 
ATOM      5  C   LIG    1       26.030 -13.390   5.040  0.00  0.00    +0.030 A 
ATOM      6  C   LIG    1       27.422 -13.298   4.975  0.00  0.00    +0.024 A 
ATOM      7  C   LIG    1       28.098 -13.460   3.761  0.00  0.00    +0.025 A 
ATOM      8  C   LIG    1       27.348 -13.606   2.589  0.00  0.00    +0.024 A 
ATOM      9  C   LIG    1       25.955 -13.698   2.638  0.00  0.00    +0.030 A 
BRANCH   7  10
ATOM     10  N   LIG    1       29.475 -13.233   3.685  0.00  0.00    -0.358 N 
ATOM     11  H   LIG    1       29.954 -13.800   2.994  0.00  0.00    +0.142 HD
ATOM     12  H   LIG    1       29.735 -12.253   3.628  0.00  0.00    +0.142 HD
ENDBRANCH   7  10
ENDBRANCH   1   4
BRANCH   1  13
ATOM     13  N   LIG    1       23.335 -15.192   4.767  0.00  0.00    -0.199 N 
ATOM     14  H   LIG    1       22.994 -15.062   5.716  0.00  0.00    +0.175 HD
BRANCH  13  19
ATOM     15  N   LIG    1       23.852 -19.077   3.731  0.00  0.00    -0.299 N 
ATOM     16  C   LIG    1       22.638 -18.633   4.273  0.00  0.00    +0.350 C 
ATOM     17  O   LIG    1       21.695 -19.405   4.441  0.00  0.00    -0.244 OA
ATOM     18  N   LIG    1       22.529 -17.308   4.625  0.00  0.00    -0.177 NA
ATOM     19  C   LIG    1       23.511 -16.522   4.366  0.00  0.00    +0.145 C 
ATOM     20  C   LIG    1       24.771 -16.906   3.724  0.00  0.00    +0.063 C 
ATOM     21  C   LIG    1       24.876 -18.205   3.449  0.00  0.00    +0.094 C 
BRANCH  15  23
ATOM     22  C   LIG    1       24.654 -21.289   4.514  0.00  0.00    +0.027 C 
ATOM     23  C   LIG    1       24.006 -20.492   3.393  0.00  0.00    +0.123 C 
ENDBRANCH  15  23
ENDBRANCH  13  19
ENDBRANCH   1  13
TORSDOF 5
ENDMDL
MODEL 6
REMARK VINA RESULT:      -2.4      2.946      3.736
REMARK  Name = *****
REMARK                            x       y       z     vdW  Elec       q    Type
REMARK                         _______ _______ _______ _____ _____    ______ ____
ROOT
ATOM      1  S   LIG    1       27.607 -14.042   3.136  0.00  0.00    +0.073 S 
ATOM      2  O   LIG    1       27.208 -14.472   1.812  0.00  0.00    -0.150 OA
ATOM      3  O   LIG    1       28.758 -13.193   3.341  0.00  0.00    -0.150 OA
ENDROOT
BRANCH   1   4
ATOM      4  C   LIG    1       26.195 -13.264   3.881  0.00  0.00    +0.109 A 
ATOM      5  C   LIG    1       26.184 -13.018   5.255  0.00  0.00    +0.030 A 
ATOM      6  C   LIG    1       25.080 -12.382   5.828  0.00  0.00    +0.024 A 
ATOM      7  C   LIG    1       24.005 -11.960   5.039  0.00  0.00    +0.025 A 
ATOM      8  C   LIG    1       24.002 -12.283   3.679  0.00  0.00    +0.024 A 
ATOM      9  C   LIG    1       25.097 -12.920   3.092  0.00  0.00    +0.030 A 
BRANCH   7  10
ATOM     10  N   LIG    1       22.851 -11.447   5.639  0.00  0.00    -0.358 N 
ATOM     11  H   LIG    1       22.944 -11.259   6.632  0.00  0.00    +0.142 HD
ATOM     12  H   LIG    1       22.428 -10.671   5.137  0.00  0.00    +0.142 HD
ENDBRANCH   7  10
ENDBRANCH   1   4
BRANCH   1  13
ATOM     13  N   LIG    1       27.789 -15.409   4.060  0.00  0.00    -0.199 N 
ATOM     14  H   LIG    1       28.492 -15.309   4.789  0.00  0.00    +0.175 HD
BRANCH  13  19
ATOM     15  N   LIG    1       25.938 -19.012   3.905  0.00  0.00    -0.299 N 
ATOM     16  C   LIG    1       27.133 -18.848   4.619  0.00  0.00    +0.350 C 
ATOM     17  O   LIG    1       27.648 -19.787   5.223  0.00  0.00    -0.244 OA
ATOM     18  N   LIG    1       27.726 -17.607   4.618  0.00  0.00    -0.177 NA
ATOM     19  C   LIG    1       27.119 -16.638   4.034  0.00  0.00    +0.145 C 
ATOM     20  C   LIG    1       25.828 -16.724   3.345  0.00  0.00    +0.063 C 
ATOM     21  C   LIG    1       25.304 -17.948   3.308  0.00  0.00    +0.094 C 
BRANCH  15  23
ATOM     22  C   LIG    1       23.810 -20.275   4.072  0.00  0.00    +0.027 C 
ATOM     23  C   LIG    1       25.314 -20.334   3.854  0.00  0.00    +0.123 C 
ENDBRANCH  15  23
ENDBRANCH  13  19
ENDBRANCH   1  13
TORSDOF 5
ENDMDL
MODEL 7
REMARK VINA RESULT:      -1.8      2.188      2.725
REMARK  Name = *****
REMARK                            x       y       z     vdW  Elec       q    Type
REMARK                         _______ _______ _______ _____ _____    ______ ____
ROOT
ATOM      1  S   LIG    1       25.099 -15.004   3.281  0.00  0.00    +0.073 S 
ATOM      2  O   LIG    1       24.222 -15.355   4.378  0.00  0.00    -0.150 OA
ATOM      3  O   LIG    1       24.598 -14.359   2.089  0.00  0.00    -0.150 OA
ENDROOT
BRANCH   1   4
ATOM      4  C   LIG    1       26.404 -14.006   3.953  0.00  0.00    +0.109 A 
ATOM      5  C   LIG    1       26.509 -13.842   5.336  0.00  0.00    +0.030 A 
ATOM      6  C   LIG    1       27.554 -13.076   5.857  0.00  0.00    +0.024 A 
ATOM      7  C   LIG    1       28.514 -12.502   5.016  0.00  0.00    +0.025 A 
ATOM      8  C   LIG    1       28.348 -12.615   3.632  0.00  0.00    +0.024 A 
ATOM      9  C   LIG    1       27.307 -13.375   3.095  0.00  0.00    +0.030 A 
BRANCH   7  10
ATOM     10  N   LIG    1       29.475 -11.630   5.536  0.00  0.00    -0.358 N 
ATOM     11  H   LIG    1       29.262 -11.280   6.464  0.00  0.00    +0.142 HD
ATOM     12  H   LIG    1       30.430 -11.967   5.460  0.00  0.00    +0.142 HD
ENDBRANCH   7  10
ENDBRANCH   1   4
BRANCH   1  13
ATOM     13  N   LIG    1       25.901 -16.387   2.835  0.00  0.00    -0.199 N 
ATOM     14  H   LIG    1       26.196 -16.382   1.861  0.00  0.00    +0.175 HD
BRANCH  13  19
ATOM     15  N   LIG    1       26.885 -19.637   5.049  0.00  0.00    -0.299 N 
ATOM     16  C   LIG    1       25.756 -19.648   4.217  0.00  0.00    +0.350 C 
ATOM     17  O   LIG    1       25.039 -20.643   4.130  0.00  0.00    -0.244 OA
ATOM     18  N   LIG    1       25.461 -18.509   3.506  0.00  0.00    -0.177 NA
ATOM     19  C   LIG    1       26.275 -17.518   3.571  0.00  0.00    +0.145 C 
ATOM     20  C   LIG    1       27.514 -17.474   4.352  0.00  0.00    +0.063 C 
ATOM     21  C   LIG    1       27.746 -18.566   5.079  0.00  0.00    +0.094 C 
BRANCH  15  23
ATOM     22  C   LIG    1       28.491 -20.677   6.626  0.00  0.00    +0.027 C 
ATOM     23  C   LIG    1       27.192 -20.822   5.849  0.00  0.00    +0.123 C 
ENDBRANCH  15  23
ENDBRANCH  13  19
ENDBRANCH   1  13
TORSDOF 5
ENDMDL
MODEL 8
REMARK VINA RESULT:      -1.6      3.021      3.845
REMARK  Name = *****
REMARK                            x       y       z     vdW  Elec       q    Type
REMARK                         _______ _______ _______ _____ _____    ______ ____
ROOT
ATOM      1  S   LIG    1       27.595 -14.093   3.116  0.00  0.00    +0.073 S 
ATOM      2  O   LIG    1       27.181 -14.581   1.818  0.00  0.00    -0.150 OA
ATOM      3  O   LIG    1       28.739 -13.223   3.267  0.00  0.00    -0.150 OA
ENDROOT
BRANCH   1   4
ATOM      4  C   LIG    1       26.186 -13.300   3.850  0.00  0.00    +0.109 A 
ATOM      5  C   LIG    1       26.175 -13.035   5.221  0.00  0.00    +0.030 A 
ATOM      6  C   LIG    1       25.074 -12.387   5.785  0.00  0.00    +0.024 A 
ATOM      7  C   LIG    1       24.000 -11.972   4.991  0.00  0.00    +0.025 A 
ATOM      8  C   LIG    1       23.995 -12.314   3.635  0.00  0.00    +0.024 A 
ATOM      9  C   LIG    1       25.088 -12.963   3.056  0.00  0.00    +0.030 A 
BRANCH   7  10
ATOM     10  N   LIG    1       22.847 -11.447   5.583  0.00  0.00    -0.358 N 
ATOM     11  H   LIG    1       23.016 -10.656   6.196  0.00  0.00    +0.142 HD
ATOM     12  H   LIG    1       22.084 -11.277   4.935  0.00  0.00    +0.142 HD
ENDBRANCH   7  10
ENDBRANCH   1   4
BRANCH   1  13
ATOM     13  N   LIG    1       27.807 -15.417   4.093  0.00  0.00    -0.199 N 
ATOM     14  H   LIG    1       28.450 -15.248   4.863  0.00  0.00    +0.175 HD
BRANCH  13  19
ATOM     15  N   LIG    1       26.039 -19.065   4.095  0.00  0.00    -0.299 N 
ATOM     16  C   LIG    1       25.415 -17.965   3.491  0.00  0.00    +0.350 C 
ATOM     17  O   LIG    1       24.322 -18.075   2.940  0.00  0.00    -0.244 OA
ATOM     18  N   LIG    1       26.054 -16.747   3.541  0.00  0.00    -0.177 NA
ATOM     19  C   LIG    1       27.225 -16.691   4.063  0.00  0.00    +0.145 C 
ATOM     20  C   LIG    1       27.967 -17.819   4.632  0.00  0.00    +0.063 C 
ATOM     21  C   LIG    1       27.303 -18.974   4.628  0.00  0.00    +0.094 C 
BRANCH  15  23
ATOM     22  C   LIG    1       24.827 -20.736   5.470  0.00  0.00    +0.027 C 
ATOM     23  C   LIG    1       25.357 -20.359   4.095  0.00  0.00    +0.123 C 
ENDBRANCH  15  23
ENDBRANCH  13  19
ENDBRANCH   1  13
TORSDOF 5
ENDMDL
MODEL 9
REMARK VINA RESULT:      -1.2      2.705      6.305
REMARK  Name = *****
REMARK                            x       y       z     vdW  Elec       q    Type
REMARK                         _______ _______ _______ _____ _____    ______ ____
ROOT
ATOM      1  S   LIG    1       23.587 -19.907   4.726  0.00  0.00    +0.073 S 
ATOM      2  O   LIG    1       23.188 -21.109   4.024  0.00  0.00    -0.150 OA
ATOM      3  O   LIG    1       22.778 -19.344   5.782  0.00  0.00    -0.150 OA
ENDROOT
BRANCH   1   4
ATOM      4  C   LIG    1       25.221 -20.191   5.360  0.00  0.00    +0.109 A 
ATOM      5  C   LIG    1       26.331 -19.726   4.652  0.00  0.00    +0.030 A 
ATOM      6  C   LIG    1       27.611 -19.931   5.172  0.00  0.00    +0.024 A 
ATOM      7  C   LIG    1       27.792 -20.565   6.406  0.00  0.00    +0.025 A 
ATOM      8  C   LIG    1       26.674 -21.090   7.062  0.00  0.00    +0.024 A 
ATOM      9  C   LIG    1       25.388 -20.895   6.554  0.00  0.00    +0.030 A 
BRANCH   7  10
ATOM     10  N   LIG    1       29.078 -20.884   6.851  0.00  0.00    -0.358 N 
ATOM     11  H   LIG    1       29.609 -21.467   6.213  0.00  0.00    +0.142 HD
ATOM     12  H   LIG    1       29.615 -20.088   7.183  0.00  0.00    +0.142 HD
ENDBRANCH   7  10
ENDBRANCH   1   4
BRANCH   1  13
ATOM     13  N   LIG    1       23.849 -18.735   3.580  0.00  0.00    -0.199 N 
ATOM     14  H   LIG    1       23.471 -18.976   2.667  0.00  0.00    +0.175 HD
BRANCH  13  19
ATOM     15  N   LIG    1       25.522 -15.046   3.736  0.00  0.00    -0.299 N 
ATOM     16  C   LIG    1       24.205 -15.257   4.168  0.00  0.00    +0.350 C 
ATOM     17  O   LIG    1       23.525 -14.334   4.611  0.00  0.00    -0.244 OA
ATOM     18  N   LIG    1       23.685 -16.526   4.071  0.00  0.00    -0.177 NA
ATOM     19  C   LIG    1       24.451 -17.474   3.669  0.00  0.00    +0.145 C 
ATOM     20  C   LIG    1       25.859 -17.336   3.285  0.00  0.00    +0.063 C 
ATOM     21  C   LIG    1       26.322 -16.087   3.329  0.00  0.00    +0.094 C 
BRANCH  15  23
ATOM     22  C   LIG    1       27.574 -13.695   4.076  0.00  0.00    +0.027 C 
ATOM     23  C   LIG    1       26.080 -13.695   3.786  0.00  0.00    +0.123 C 
ENDBRANCH  15  23
ENDBRANCH  13  19
ENDBRANCH   1  13
TORSDOF 5
ENDMDL
