MODEL 1
REMARK VINA RESULT:      -8.1      0.000      0.000
REMARK  Name = *****
REMARK                            x       y       z     vdW  Elec       q    Type
REMARK                         _______ _______ _______ _____ _____    ______ ____
ROOT
ATOM      1  C6    A A  1       25.032 -20.770   6.572  0.00  0.00    +0.147 A 
ATOM      2  C5    A A  1       26.386 -20.410   6.458  0.00  0.00    +0.147 A 
ATOM      3  N7    A A  1       27.130 -19.896   5.417  0.00  0.00    -0.231 NA
ATOM      4  C8    A A  1       28.346 -19.773   5.904  0.00  0.00    +0.203 A 
ATOM      5  N9    A A  1       28.430 -20.193   7.208  0.00  0.00    -0.285 N 
ATOM      6  C4    A A  1       27.177 -20.605   7.577  0.00  0.00    +0.167 A 
ATOM      7  N3    A A  1       26.795 -21.115   8.762  0.00  0.00    -0.216 NA
ATOM      8  C2    A A  1       25.480 -21.422   8.753  0.00  0.00    +0.225 A 
ATOM      9  N1    A A  1       24.598 -21.292   7.742  0.00  0.00    -0.219 NA
ENDROOT
BRANCH   5  10
ATOM     10  C1*   A A  1       29.602 -20.098   8.052  0.00  0.00    +0.253 C 
ATOM     11  C2*   A A  1       30.914 -19.625   7.404  0.00  0.00    +0.195 C 
ATOM     12  C3*   A A  1       31.684 -19.168   8.630  0.00  0.00    +0.178 C 
ATOM     13  C4*   A A  1       30.590 -18.551   9.506  0.00  0.00    +0.177 C 
ATOM     14  O4*   A A  1       29.332 -19.177   9.137  0.00  0.00    -0.346 OA
BRANCH  11  15
ATOM     15  O2*   A A  1       30.754 -18.503   6.529  0.00  0.00    -0.385 OA
ATOM     16  H2*   A A  1       30.337 -18.855   5.715  0.00  0.00    +0.210 HD
ENDBRANCH  11  15
BRANCH  12  17
ATOM     17  O3*   A A  1       32.242 -20.321   9.270  0.00  0.00    -0.386 OA
ATOM     18  H3*   A A  1       32.495 -20.061  10.174  0.00  0.00    +0.210 HD
ENDBRANCH  12  17
BRANCH  13  19
ATOM     19  C5*   A A  1       30.447 -17.038   9.310  0.00  0.00    +0.190 C 
BRANCH  19  20
ATOM     20  O5*   A A  1       30.162 -16.414  10.563  0.00  0.00    -0.392 OA
ATOM     21  H5*   A A  1       29.653 -15.608  10.354  0.00  0.00    +0.209 HD
ENDBRANCH  19  20
ENDBRANCH  13  19
ENDBRANCH   5  10
BRANCH   1  22
ATOM     22  N6    A A  1       24.118 -20.638   5.534  0.00  0.00    -0.341 N 
ATOM     23  H61   A A  1       24.559 -20.551   4.623  0.00  0.00    +0.144 HD
ATOM     24  H62   A A  1       23.353 -21.293   5.621  0.00  0.00    +0.144 HD
ENDBRANCH   1  22
TORSDOF 6
ENDMDL
MODEL 2
REMARK VINA RESULT:      -8.1      3.083      5.814
REMARK  Name = *****
REMARK                            x       y       z     vdW  Elec       q    Type
REMARK                         _______ _______ _______ _____ _____    ______ ____
ROOT
ATOM      1  C6    A A  1       31.556 -19.318   8.250  0.00  0.00    +0.147 A 
ATOM      2  C5    A A  1       30.325 -19.511   7.599  0.00  0.00    +0.147 A 
ATOM      3  N7    A A  1       29.614 -18.742   6.703  0.00  0.00    -0.231 NA
ATOM      4  C8    A A  1       28.527 -19.441   6.450  0.00  0.00    +0.203 A 
ATOM      5  N9    A A  1       28.494 -20.621   7.150  0.00  0.00    -0.285 N 
ATOM      6  C4    A A  1       29.643 -20.680   7.892  0.00  0.00    +0.167 A 
ATOM      7  N3    A A  1       30.024 -21.650   8.744  0.00  0.00    -0.216 NA
ATOM      8  C2    A A  1       31.215 -21.355   9.307  0.00  0.00    +0.225 A 
ATOM      9  N1    A A  1       31.981 -20.262   9.121  0.00  0.00    -0.219 NA
ENDROOT
BRANCH   5  10
ATOM     10  C1*   A A  1       27.484 -21.650   7.021  0.00  0.00    +0.253 C 
ATOM     11  C2*   A A  1       26.683 -22.029   8.278  0.00  0.00    +0.195 C 
ATOM     12  C3*   A A  1       25.463 -22.677   7.649  0.00  0.00    +0.178 C 
ATOM     13  C4*   A A  1       25.233 -21.823   6.399  0.00  0.00    +0.177 C 
ATOM     14  O4*   A A  1       26.510 -21.238   6.030  0.00  0.00    -0.346 OA
BRANCH  11  15
ATOM     15  O2*   A A  1       26.249 -20.902   9.046  0.00  0.00    -0.385 OA
ATOM     16  H2*   A A  1       25.720 -20.348   8.436  0.00  0.00    +0.210 HD
ENDBRANCH  11  15
BRANCH  12  17
ATOM     17  O3*   A A  1       25.803 -24.018   7.281  0.00  0.00    -0.386 OA
ATOM     18  H3*   A A  1       24.970 -24.497   7.114  0.00  0.00    +0.210 HD
ENDBRANCH  12  17
BRANCH  13  19
ATOM     19  C5*   A A  1       24.232 -20.686   6.625  0.00  0.00    +0.190 C 
BRANCH  19  20
ATOM     20  O5*   A A  1       23.436 -20.966   7.778  0.00  0.00    -0.392 OA
ATOM     21  H5*   A A  1       22.822 -21.678   7.515  0.00  0.00    +0.209 HD
ENDBRANCH  19  20
ENDBRANCH  13  19
ENDBRANCH   5  10
BRANCH   1  22
ATOM     22  N6    A A  1       32.349 -18.193   8.063  0.00  0.00    -0.341 N 
ATOM     23  H61   A A  1       33.061 -18.321   7.350  0.00  0.00    +0.144 HD
ATOM     24  H62   A A  1       31.798 -17.346   8.026  0.00  0.00    +0.144 HD
ENDBRANCH   1  22
TORSDOF 6
ENDMDL
MODEL 3
REMARK VINA RESULT:      -8.1      3.590      6.510
REMARK  Name = *****
REMARK                            x       y       z     vdW  Elec       q    Type
REMARK                         _______ _______ _______ _____ _____    ______ ____
ROOT
ATOM      1  C6    A A  1       30.379 -20.068   7.352  0.00  0.00    +0.147 A 
ATOM      2  C5    A A  1       29.067 -20.560   7.465  0.00  0.00    +0.147 A 
ATOM      3  N7    A A  1       28.494 -21.510   8.284  0.00  0.00    -0.231 NA
ATOM      4  C8    A A  1       27.229 -21.546   7.922  0.00  0.00    +0.203 A 
ATOM      5  N9    A A  1       26.956 -20.673   6.898  0.00  0.00    -0.285 N 
ATOM      6  C4    A A  1       28.128 -20.033   6.594  0.00  0.00    +0.167 A 
ATOM      7  N3    A A  1       28.336 -19.107   5.641  0.00  0.00    -0.216 NA
ATOM      8  C2    A A  1       29.627 -18.712   5.626  0.00  0.00    +0.225 A 
ATOM      9  N1    A A  1       30.641 -19.139   6.404  0.00  0.00    -0.219 NA
ENDROOT
BRANCH   5  10
ATOM     10  C1*   A A  1       25.647 -20.409   6.341  0.00  0.00    +0.253 C 
ATOM     11  C2*   A A  1       25.182 -21.277   5.160  0.00  0.00    +0.195 C 
ATOM     12  C3*   A A  1       23.680 -21.073   5.235  0.00  0.00    +0.178 C 
ATOM     13  C4*   A A  1       23.421 -21.016   6.743  0.00  0.00    +0.177 C 
ATOM     14  O4*   A A  1       24.648 -20.572   7.379  0.00  0.00    -0.346 OA
BRANCH  11  15
ATOM     15  O2*   A A  1       25.456 -22.672   5.327  0.00  0.00    -0.385 OA
ATOM     16  H2*   A A  1       24.590 -23.126   5.258  0.00  0.00    +0.210 HD
ENDBRANCH  11  15
BRANCH  12  17
ATOM     17  O3*   A A  1       23.364 -19.815   4.627  0.00  0.00    -0.386 OA
ATOM     18  H3*   A A  1       23.362 -19.947   3.662  0.00  0.00    +0.210 HD
ENDBRANCH  12  17
BRANCH  13  19
ATOM     19  C5*   A A  1       23.038 -22.374   7.337  0.00  0.00    +0.190 C 
BRANCH  19  20
ATOM     20  O5*   A A  1       22.566 -23.239   6.302  0.00  0.00    -0.392 OA
ATOM     21  H5*   A A  1       21.995 -22.690   5.732  0.00  0.00    +0.209 HD
ENDBRANCH  19  20
ENDBRANCH  13  19
ENDBRANCH   5  10
BRANCH   1  22
ATOM     22  N6    A A  1       31.428 -20.506   8.150  0.00  0.00    -0.341 N 
ATOM     23  H61   A A  1       31.328 -21.472   8.447  0.00  0.00    +0.144 HD
ATOM     24  H62   A A  1       32.326 -20.222   7.780  0.00  0.00    +0.144 HD
ENDBRANCH   1  22
TORSDOF 6
ENDMDL
MODEL 4
REMARK VINA RESULT:      -7.3      1.696      2.903
REMARK  Name = *****
REMARK                            x       y       z     vdW  Elec       q    Type
REMARK                         _______ _______ _______ _____ _____    ______ ____
ROOT
ATOM      1  C6    A A  1       24.234 -20.711   5.633  0.00  0.00    +0.147 A 
ATOM      2  C5    A A  1       25.015 -20.715   6.802  0.00  0.00    +0.147 A 
ATOM      3  N7    A A  1       24.723 -21.010   8.117  0.00  0.00    -0.231 NA
ATOM      4  C8    A A  1       25.857 -20.828   8.760  0.00  0.00    +0.203 A 
ATOM      5  N9    A A  1       26.867 -20.417   7.927  0.00  0.00    -0.285 N 
ATOM      6  C4    A A  1       26.341 -20.340   6.666  0.00  0.00    +0.167 A 
ATOM      7  N3    A A  1       26.964 -19.959   5.536  0.00  0.00    -0.216 NA
ATOM      8  C2    A A  1       26.118 -19.993   4.484  0.00  0.00    +0.225 A 
ATOM      9  N1    A A  1       24.813 -20.330   4.471  0.00  0.00    -0.219 NA
ENDROOT
BRANCH   5  10
ATOM     10  C1*   A A  1       28.250 -20.223   8.310  0.00  0.00    +0.253 C 
ATOM     11  C2*   A A  1       29.266 -21.297   7.890  0.00  0.00    +0.195 C 
ATOM     12  C3*   A A  1       30.562 -20.512   7.986  0.00  0.00    +0.178 C 
ATOM     13  C4*   A A  1       30.150 -19.120   7.499  0.00  0.00    +0.177 C 
ATOM     14  O4*   A A  1       28.727 -18.974   7.748  0.00  0.00    -0.346 OA
BRANCH  11  15
ATOM     15  O2*   A A  1       29.110 -21.744   6.538  0.00  0.00    -0.385 OA
ATOM     16  H2*   A A  1       29.398 -20.997   5.973  0.00  0.00    +0.210 HD
ENDBRANCH  11  15
BRANCH  12  17
ATOM     17  O3*   A A  1       30.959 -20.462   9.361  0.00  0.00    -0.386 OA
ATOM     18  H3*   A A  1       31.922 -20.606   9.394  0.00  0.00    +0.210 HD
ENDBRANCH  12  17
BRANCH  13  19
ATOM     19  C5*   A A  1       30.398 -18.910   6.002  0.00  0.00    +0.190 C 
BRANCH  19  20
ATOM     20  O5*   A A  1       29.429 -18.002   5.475  0.00  0.00    -0.392 OA
ATOM     21  H5*   A A  1       29.129 -18.388   4.630  0.00  0.00    +0.209 HD
ENDBRANCH  19  20
ENDBRANCH  13  19
ENDBRANCH   5  10
BRANCH   1  22
ATOM     22  N6    A A  1       22.889 -21.056   5.613  0.00  0.00    -0.341 N 
ATOM     23  H61   A A  1       22.337 -20.550   6.300  0.00  0.00    +0.144 HD
ATOM     24  H62   A A  1       22.527 -21.107   4.670  0.00  0.00    +0.144 HD
ENDBRANCH   1  22
TORSDOF 6
ENDMDL
MODEL 5
REMARK VINA RESULT:      -7.1      2.278      3.077
REMARK  Name = *****
REMARK                            x       y       z     vdW  Elec       q    Type
REMARK                         _______ _______ _______ _____ _____    ______ ____
ROOT
ATOM      1  C6    A A  1       23.551 -23.363   6.777  0.00  0.00    +0.147 A 
ATOM      2  C5    A A  1       24.421 -22.339   7.190  0.00  0.00    +0.147 A 
ATOM      3  N7    A A  1       24.210 -21.023   7.543  0.00  0.00    -0.231 NA
ATOM      4  C8    A A  1       25.407 -20.556   7.829  0.00  0.00    +0.203 A 
ATOM      5  N9    A A  1       26.387 -21.504   7.666  0.00  0.00    -0.285 N 
ATOM      6  C4    A A  1       25.767 -22.655   7.256  0.00  0.00    +0.167 A 
ATOM      7  N3    A A  1       26.339 -23.835   6.956  0.00  0.00    -0.216 NA
ATOM      8  C2    A A  1       25.410 -24.737   6.573  0.00  0.00    +0.225 A 
ATOM      9  N1    A A  1       24.078 -24.568   6.459  0.00  0.00    -0.219 NA
ENDROOT
BRANCH   5  10
ATOM     10  C1*   A A  1       27.788 -21.334   7.988  0.00  0.00    +0.253 C 
ATOM     11  C2*   A A  1       28.806 -21.469   6.844  0.00  0.00    +0.195 C 
ATOM     12  C3*   A A  1       29.994 -20.733   7.436  0.00  0.00    +0.178 C 
ATOM     13  C4*   A A  1       29.332 -19.587   8.206  0.00  0.00    +0.177 C 
ATOM     14  O4*   A A  1       27.988 -20.014   8.552  0.00  0.00    -0.346 OA
BRANCH  11  15
ATOM     15  O2*   A A  1       28.416 -20.799   5.640  0.00  0.00    -0.385 OA
ATOM     16  H2*   A A  1       28.653 -19.857   5.768  0.00  0.00    +0.210 HD
ENDBRANCH  11  15
BRANCH  12  17
ATOM     17  O3*   A A  1       30.668 -21.615   8.341  0.00  0.00    -0.386 OA
ATOM     18  H3*   A A  1       30.064 -22.354   8.536  0.00  0.00    +0.210 HD
ENDBRANCH  12  17
BRANCH  13  19
ATOM     19  C5*   A A  1       29.228 -18.296   7.387  0.00  0.00    +0.190 C 
BRANCH  19  20
ATOM     20  O5*   A A  1       30.125 -18.355   6.277  0.00  0.00    -0.392 OA
ATOM     21  H5*   A A  1       29.575 -18.544   5.494  0.00  0.00    +0.209 HD
ENDBRANCH  19  20
ENDBRANCH  13  19
ENDBRANCH   5  10
BRANCH   1  22
ATOM     22  N6    A A  1       22.178 -23.195   6.657  0.00  0.00    -0.341 N 
ATOM     23  H61   A A  1       21.809 -23.540   5.775  0.00  0.00    +0.144 HD
ATOM     24  H62   A A  1       21.690 -23.461   7.502  0.00  0.00    +0.144 HD
ENDBRANCH   1  22
TORSDOF 6
ENDMDL
MODEL 6
REMARK VINA RESULT:      -7.0      1.453      2.351
REMARK  Name = *****
REMARK                            x       y       z     vdW  Elec       q    Type
REMARK                         _______ _______ _______ _____ _____    ______ ____
ROOT
ATOM      1  C6    A A  1       24.497 -21.091   7.046  0.00  0.00    +0.147 A 
ATOM      2  C5    A A  1       25.658 -20.619   6.408  0.00  0.00    +0.147 A 
ATOM      3  N7    A A  1       25.870 -20.016   5.187  0.00  0.00    -0.231 NA
ATOM      4  C8    A A  1       27.169 -19.808   5.137  0.00  0.00    +0.203 A 
ATOM      5  N9    A A  1       27.811 -20.260   6.264  0.00  0.00    -0.285 N 
ATOM      6  C4    A A  1       26.852 -20.783   7.089  0.00  0.00    +0.167 A 
ATOM      7  N3    A A  1       27.027 -21.357   8.293  0.00  0.00    -0.216 NA
ATOM      8  C2    A A  1       25.848 -21.770   8.806  0.00  0.00    +0.225 A 
ATOM      9  N1    A A  1       24.620 -21.681   8.257  0.00  0.00    -0.219 NA
ENDROOT
BRANCH   5  10
ATOM     10  C1*   A A  1       29.220 -20.095   6.555  0.00  0.00    +0.253 C 
ATOM     11  C2*   A A  1       29.614 -19.051   7.612  0.00  0.00    +0.195 C 
ATOM     12  C3*   A A  1       30.999 -19.543   7.991  0.00  0.00    +0.178 C 
ATOM     13  C4*   A A  1       30.844 -21.065   7.935  0.00  0.00    +0.177 C 
ATOM     14  O4*   A A  1       29.759 -21.360   7.015  0.00  0.00    -0.346 OA
BRANCH  11  15
ATOM     15  O2*   A A  1       28.792 -19.076   8.784  0.00  0.00    -0.385 OA
ATOM     16  H2*   A A  1       29.304 -19.565   9.461  0.00  0.00    +0.210 HD
ENDBRANCH  11  15
BRANCH  12  17
ATOM     17  O3*   A A  1       31.925 -19.100   6.992  0.00  0.00    -0.386 OA
ATOM     18  H3*   A A  1       31.585 -18.264   6.625  0.00  0.00    +0.210 HD
ENDBRANCH  12  17
BRANCH  13  19
ATOM     19  C5*   A A  1       30.501 -21.683   9.294  0.00  0.00    +0.190 C 
BRANCH  19  20
ATOM     20  O5*   A A  1       31.702 -22.036   9.981  0.00  0.00    -0.392 OA
ATOM     21  H5*   A A  1       31.422 -22.451  10.819  0.00  0.00    +0.209 HD
ENDBRANCH  19  20
ENDBRANCH  13  19
ENDBRANCH   5  10
BRANCH   1  22
ATOM     22  N6    A A  1       23.230 -21.003   6.486  0.00  0.00    -0.341 N 
ATOM     23  H61   A A  1       23.215 -21.228   5.495  0.00  0.00    +0.144 HD
ATOM     24  H62   A A  1       22.528 -21.434   7.072  0.00  0.00    +0.144 HD
ENDBRANCH   1  22
TORSDOF 6
ENDMDL
MODEL 7
REMARK VINA RESULT:      -7.0      1.648      3.160
REMARK  Name = *****
REMARK                            x       y       z     vdW  Elec       q    Type
REMARK                         _______ _______ _______ _____ _____    ______ ____
ROOT
ATOM      1  C6    A A  1       23.971 -21.484   5.683  0.00  0.00    +0.147 A 
ATOM      2  C5    A A  1       25.172 -21.557   6.410  0.00  0.00    +0.147 A 
ATOM      3  N7    A A  1       25.531 -22.242   7.552  0.00  0.00    -0.231 NA
ATOM      4  C8    A A  1       26.788 -21.911   7.760  0.00  0.00    +0.203 A 
ATOM      5  N9    A A  1       27.258 -21.034   6.815  0.00  0.00    -0.285 N 
ATOM      6  C4    A A  1       26.231 -20.798   5.940  0.00  0.00    +0.167 A 
ATOM      7  N3    A A  1       26.233 -19.985   4.868  0.00  0.00    -0.216 NA
ATOM      8  C2    A A  1       25.031 -19.996   4.253  0.00  0.00    +0.225 A 
ATOM      9  N1    A A  1       23.920 -20.677   4.599  0.00  0.00    -0.219 NA
ENDROOT
BRANCH   5  10
ATOM     10  C1*   A A  1       28.620 -20.556   6.711  0.00  0.00    +0.253 C 
ATOM     11  C2*   A A  1       28.996 -19.289   7.496  0.00  0.00    +0.195 C 
ATOM     12  C3*   A A  1       30.505 -19.434   7.560  0.00  0.00    +0.178 C 
ATOM     13  C4*   A A  1       30.693 -20.944   7.730  0.00  0.00    +0.177 C 
ATOM     14  O4*   A A  1       29.524 -21.595   7.164  0.00  0.00    -0.346 OA
BRANCH  11  15
ATOM     15  O2*   A A  1       28.489 -19.267   8.835  0.00  0.00    -0.385 OA
ATOM     16  H2*   A A  1       29.020 -18.598   9.313  0.00  0.00    +0.210 HD
ENDBRANCH  11  15
BRANCH  12  17
ATOM     17  O3*   A A  1       31.055 -19.002   6.310  0.00  0.00    -0.386 OA
ATOM     18  H3*   A A  1       31.823 -18.436   6.507  0.00  0.00    +0.210 HD
ENDBRANCH  12  17
BRANCH  13  19
ATOM     19  C5*   A A  1       30.816 -21.372   9.195  0.00  0.00    +0.190 C 
BRANCH  19  20
ATOM     20  O5*   A A  1       32.193 -21.536   9.537  0.00  0.00    -0.392 OA
ATOM     21  H5*   A A  1       32.531 -20.642   9.734  0.00  0.00    +0.209 HD
ENDBRANCH  19  20
ENDBRANCH  13  19
ENDBRANCH   5  10
BRANCH   1  22
ATOM     22  N6    A A  1       22.823 -22.182   6.035  0.00  0.00    -0.341 N 
ATOM     23  H61   A A  1       22.081 -22.103   5.346  0.00  0.00    +0.144 HD
ATOM     24  H62   A A  1       23.037 -23.106   6.385  0.00  0.00    +0.144 HD
ENDBRANCH   1  22
TORSDOF 6
ENDMDL
MODEL 8
REMARK VINA RESULT:      -7.0      1.327      1.327
REMARK  Name = *****
REMARK                            x       y       z     vdW  Elec       q    Type
REMARK                         _______ _______ _______ _____ _____    ______ ____
ROOT
ATOM      1  C6    A A  1       25.032 -21.310   5.377  0.00  0.00    +0.147 A 
ATOM      2  C5    A A  1       26.256 -20.691   5.689  0.00  0.00    +0.147 A 
ATOM      3  N7    A A  1       26.979 -19.693   5.073  0.00  0.00    -0.231 NA
ATOM      4  C8    A A  1       28.049 -19.542   5.825  0.00  0.00    +0.203 A 
ATOM      5  N9    A A  1       28.060 -20.404   6.893  0.00  0.00    -0.285 N 
ATOM      6  C4    A A  1       26.913 -21.148   6.819  0.00  0.00    +0.167 A 
ATOM      7  N3    A A  1       26.515 -22.131   7.647  0.00  0.00    -0.216 NA
ATOM      8  C2    A A  1       25.333 -22.649   7.248  0.00  0.00    +0.225 A 
ATOM      9  N1    A A  1       24.590 -22.308   6.176  0.00  0.00    -0.219 NA
ENDROOT
BRANCH   5  10
ATOM     10  C1*   A A  1       29.046 -20.423   7.953  0.00  0.00    +0.253 C 
ATOM     11  C2*   A A  1       30.521 -20.589   7.554  0.00  0.00    +0.195 C 
ATOM     12  C3*   A A  1       31.211 -20.043   8.791  0.00  0.00    +0.178 C 
ATOM     13  C4*   A A  1       30.294 -18.890   9.208  0.00  0.00    +0.177 C 
ATOM     14  O4*   A A  1       28.966 -19.182   8.698  0.00  0.00    -0.346 OA
BRANCH  11  15
ATOM     15  O2*   A A  1       30.910 -19.788   6.432  0.00  0.00    -0.385 OA
ATOM     16  H2*   A A  1       30.261 -19.056   6.387  0.00  0.00    +0.210 HD
ENDBRANCH  11  15
BRANCH  12  17
ATOM     17  O3*   A A  1       31.213 -21.065   9.795  0.00  0.00    -0.386 OA
ATOM     18  H3*   A A  1       31.663 -21.844   9.421  0.00  0.00    +0.210 HD
ENDBRANCH  12  17
BRANCH  13  19
ATOM     19  C5*   A A  1       30.737 -17.537   8.641  0.00  0.00    +0.190 C 
BRANCH  19  20
ATOM     20  O5*   A A  1       32.104 -17.609   8.233  0.00  0.00    -0.392 OA
ATOM     21  H5*   A A  1       32.189 -18.432   7.716  0.00  0.00    +0.209 HD
ENDBRANCH  19  20
ENDBRANCH  13  19
ENDBRANCH   5  10
BRANCH   1  22
ATOM     22  N6    A A  1       24.263 -20.964   4.273  0.00  0.00    -0.341 N 
ATOM     23  H61   A A  1       24.724 -21.158   3.389  0.00  0.00    +0.144 HD
ATOM     24  H62   A A  1       23.303 -21.265   4.374  0.00  0.00    +0.144 HD
ENDBRANCH   1  22
TORSDOF 6
ENDMDL
MODEL 9
REMARK VINA RESULT:      -6.9      6.045      8.064
REMARK  Name = *****
REMARK                            x       y       z     vdW  Elec       q    Type
REMARK                         _______ _______ _______ _____ _____    ______ ____
ROOT
ATOM      1  C6    A A  1       24.327 -21.208   7.406  0.00  0.00    +0.147 A 
ATOM      2  C5    A A  1       24.067 -22.516   6.960  0.00  0.00    +0.147 A 
ATOM      3  N7    A A  1       22.911 -23.263   6.888  0.00  0.00    -0.231 NA
ATOM      4  C8    A A  1       23.291 -24.421   6.391  0.00  0.00    +0.203 A 
ATOM      5  N9    A A  1       24.642 -24.465   6.150  0.00  0.00    -0.285 N 
ATOM      6  C4    A A  1       25.153 -23.247   6.510  0.00  0.00    +0.167 A 
ATOM      7  N3    A A  1       26.437 -22.847   6.464  0.00  0.00    -0.216 NA
ATOM      8  C2    A A  1       26.564 -21.581   6.915  0.00  0.00    +0.225 A 
ATOM      9  N1    A A  1       25.604 -20.760   7.384  0.00  0.00    -0.219 NA
ENDROOT
BRANCH   5  10
ATOM     10  C1*   A A  1       25.352 -25.558   5.520  0.00  0.00    +0.253 C 
ATOM     11  C2*   A A  1       26.384 -26.322   6.365  0.00  0.00    +0.195 C 
ATOM     12  C3*   A A  1       26.482 -27.620   5.584  0.00  0.00    +0.178 C 
ATOM     13  C4*   A A  1       25.041 -27.844   5.119  0.00  0.00    +0.177 C 
ATOM     14  O4*   A A  1       24.393 -26.546   5.064  0.00  0.00    -0.346 OA
BRANCH  11  15
ATOM     15  O2*   A A  1       25.935 -26.627   7.690  0.00  0.00    -0.385 OA
ATOM     16  H2*   A A  1       26.563 -26.182   8.296  0.00  0.00    +0.210 HD
ENDBRANCH  11  15
BRANCH  12  17
ATOM     17  O3*   A A  1       27.341 -27.407   4.458  0.00  0.00    -0.386 OA
ATOM     18  H3*   A A  1       26.894 -27.774   3.674  0.00  0.00    +0.210 HD
ENDBRANCH  12  17
BRANCH  13  19
ATOM     19  C5*   A A  1       24.237 -28.739   6.068  0.00  0.00    +0.190 C 
BRANCH  19  20
ATOM     20  O5*   A A  1       23.206 -29.410   5.342  0.00  0.00    -0.392 OA
ATOM     21  H5*   A A  1       22.491 -29.580   5.983  0.00  0.00    +0.209 HD
ENDBRANCH  19  20
ENDBRANCH  13  19
ENDBRANCH   5  10
BRANCH   1  22
ATOM     22  N6    A A  1       23.342 -20.358   7.891  0.00  0.00    -0.341 N 
ATOM     23  H61   A A  1       22.572 -20.850   8.335  0.00  0.00    +0.144 HD
ATOM     24  H62   A A  1       23.736 -19.568   8.385  0.00  0.00    +0.144 HD
ENDBRANCH   1  22
TORSDOF 6
ENDMDL
