MODEL 1
REMARK VINA RESULT:      -5.9      0.000      0.000
REMARK  Name = *****
REMARK                            x       y       z     vdW  Elec       q    Type
REMARK                         _______ _______ _______ _____ _____    ______ ____
ROOT
ATOM      1  C   LIG    1       25.450 -28.674   7.546  0.00  0.00    +0.073 C 
ATOM      2  C   LIG    1       24.885 -30.021   8.007  0.00  0.00    +0.166 C 
ATOM      3  O   LIG    1       25.826 -30.591   8.998  0.00  0.00    -0.332 OA
ATOM      4  C   LIG    1       24.976 -30.961  10.093  0.00  0.00    +0.164 C 
ATOM      5  C   LIG    1       23.988 -29.811   9.992  0.00  0.00    +0.162 C 
ATOM      6  C   LIG    1       23.190 -29.857  11.286  0.00  0.00    +0.039 C 
ATOM      7  C   LIG    1       24.436 -29.800  12.197  0.00  0.00    +0.004 C 
ATOM      8  C   LIG    1       24.426 -29.773  13.719  0.00  0.00    +0.002 C 
ATOM      9  C   LIG    1       25.852 -29.323  14.203  0.00  0.00    +0.035 C 
ATOM     10  C   LIG    1       27.031 -30.053  13.437  0.00  0.00    +0.120 C 
ATOM     11  C   LIG    1       26.821 -30.393  11.929  0.00  0.00    +0.042 C 
ATOM     12  C   LIG    1       26.082 -27.749  14.329  0.00  0.00    +0.016 C 
ATOM     13  C   LIG    1       24.817 -26.986  14.779  0.00  0.00    -0.023 C 
ATOM     14  C   LIG    1       24.911 -25.647  14.965  0.00  0.00    +0.053 C 
ATOM     15  C   LIG    1       25.367 -24.971  13.689  0.00  0.00    +0.179 C 
ATOM     16  C   LIG    1       26.220 -25.774  12.762  0.00  0.00    +0.047 C 
ATOM     17  O   LIG    1       25.139 -23.786  13.485  0.00  0.00    -0.288 OA
ATOM     18  C   LIG    1       23.507 -27.456  14.187  0.00  0.00    +0.193 C 
ATOM     19  F   LIG    1       23.444 -27.148  12.863  0.00  0.00    -0.241 F 
ATOM     20  C   LIG    1       27.196 -27.556  15.406  0.00  0.00    +0.020 C 
ATOM     21  C   LIG    1       26.575 -27.036  13.066  0.00  0.00    -0.012 C 
ATOM     22  C   LIG    1       23.307 -28.945  14.349  0.00  0.00    +0.045 C 
ATOM     23  C   LIG    1       25.406 -30.897  11.616  0.00  0.00    +0.012 C 
ATOM     24  C   LIG    1       25.178 -32.275  12.310  0.00  0.00    +0.015 C 
ATOM     25  O   LIG    1       23.584 -29.843   8.649  0.00  0.00    -0.343 OA
ATOM     26  C   LIG    1       24.714 -30.938   6.800  0.00  0.00    +0.073 C 
ENDROOT
BRANCH  10  27
ATOM     27  O   LIG    1       27.331 -31.277  14.118  0.00  0.00    -0.391 OA
ATOM     28  H   LIG    1       26.538 -31.554  14.608  0.00  0.00    +0.210 HD
ENDBRANCH  10  27
BRANCH   4  29
ATOM     29  C   LIG    1       24.385 -32.347   9.706  0.00  0.00    +0.193 C 
ATOM     30  O   LIG    1       23.201 -32.657   9.872  0.00  0.00    -0.292 OA
BRANCH  29  31
ATOM     31  C   LIG    1       25.363 -33.373   9.127  0.00  0.00    +0.233 C 
BRANCH  31  32
ATOM     32  O   LIG    1       26.697 -33.093   9.531  0.00  0.00    -0.387 OA
ATOM     33  H   LIG    1       27.261 -33.297   8.758  0.00  0.00    +0.210 HD
ENDBRANCH  31  32
ENDBRANCH  29  31
ENDBRANCH   4  29
TORSDOF 4
ENDMDL
MODEL 2
REMARK VINA RESULT:      -5.4      2.322      2.849
REMARK  Name = *****
REMARK                            x       y       z     vdW  Elec       q    Type
REMARK                         _______ _______ _______ _____ _____    ______ ____
ROOT
ATOM      1  C   LIG    1       24.731 -28.180   7.275  0.00  0.00    +0.073 C 
ATOM      2  C   LIG    1       24.886 -29.702   7.188  0.00  0.00    +0.166 C 
ATOM      3  O   LIG    1       25.773 -30.130   8.293  0.00  0.00    -0.332 OA
ATOM      4  C   LIG    1       25.054 -31.214   8.899  0.00  0.00    +0.164 C 
ATOM      5  C   LIG    1       23.649 -30.665   8.714  0.00  0.00    +0.162 C 
ATOM      6  C   LIG    1       22.763 -31.534   9.592  0.00  0.00    +0.039 C 
ATOM      7  C   LIG    1       23.586 -31.288  10.876  0.00  0.00    +0.004 C 
ATOM      8  C   LIG    1       23.268 -31.841  12.258  0.00  0.00    +0.002 C 
ATOM      9  C   LIG    1       24.116 -31.034  13.307  0.00  0.00    +0.035 C 
ATOM     10  C   LIG    1       25.625 -30.831  12.868  0.00  0.00    +0.120 C 
ATOM     11  C   LIG    1       25.923 -30.635  11.349  0.00  0.00    +0.042 C 
ATOM     12  C   LIG    1       23.451 -29.691  13.858  0.00  0.00    +0.016 C 
ATOM     13  C   LIG    1       21.915 -29.787  13.987  0.00  0.00    -0.023 C 
ATOM     14  C   LIG    1       21.250 -28.720  14.492  0.00  0.00    +0.053 C 
ATOM     15  C   LIG    1       21.516 -27.490  13.651  0.00  0.00    +0.179 C 
ATOM     16  C   LIG    1       22.825 -27.427  12.934  0.00  0.00    +0.047 C 
ATOM     17  O   LIG    1       20.742 -26.542  13.652  0.00  0.00    -0.288 OA
ATOM     18  C   LIG    1       21.194 -30.519  12.878  0.00  0.00    +0.193 C 
ATOM     19  F   LIG    1       21.237 -29.798  11.724  0.00  0.00    -0.241 F 
ATOM     20  C   LIG    1       24.061 -29.453  15.275  0.00  0.00    +0.020 C 
ATOM     21  C   LIG    1       23.727 -28.421  13.051  0.00  0.00    -0.012 C 
ATOM     22  C   LIG    1       21.784 -31.886  12.617  0.00  0.00    +0.045 C 
ATOM     23  C   LIG    1       25.080 -31.546  10.447  0.00  0.00    +0.012 C 
ATOM     24  C   LIG    1       25.485 -33.033  10.684  0.00  0.00    +0.015 C 
ATOM     25  O   LIG    1       23.592 -30.363   7.345  0.00  0.00    -0.343 OA
ATOM     26  C   LIG    1       25.463 -30.074   5.825  0.00  0.00    +0.073 C 
ENDROOT
BRANCH  10  27
ATOM     27  O   LIG    1       26.387 -31.957  13.317  0.00  0.00    -0.391 OA
ATOM     28  H   LIG    1       27.137 -31.627  13.841  0.00  0.00    +0.210 HD
ENDBRANCH  10  27
BRANCH   4  29
ATOM     29  C   LIG    1       25.372 -32.461   8.025  0.00  0.00    +0.193 C 
ATOM     30  O   LIG    1       24.508 -33.140   7.461  0.00  0.00    -0.292 OA
BRANCH  29  31
ATOM     31  C   LIG    1       26.846 -32.861   7.910  0.00  0.00    +0.233 C 
BRANCH  31  32
ATOM     32  O   LIG    1       27.448 -32.273   6.764  0.00  0.00    -0.387 OA
ATOM     33  H   LIG    1       26.849 -31.551   6.486  0.00  0.00    +0.210 HD
ENDBRANCH  31  32
ENDBRANCH  29  31
ENDBRANCH   4  29
TORSDOF 4
ENDMDL
MODEL 3
REMARK VINA RESULT:      -5.1      2.534      3.249
REMARK  Name = *****
REMARK                            x       y       z     vdW  Elec       q    Type
REMARK                         _______ _______ _______ _____ _____    ______ ____
ROOT
ATOM      1  C   LIG    1       24.785 -28.676   7.048  0.00  0.00    +0.073 C 
ATOM      2  C   LIG    1       24.946 -30.199   7.008  0.00  0.00    +0.166 C 
ATOM      3  O   LIG    1       25.789 -30.594   8.159  0.00  0.00    -0.332 OA
ATOM      4  C   LIG    1       25.048 -31.664   8.765  0.00  0.00    +0.164 C 
ATOM      5  C   LIG    1       23.651 -31.124   8.509  0.00  0.00    +0.162 C 
ATOM      6  C   LIG    1       22.732 -31.972   9.374  0.00  0.00    +0.039 C 
ATOM      7  C   LIG    1       23.502 -31.689  10.682  0.00  0.00    +0.004 C 
ATOM      8  C   LIG    1       23.130 -32.205  12.065  0.00  0.00    +0.002 C 
ATOM      9  C   LIG    1       23.934 -31.367  13.126  0.00  0.00    +0.035 C 
ATOM     10  C   LIG    1       25.458 -31.171  12.742  0.00  0.00    +0.120 C 
ATOM     11  C   LIG    1       25.816 -31.016  11.232  0.00  0.00    +0.042 C 
ATOM     12  C   LIG    1       23.244 -30.012  13.613  0.00  0.00    +0.016 C 
ATOM     13  C   LIG    1       21.704 -30.109  13.682  0.00  0.00    -0.023 C 
ATOM     14  C   LIG    1       21.017 -29.030  14.130  0.00  0.00    +0.053 C 
ATOM     15  C   LIG    1       21.315 -27.823  13.267  0.00  0.00    +0.179 C 
ATOM     16  C   LIG    1       22.652 -27.776  12.603  0.00  0.00    +0.047 C 
ATOM     17  O   LIG    1       20.539 -26.878  13.212  0.00  0.00    -0.288 OA
ATOM     18  C   LIG    1       21.030 -30.873  12.565  0.00  0.00    +0.193 C 
ATOM     19  F   LIG    1       21.117 -30.183  11.395  0.00  0.00    -0.241 F 
ATOM     20  C   LIG    1       23.796 -29.734  15.046  0.00  0.00    +0.020 C 
ATOM     21  C   LIG    1       23.550 -28.763  12.783  0.00  0.00    -0.012 C 
ATOM     22  C   LIG    1       21.633 -32.245  12.366  0.00  0.00    +0.045 C 
ATOM     23  C   LIG    1       25.013 -31.953  10.321  0.00  0.00    +0.012 C 
ATOM     24  C   LIG    1       25.411 -33.432  10.615  0.00  0.00    +0.015 C 
ATOM     25  O   LIG    1       23.648 -30.860   7.131  0.00  0.00    -0.343 OA
ATOM     26  C   LIG    1       25.579 -30.606   5.680  0.00  0.00    +0.073 C 
ENDROOT
BRANCH  10  27
ATOM     27  O   LIG    1       26.204 -32.283  13.251  0.00  0.00    -0.391 OA
ATOM     28  H   LIG    1       26.938 -31.937  13.787  0.00  0.00    +0.210 HD
ENDBRANCH  10  27
BRANCH   4  29
ATOM     29  C   LIG    1       25.404 -32.933   7.938  0.00  0.00    +0.193 C 
ATOM     30  O   LIG    1       26.554 -33.225   7.594  0.00  0.00    -0.292 OA
BRANCH  29  31
ATOM     31  C   LIG    1       24.235 -33.825   7.512  0.00  0.00    +0.233 C 
BRANCH  31  32
ATOM     32  O   LIG    1       23.954 -33.672   6.126  0.00  0.00    -0.387 OA
ATOM     33  H   LIG    1       22.990 -33.516   6.063  0.00  0.00    +0.210 HD
ENDBRANCH  31  32
ENDBRANCH  29  31
ENDBRANCH   4  29
TORSDOF 4
ENDMDL
MODEL 4
REMARK VINA RESULT:      -5.0      3.379      6.820
REMARK  Name = *****
REMARK                            x       y       z     vdW  Elec       q    Type
REMARK                         _______ _______ _______ _____ _____    ______ ____
ROOT
ATOM      1  C   LIG    1       21.747 -26.339  13.273  0.00  0.00    +0.073 C 
ATOM      2  C   LIG    1       20.928 -27.394  14.023  0.00  0.00    +0.166 C 
ATOM      3  O   LIG    1       20.226 -28.221  13.015  0.00  0.00    -0.332 OA
ATOM      4  C   LIG    1       20.520 -29.566  13.422  0.00  0.00    +0.164 C 
ATOM      5  C   LIG    1       21.938 -29.333  13.916  0.00  0.00    +0.162 C 
ATOM      6  C   LIG    1       22.533 -30.721  14.089  0.00  0.00    +0.039 C 
ATOM      7  C   LIG    1       22.222 -31.166  12.643  0.00  0.00    +0.004 C 
ATOM      8  C   LIG    1       22.577 -32.514  12.030  0.00  0.00    +0.002 C 
ATOM      9  C   LIG    1       22.436 -32.386  10.469  0.00  0.00    +0.035 C 
ATOM     10  C   LIG    1       21.111 -31.642  10.021  0.00  0.00    +0.120 C 
ATOM     11  C   LIG    1       20.585 -30.482  10.922  0.00  0.00    +0.042 C 
ATOM     12  C   LIG    1       23.728 -31.862   9.691  0.00  0.00    +0.016 C 
ATOM     13  C   LIG    1       25.052 -32.337  10.330  0.00  0.00    -0.023 C 
ATOM     14  C   LIG    1       26.212 -31.990   9.723  0.00  0.00    +0.053 C 
ATOM     15  C   LIG    1       26.322 -30.484   9.621  0.00  0.00    +0.179 C 
ATOM     16  C   LIG    1       25.045 -29.714   9.538  0.00  0.00    +0.047 C 
ATOM     17  O   LIG    1       27.409 -29.935   9.497  0.00  0.00    -0.288 OA
ATOM     18  C   LIG    1       25.101 -32.344  11.841  0.00  0.00    +0.193 C 
ATOM     19  F   LIG    1       25.112 -31.072  12.324  0.00  0.00    -0.241 F 
ATOM     20  C   LIG    1       23.630 -32.442   8.245  0.00  0.00    +0.020 C 
ATOM     21  C   LIG    1       23.855 -30.344   9.540  0.00  0.00    -0.012 C 
ATOM     22  C   LIG    1       23.932 -33.084  12.448  0.00  0.00    +0.045 C 
ATOM     23  C   LIG    1       20.711 -30.778  12.422  0.00  0.00    +0.012 C 
ATOM     24  C   LIG    1       19.766 -31.958  12.801  0.00  0.00    +0.015 C 
ATOM     25  O   LIG    1       21.802 -28.261  14.811  0.00  0.00    -0.343 OA
ATOM     26  C   LIG    1       19.948 -26.700  14.963  0.00  0.00    +0.073 C 
ENDROOT
BRANCH  10  27
ATOM     27  O   LIG    1       20.061 -32.609   9.904  0.00  0.00    -0.391 OA
ATOM     28  H   LIG    1       19.868 -32.736   8.960  0.00  0.00    +0.210 HD
ENDBRANCH  10  27
BRANCH   4  29
ATOM     29  C   LIG    1       19.496 -29.888  14.549  0.00  0.00    +0.193 C 
ATOM     30  O   LIG    1       19.738 -30.638  15.500  0.00  0.00    -0.292 OA
BRANCH  29  31
ATOM     31  C   LIG    1       18.109 -29.253  14.418  0.00  0.00    +0.233 C 
BRANCH  31  32
ATOM     32  O   LIG    1       17.451 -29.701  13.240  0.00  0.00    -0.387 OA
ATOM     33  H   LIG    1       17.334 -30.666  13.346  0.00  0.00    +0.210 HD
ENDBRANCH  31  32
ENDBRANCH  29  31
ENDBRANCH   4  29
TORSDOF 4
ENDMDL
MODEL 5
REMARK VINA RESULT:      -4.8      3.310      5.752
REMARK  Name = *****
REMARK                            x       y       z     vdW  Elec       q    Type
REMARK                         _______ _______ _______ _____ _____    ______ ____
ROOT
ATOM      1  C   LIG    1       23.652 -31.729   6.263  0.00  0.00    +0.073 C 
ATOM      2  C   LIG    1       24.873 -31.862   7.178  0.00  0.00    +0.166 C 
ATOM      3  O   LIG    1       24.829 -30.749   8.154  0.00  0.00    -0.332 OA
ATOM      4  C   LIG    1       25.027 -31.403   9.416  0.00  0.00    +0.164 C 
ATOM      5  C   LIG    1       24.266 -32.683   9.114  0.00  0.00    +0.162 C 
ATOM      6  C   LIG    1       24.091 -33.370  10.459  0.00  0.00    +0.039 C 
ATOM      7  C   LIG    1       23.425 -32.149  11.131  0.00  0.00    +0.004 C 
ATOM      8  C   LIG    1       22.908 -32.092  12.562  0.00  0.00    +0.002 C 
ATOM      9  C   LIG    1       21.977 -30.831  12.689  0.00  0.00    +0.035 C 
ATOM     10  C   LIG    1       22.589 -29.533  12.021  0.00  0.00    +0.120 C 
ATOM     11  C   LIG    1       23.442 -29.711  10.727  0.00  0.00    +0.042 C 
ATOM     12  C   LIG    1       20.443 -31.055  12.305  0.00  0.00    +0.016 C 
ATOM     13  C   LIG    1       19.926 -32.462  12.677  0.00  0.00    -0.023 C 
ATOM     14  C   LIG    1       18.622 -32.745  12.440  0.00  0.00    +0.053 C 
ATOM     15  C   LIG    1       18.305 -32.566  10.971  0.00  0.00    +0.179 C 
ATOM     16  C   LIG    1       19.119 -31.565  10.218  0.00  0.00    +0.047 C 
ATOM     17  O   LIG    1       17.350 -33.132  10.456  0.00  0.00    -0.288 OA
ATOM     18  C   LIG    1       20.880 -33.610  12.439  0.00  0.00    +0.193 C 
ATOM     19  F   LIG    1       21.047 -33.824  11.105  0.00  0.00    -0.241 F 
ATOM     20  C   LIG    1       19.634 -29.992  13.112  0.00  0.00    +0.020 C 
ATOM     21  C   LIG    1       20.079 -30.849  10.833  0.00  0.00    -0.012 C 
ATOM     22  C   LIG    1       22.234 -33.368  13.064  0.00  0.00    +0.045 C 
ATOM     23  C   LIG    1       24.365 -30.936  10.776  0.00  0.00    +0.012 C 
ATOM     24  C   LIG    1       25.452 -30.726  11.874  0.00  0.00    +0.015 C 
ATOM     25  O   LIG    1       24.835 -33.127   7.910  0.00  0.00    -0.343 OA
ATOM     26  C   LIG    1       26.144 -31.822   6.335  0.00  0.00    +0.073 C 
ENDROOT
BRANCH  10  27
ATOM     27  O   LIG    1       23.405 -28.862  12.988  0.00  0.00    -0.391 OA
ATOM     28  H   LIG    1       22.933 -28.065  13.284  0.00  0.00    +0.210 HD
ENDBRANCH  10  27
BRANCH   4  29
ATOM     29  C   LIG    1       26.567 -31.592   9.546  0.00  0.00    +0.193 C 
ATOM     30  O   LIG    1       27.130 -32.689   9.479  0.00  0.00    -0.292 OA
BRANCH  29  31
ATOM     31  C   LIG    1       27.393 -30.330   9.810  0.00  0.00    +0.233 C 
BRANCH  31  32
ATOM     32  O   LIG    1       27.029 -29.284   8.918  0.00  0.00    -0.387 OA
ATOM     33  H   LIG    1       26.819 -29.718   8.066  0.00  0.00    +0.210 HD
ENDBRANCH  31  32
ENDBRANCH  29  31
ENDBRANCH   4  29
TORSDOF 4
ENDMDL
MODEL 6
REMARK VINA RESULT:      -4.6      3.076      5.129
REMARK  Name = *****
REMARK                            x       y       z     vdW  Elec       q    Type
REMARK                         _______ _______ _______ _____ _____    ______ ____
ROOT
ATOM      1  C   LIG    1       20.234 -26.852  14.343  0.00  0.00    +0.073 C 
ATOM      2  C   LIG    1       19.879 -28.339  14.242  0.00  0.00    +0.166 C 
ATOM      3  O   LIG    1       20.372 -28.833  12.936  0.00  0.00    -0.332 OA
ATOM      4  C   LIG    1       21.092 -30.027  13.280  0.00  0.00    +0.164 C 
ATOM      5  C   LIG    1       21.661 -29.556  14.607  0.00  0.00    +0.162 C 
ATOM      6  C   LIG    1       22.725 -30.580  14.970  0.00  0.00    +0.039 C 
ATOM      7  C   LIG    1       23.494 -30.431  13.639  0.00  0.00    +0.004 C 
ATOM      8  C   LIG    1       24.775 -31.163  13.264  0.00  0.00    +0.002 C 
ATOM      9  C   LIG    1       25.405 -30.429  12.024  0.00  0.00    +0.035 C 
ATOM     10  C   LIG    1       24.344 -30.075  10.903  0.00  0.00    +0.120 C 
ATOM     11  C   LIG    1       22.904 -29.682  11.358  0.00  0.00    +0.042 C 
ATOM     12  C   LIG    1       26.379 -29.209  12.356  0.00  0.00    +0.016 C 
ATOM     13  C   LIG    1       27.197 -29.422  13.648  0.00  0.00    -0.023 C 
ATOM     14  C   LIG    1       28.093 -28.469  14.000  0.00  0.00    +0.053 C 
ATOM     15  C   LIG    1       27.400 -27.133  14.168  0.00  0.00    +0.179 C 
ATOM     16  C   LIG    1       26.170 -26.899  13.353  0.00  0.00    +0.047 C 
ATOM     17  O   LIG    1       27.891 -26.247  14.853  0.00  0.00    -0.288 OA
ATOM     18  C   LIG    1       26.466 -30.066  14.804  0.00  0.00    +0.193 C 
ATOM     19  F   LIG    1       25.536 -29.213  15.315  0.00  0.00    -0.241 F 
ATOM     20  C   LIG    1       27.364 -29.098  11.149  0.00  0.00    +0.020 C 
ATOM     21  C   LIG    1       25.716 -27.836  12.499  0.00  0.00    -0.012 C 
ATOM     22  C   LIG    1       25.777 -31.350  14.402  0.00  0.00    +0.045 C 
ATOM     23  C   LIG    1       22.386 -30.536  12.524  0.00  0.00    +0.012 C 
ATOM     24  C   LIG    1       22.203 -32.010  12.049  0.00  0.00    +0.015 C 
ATOM     25  O   LIG    1       20.533 -29.100  15.305  0.00  0.00    -0.343 OA
ATOM     26  C   LIG    1       18.369 -28.509  14.375  0.00  0.00    +0.073 C 
ENDROOT
BRANCH  10  27
ATOM     27  O   LIG    1       24.226 -31.193  10.014  0.00  0.00    -0.391 OA
ATOM     28  H   LIG    1       23.421 -31.684  10.249  0.00  0.00    +0.210 HD
ENDBRANCH  10  27
BRANCH   4  29
ATOM     29  C   LIG    1       20.010 -31.138  13.407  0.00  0.00    +0.193 C 
ATOM     30  O   LIG    1       19.986 -31.969  14.321  0.00  0.00    -0.292 OA
BRANCH  29  31
ATOM     31  C   LIG    1       18.955 -31.200  12.299  0.00  0.00    +0.233 C 
BRANCH  31  32
ATOM     32  O   LIG    1       19.416 -30.558  11.117  0.00  0.00    -0.387 OA
ATOM     33  H   LIG    1       18.688 -29.973  10.826  0.00  0.00    +0.210 HD
ENDBRANCH  31  32
ENDBRANCH  29  31
ENDBRANCH   4  29
TORSDOF 4
ENDMDL
MODEL 7
REMARK VINA RESULT:      -4.6      1.842      2.677
REMARK  Name = *****
REMARK                            x       y       z     vdW  Elec       q    Type
REMARK                         _______ _______ _______ _____ _____    ______ ____
ROOT
ATOM      1  C   LIG    1       24.391 -26.720   6.756  0.00  0.00    +0.073 C 
ATOM      2  C   LIG    1       24.575 -28.218   6.493  0.00  0.00    +0.166 C 
ATOM      3  O   LIG    1       25.856 -28.631   7.110  0.00  0.00    -0.332 OA
ATOM      4  C   LIG    1       25.502 -29.798   7.866  0.00  0.00    +0.164 C 
ATOM      5  C   LIG    1       24.117 -29.354   8.306  0.00  0.00    +0.162 C 
ATOM      6  C   LIG    1       23.711 -30.334   9.394  0.00  0.00    +0.039 C 
ATOM      7  C   LIG    1       24.971 -30.090  10.254  0.00  0.00    +0.004 C 
ATOM      8  C   LIG    1       25.272 -30.738  11.598  0.00  0.00    +0.002 C 
ATOM      9  C   LIG    1       26.430 -29.921  12.278  0.00  0.00    +0.035 C 
ATOM     10  C   LIG    1       27.617 -29.577  11.288  0.00  0.00    +0.120 C 
ATOM     11  C   LIG    1       27.261 -29.280   9.798  0.00  0.00    +0.042 C 
ATOM     12  C   LIG    1       25.978 -28.666  13.155  0.00  0.00    +0.016 C 
ATOM     13  C   LIG    1       24.634 -28.889  13.883  0.00  0.00    -0.023 C 
ATOM     14  C   LIG    1       24.178 -27.906  14.695  0.00  0.00    +0.053 C 
ATOM     15  C   LIG    1       24.016 -26.617  13.918  0.00  0.00    +0.179 C 
ATOM     16  C   LIG    1       24.915 -26.414  12.743  0.00  0.00    +0.047 C 
ATOM     17  O   LIG    1       23.261 -25.734  14.306  0.00  0.00    -0.288 OA
ATOM     18  C   LIG    1       23.564 -29.618  13.103  0.00  0.00    +0.193 C 
ATOM     19  F   LIG    1       23.096 -28.837  12.091  0.00  0.00    -0.241 F 
ATOM     20  C   LIG    1       27.099 -28.454  14.221  0.00  0.00    +0.020 C 
ATOM     21  C   LIG    1       25.836 -27.337  12.408  0.00  0.00    -0.012 C 
ATOM     22  C   LIG    1       24.066 -30.918  12.519  0.00  0.00    +0.045 C 
ATOM     23  C   LIG    1       26.172 -30.207   9.241  0.00  0.00    +0.012 C 
ATOM     24  C   LIG    1       26.714 -31.667   9.177  0.00  0.00    +0.015 C 
ATOM     25  O   LIG    1       23.493 -28.987   7.104  0.00  0.00    -0.343 OA
ATOM     26  C   LIG    1       24.567 -28.472   4.988  0.00  0.00    +0.073 C 
ENDROOT
BRANCH  10  27
ATOM     27  O   LIG    1       28.553 -30.661  11.300  0.00  0.00    -0.391 OA
ATOM     28  H   LIG    1       28.109 -31.450  10.944  0.00  0.00    +0.210 HD
ENDBRANCH  10  27
BRANCH   4  29
ATOM     29  C   LIG    1       25.501 -30.969   6.842  0.00  0.00    +0.193 C 
ATOM     30  O   LIG    1       26.409 -31.168   6.029  0.00  0.00    -0.292 OA
BRANCH  29  31
ATOM     31  C   LIG    1       24.272 -31.882   6.843  0.00  0.00    +0.233 C 
BRANCH  31  32
ATOM     32  O   LIG    1       23.386 -31.549   5.781  0.00  0.00    -0.387 OA
ATOM     33  H   LIG    1       22.831 -30.815   6.114  0.00  0.00    +0.210 HD
ENDBRANCH  31  32
ENDBRANCH  29  31
ENDBRANCH   4  29
TORSDOF 4
ENDMDL
MODEL 8
REMARK VINA RESULT:      -4.4      3.243      5.530
REMARK  Name = *****
REMARK                            x       y       z     vdW  Elec       q    Type
REMARK                         _______ _______ _______ _____ _____    ______ ____
ROOT
ATOM      1  C   LIG    1       19.577 -28.447  14.548  0.00  0.00    +0.073 C 
ATOM      2  C   LIG    1       19.243 -29.835  13.993  0.00  0.00    +0.166 C 
ATOM      3  O   LIG    1       19.641 -29.858  12.566  0.00  0.00    -0.332 OA
ATOM      4  C   LIG    1       20.408 -31.066  12.453  0.00  0.00    +0.164 C 
ATOM      5  C   LIG    1       21.071 -31.025  13.819  0.00  0.00    +0.162 C 
ATOM      6  C   LIG    1       22.180 -32.064  13.754  0.00  0.00    +0.039 C 
ATOM      7  C   LIG    1       22.839 -31.459  12.495  0.00  0.00    +0.004 C 
ATOM      8  C   LIG    1       24.100 -31.974  11.815  0.00  0.00    +0.002 C 
ATOM      9  C   LIG    1       24.615 -30.852  10.842  0.00  0.00    +0.035 C 
ATOM     10  C   LIG    1       23.462 -30.201   9.973  0.00  0.00    +0.120 C 
ATOM     11  C   LIG    1       22.056 -30.040  10.629  0.00  0.00    +0.042 C 
ATOM     12  C   LIG    1       25.589 -29.763  11.485  0.00  0.00    +0.016 C 
ATOM     13  C   LIG    1       26.510 -30.346  12.579  0.00  0.00    -0.023 C 
ATOM     14  C   LIG    1       27.413 -29.520  13.160  0.00  0.00    +0.053 C 
ATOM     15  C   LIG    1       26.710 -28.342  13.800  0.00  0.00    +0.179 C 
ATOM     16  C   LIG    1       25.416 -27.911  13.192  0.00  0.00    +0.047 C 
ATOM     17  O   LIG    1       27.237 -27.704  14.702  0.00  0.00    -0.288 OA
ATOM     18  C   LIG    1       25.885 -31.361  13.510  0.00  0.00    +0.193 C 
ATOM     19  F   LIG    1       24.983 -30.760  14.332  0.00  0.00    -0.241 F 
ATOM     20  C   LIG    1       26.473 -29.225  10.317  0.00  0.00    +0.020 C 
ATOM     21  C   LIG    1       24.914 -28.541  12.113  0.00  0.00    -0.012 C 
ATOM     22  C   LIG    1       25.192 -32.474  12.759  0.00  0.00    +0.045 C 
ATOM     23  C   LIG    1       21.648 -31.246  11.485  0.00  0.00    +0.012 C 
ATOM     24  C   LIG    1       21.456 -32.494  10.570  0.00  0.00    +0.015 C 
ATOM     25  O   LIG    1       19.993 -30.869  14.703  0.00  0.00    -0.343 OA
ATOM     26  C   LIG    1       17.752 -30.104  14.166  0.00  0.00    +0.073 C 
ENDROOT
BRANCH  10  27
ATOM     27  O   LIG    1       23.296 -30.975   8.779  0.00  0.00    -0.391 OA
ATOM     28  H   LIG    1       22.346 -31.031   8.583  0.00  0.00    +0.210 HD
ENDBRANCH  10  27
BRANCH   4  29
ATOM     29  C   LIG    1       19.361 -32.205  12.285  0.00  0.00    +0.193 C 
ATOM     30  O   LIG    1       19.450 -33.304  12.841  0.00  0.00    -0.292 OA
BRANCH  29  31
ATOM     31  C   LIG    1       18.189 -31.927  11.340  0.00  0.00    +0.233 C 
BRANCH  31  32
ATOM     32  O   LIG    1       18.539 -30.954  10.363  0.00  0.00    -0.387 OA
ATOM     33  H   LIG    1       18.950 -31.449   9.626  0.00  0.00    +0.210 HD
ENDBRANCH  31  32
ENDBRANCH  29  31
ENDBRANCH   4  29
TORSDOF 4
ENDMDL
MODEL 9
REMARK VINA RESULT:      -4.3      3.124      5.642
REMARK  Name = *****
REMARK                            x       y       z     vdW  Elec       q    Type
REMARK                         _______ _______ _______ _____ _____    ______ ____
ROOT
ATOM      1  C   LIG    1       24.634 -31.189   8.873  0.00  0.00    +0.073 C 
ATOM      2  C   LIG    1       25.636 -30.915   9.999  0.00  0.00    +0.166 C 
ATOM      3  O   LIG    1       25.233 -29.656  10.667  0.00  0.00    -0.332 OA
ATOM      4  C   LIG    1       25.242 -29.999  12.061  0.00  0.00    +0.164 C 
ATOM      5  C   LIG    1       24.745 -31.429  11.930  0.00  0.00    +0.162 C 
ATOM      6  C   LIG    1       24.380 -31.854  13.343  0.00  0.00    +0.039 C 
ATOM      7  C   LIG    1       23.425 -30.665  13.584  0.00  0.00    +0.004 C 
ATOM      8  C   LIG    1       22.609 -30.417  14.846  0.00  0.00    +0.002 C 
ATOM      9  C   LIG    1       21.510 -29.346  14.507  0.00  0.00    +0.035 C 
ATOM     10  C   LIG    1       22.069 -28.117  13.679  0.00  0.00    +0.120 C 
ATOM     11  C   LIG    1       23.197 -28.393  12.636  0.00  0.00    +0.042 C 
ATOM     12  C   LIG    1       20.140 -29.914  13.916  0.00  0.00    +0.016 C 
ATOM     13  C   LIG    1       19.751 -31.288  14.504  0.00  0.00    -0.023 C 
ATOM     14  C   LIG    1       18.580 -31.843  14.108  0.00  0.00    +0.053 C 
ATOM     15  C   LIG    1       18.565 -32.019  12.605  0.00  0.00    +0.179 C 
ATOM     16  C   LIG    1       19.378 -31.059  11.800  0.00  0.00    +0.047 C 
ATOM     17  O   LIG    1       17.830 -32.840  12.071  0.00  0.00    -0.288 OA
ATOM     18  C   LIG    1       20.882 -32.270  14.714  0.00  0.00    +0.193 C 
ATOM     19  F   LIG    1       21.359 -32.711  13.518  0.00  0.00    -0.241 F 
ATOM     20  C   LIG    1       19.039 -28.875  14.296  0.00  0.00    +0.020 C 
ATOM     21  C   LIG    1       20.077 -30.074  12.395  0.00  0.00    -0.012 C 
ATOM     22  C   LIG    1       22.024 -31.668  15.499  0.00  0.00    +0.045 C 
ATOM     23  C   LIG    1       24.245 -29.397  13.133  0.00  0.00    +0.012 C 
ATOM     24  C   LIG    1       25.031 -28.780  14.330  0.00  0.00    +0.015 C 
ATOM     25  O   LIG    1       25.614 -31.994  10.985  0.00  0.00    -0.343 OA
ATOM     26  C   LIG    1       27.042 -30.815   9.413  0.00  0.00    +0.073 C 
ENDROOT
BRANCH  10  27
ATOM     27  O   LIG    1       22.559 -27.132  14.595  0.00  0.00    -0.391 OA
ATOM     28  H   LIG    1       22.450 -26.256  14.186  0.00  0.00    +0.210 HD
ENDBRANCH  10  27
BRANCH   4  29
ATOM     29  C   LIG    1       26.728 -29.878  12.505  0.00  0.00    +0.193 C 
ATOM     30  O   LIG    1       27.298 -30.705  13.224  0.00  0.00    -0.292 OA
BRANCH  29  31
ATOM     31  C   LIG    1       27.485 -28.630  12.039  0.00  0.00    +0.233 C 
BRANCH  31  32
ATOM     32  O   LIG    1       28.822 -28.950  11.674  0.00  0.00    -0.387 OA
ATOM     33  H   LIG    1       29.395 -28.446  12.286  0.00  0.00    +0.210 HD
ENDBRANCH  31  32
ENDBRANCH  29  31
ENDBRANCH   4  29
TORSDOF 4
ENDMDL
