MODEL 1
REMARK VINA RESULT:      -4.9      0.000      0.000
REMARK  Name = *****
REMARK                            x       y       z     vdW  Elec       q    Type
REMARK                         _______ _______ _______ _____ _____    ______ ____
ROOT
ATOM      1  C   LIG    1       23.561 -20.206   5.342  0.00  0.00    +0.043 C 
ENDROOT
BRANCH   1   2
ATOM      2  C   LIG    1       25.055 -20.333   5.653  0.00  0.00    -0.043 A 
ATOM      3  C   LIG    1       26.023 -19.662   4.887  0.00  0.00    +0.005 A 
ATOM      4  C   LIG    1       27.382 -19.754   5.196  0.00  0.00    +0.020 A 
ATOM      5  C   LIG    1       27.795 -20.516   6.282  0.00  0.00    +0.041 A 
ATOM      6 CL   LIG    1       29.468 -20.619   6.665  0.00  0.00    -0.084 Cl
ATOM      7  C   LIG    1       26.856 -21.186   7.062  0.00  0.00    +0.020 A 
ATOM      8  C   LIG    1       25.492 -21.093   6.751  0.00  0.00    +0.005 A 
ENDBRANCH   1   2
BRANCH   1   9
ATOM      9  C   LIG    1       22.823 -21.572   5.297  0.00  0.00    +0.086 C 
BRANCH   9  10
ATOM     10  N   LIG    1       21.446 -21.480   4.810  0.00  0.00    -0.329 NA
ATOM     11  H   LIG    1       21.439 -20.905   3.960  0.00  0.00    +0.118 HD
ATOM     12  H   LIG    1       21.150 -22.403   4.485  0.00  0.00    +0.118 HD
ENDBRANCH   9  10
ENDBRANCH   1   9
BRANCH   1  13
ATOM     13  C   LIG    1       23.327 -19.338   4.092  0.00  0.00    +0.129 C 
BRANCH  13  14
ATOM     14  C   LIG    1       22.254 -18.288   4.256  0.00  0.00    +0.305 C 
ATOM     15  O   LIG    1       22.434 -17.212   4.795  0.00  0.00    -0.251 OA
BRANCH  14  16
ATOM     16  O   LIG    1       21.052 -18.652   3.747  0.00  0.00    -0.481 OA
ATOM     17  H   LIG    1       20.536 -19.250   4.319  0.00  0.00    +0.295 HD
ENDBRANCH  14  16
ENDBRANCH  13  14
ENDBRANCH   1  13
TORSDOF 6
ENDMDL
MODEL 2
REMARK VINA RESULT:      -4.4      4.562      5.643
REMARK  Name = *****
REMARK                            x       y       z     vdW  Elec       q    Type
REMARK                         _______ _______ _______ _____ _____    ______ ____
ROOT
ATOM      1  C   LIG    1       25.182 -15.412   3.316  0.00  0.00    +0.043 C 
ENDROOT
BRANCH   1   2
ATOM      2  C   LIG    1       24.904 -16.899   3.548  0.00  0.00    -0.043 A 
ATOM      3  C   LIG    1       23.627 -17.358   3.915  0.00  0.00    +0.005 A 
ATOM      4  C   LIG    1       23.371 -18.720   4.092  0.00  0.00    +0.020 A 
ATOM      5  C   LIG    1       24.388 -19.647   3.902  0.00  0.00    +0.041 A 
ATOM      6 CL   LIG    1       24.066 -21.323   4.113  0.00  0.00    -0.084 Cl
ATOM      7  C   LIG    1       25.661 -19.220   3.532  0.00  0.00    +0.020 A 
ATOM      8  C   LIG    1       25.918 -17.853   3.354  0.00  0.00    +0.005 A 
ENDBRANCH   1   2
BRANCH   1   9
ATOM      9  C   LIG    1       26.695 -15.077   3.217  0.00  0.00    +0.086 C 
BRANCH   9  10
ATOM     10  N   LIG    1       27.030 -14.198   2.094  0.00  0.00    -0.329 NA
ATOM     11  H   LIG    1       26.382 -14.393   1.324  0.00  0.00    +0.118 HD
ATOM     12  H   LIG    1       26.819 -13.234   2.357  0.00  0.00    +0.118 HD
ENDBRANCH   9  10
ENDBRANCH   1   9
BRANCH   1  13
ATOM     13  C   LIG    1       24.423 -14.540   4.332  0.00  0.00    +0.129 C 
BRANCH  13  14
ATOM     14  C   LIG    1       24.072 -13.161   3.830  0.00  0.00    +0.305 C 
ATOM     15  O   LIG    1       23.967 -12.183   4.547  0.00  0.00    -0.251 OA
BRANCH  14  16
ATOM     16  O   LIG    1       23.876 -13.101   2.490  0.00  0.00    -0.481 OA
ATOM     17  H   LIG    1       24.438 -12.450   2.029  0.00  0.00    +0.295 HD
ENDBRANCH  14  16
ENDBRANCH  13  14
ENDBRANCH   1  13
TORSDOF 6
ENDMDL
MODEL 3
REMARK VINA RESULT:      -4.4      4.562      5.622
REMARK  Name = *****
REMARK                            x       y       z     vdW  Elec       q    Type
REMARK                         _______ _______ _______ _____ _____    ______ ____
ROOT
ATOM      1  C   LIG    1       25.104 -15.380   3.345  0.00  0.00    +0.043 C 
ENDROOT
BRANCH   1   2
ATOM      2  C   LIG    1       24.809 -16.868   3.549  0.00  0.00    -0.043 A 
ATOM      3  C   LIG    1       25.803 -17.844   3.362  0.00  0.00    +0.005 A 
ATOM      4  C   LIG    1       25.538 -19.198   3.583  0.00  0.00    +0.020 A 
ATOM      5  C   LIG    1       24.274 -19.598   3.998  0.00  0.00    +0.041 A 
ATOM      6 CL   LIG    1       23.955 -21.265   4.277  0.00  0.00    -0.084 Cl
ATOM      7  C   LIG    1       23.273 -18.651   4.196  0.00  0.00    +0.020 A 
ATOM      8  C   LIG    1       23.539 -17.292   3.976  0.00  0.00    +0.005 A 
ENDBRANCH   1   2
BRANCH   1   9
ATOM      9  C   LIG    1       26.621 -15.055   3.285  0.00  0.00    +0.086 C 
BRANCH   9  10
ATOM     10  N   LIG    1       26.994 -14.196   2.159  0.00  0.00    -0.329 NA
ATOM     11  H   LIG    1       27.988 -13.960   2.246  0.00  0.00    +0.118 HD
ATOM     12  H   LIG    1       26.943 -14.743   1.298  0.00  0.00    +0.118 HD
ENDBRANCH   9  10
ENDBRANCH   1   9
BRANCH   1  13
ATOM     13  C   LIG    1       24.328 -14.518   4.358  0.00  0.00    +0.129 C 
BRANCH  13  14
ATOM     14  C   LIG    1       24.061 -13.106   3.897  0.00  0.00    +0.305 C 
ATOM     15  O   LIG    1       24.003 -12.147   4.644  0.00  0.00    -0.251 OA
BRANCH  14  16
ATOM     16  O   LIG    1       23.885 -12.992   2.558  0.00  0.00    -0.481 OA
ATOM     17  H   LIG    1       22.990 -13.226   2.247  0.00  0.00    +0.295 HD
ENDBRANCH  14  16
ENDBRANCH  13  14
ENDBRANCH   1  13
TORSDOF 6
ENDMDL
MODEL 4
REMARK VINA RESULT:      -4.2      4.453      5.582
REMARK  Name = *****
REMARK                            x       y       z     vdW  Elec       q    Type
REMARK                         _______ _______ _______ _____ _____    ______ ____
ROOT
ATOM      1  C   LIG    1       25.578 -16.405   3.252  0.00  0.00    +0.043 C 
ENDROOT
BRANCH   1   2
ATOM      2  C   LIG    1       24.683 -17.561   3.708  0.00  0.00    -0.043 A 
ATOM      3  C   LIG    1       23.356 -17.345   4.114  0.00  0.00    +0.005 A 
ATOM      4  C   LIG    1       22.534 -18.408   4.496  0.00  0.00    +0.020 A 
ATOM      5  C   LIG    1       23.026 -19.707   4.474  0.00  0.00    +0.041 A 
ATOM      6 CL   LIG    1       22.007 -21.013   4.937  0.00  0.00    -0.084 Cl
ATOM      7  C   LIG    1       24.336 -19.950   4.070  0.00  0.00    +0.020 A 
ATOM      8  C   LIG    1       25.161 -18.884   3.686  0.00  0.00    +0.005 A 
ENDBRANCH   1   2
BRANCH   1   9
ATOM      9  C   LIG    1       27.073 -16.599   3.627  0.00  0.00    +0.086 C 
BRANCH   9  10
ATOM     10  N   LIG    1       27.757 -15.353   3.976  0.00  0.00    -0.329 NA
ATOM     11  H   LIG    1       27.107 -14.762   4.505  0.00  0.00    +0.118 HD
ATOM     12  H   LIG    1       28.501 -15.562   4.644  0.00  0.00    +0.118 HD
ENDBRANCH   9  10
ENDBRANCH   1   9
BRANCH   1  13
ATOM     13  C   LIG    1       25.001 -15.049   3.698  0.00  0.00    +0.129 C 
BRANCH  13  14
ATOM     14  C   LIG    1       25.046 -13.976   2.638  0.00  0.00    +0.305 C 
ATOM     15  O   LIG    1       25.979 -13.816   1.872  0.00  0.00    -0.251 OA
BRANCH  14  16
ATOM     16  O   LIG    1       23.944 -13.189   2.610  0.00  0.00    -0.481 OA
ATOM     17  H   LIG    1       23.764 -12.777   1.744  0.00  0.00    +0.295 HD
ENDBRANCH  14  16
ENDBRANCH  13  14
ENDBRANCH   1  13
TORSDOF 6
ENDMDL
MODEL 5
REMARK VINA RESULT:      -4.2      5.765      6.998
REMARK  Name = *****
REMARK                            x       y       z     vdW  Elec       q    Type
REMARK                         _______ _______ _______ _____ _____    ______ ____
ROOT
ATOM      1  C   LIG    1       25.536 -13.619   3.728  0.00  0.00    +0.043 C 
ENDROOT
BRANCH   1   2
ATOM      2  C   LIG    1       25.146 -15.099   3.704  0.00  0.00    -0.043 A 
ATOM      3  C   LIG    1       26.050 -16.090   3.285  0.00  0.00    +0.005 A 
ATOM      4  C   LIG    1       25.700 -17.442   3.298  0.00  0.00    +0.020 A 
ATOM      5  C   LIG    1       24.438 -17.826   3.734  0.00  0.00    +0.041 A 
ATOM      6 CL   LIG    1       24.013 -19.493   3.756  0.00  0.00    -0.084 Cl
ATOM      7  C   LIG    1       23.524 -16.866   4.160  0.00  0.00    +0.020 A 
ATOM      8  C   LIG    1       23.876 -15.509   4.147  0.00  0.00    +0.005 A 
ENDBRANCH   1   2
BRANCH   1   9
ATOM      9  C   LIG    1       24.395 -12.674   3.264  0.00  0.00    +0.086 C 
BRANCH   9  10
ATOM     10  N   LIG    1       24.204 -12.651   1.812  0.00  0.00    -0.329 NA
ATOM     11  H   LIG    1       24.453 -13.573   1.438  0.00  0.00    +0.118 HD
ATOM     12  H   LIG    1       23.206 -12.565   1.614  0.00  0.00    +0.118 HD
ENDBRANCH   9  10
ENDBRANCH   1   9
BRANCH   1  13
ATOM     13  C   LIG    1       26.868 -13.385   2.992  0.00  0.00    +0.129 C 
BRANCH  13  14
ATOM     14  C   LIG    1       28.055 -13.184   3.903  0.00  0.00    +0.305 C 
ATOM     15  O   LIG    1       27.964 -12.903   5.084  0.00  0.00    -0.251 OA
BRANCH  14  16
ATOM     16  O   LIG    1       29.251 -13.341   3.285  0.00  0.00    -0.481 OA
ATOM     17  H   LIG    1       29.408 -12.723   2.548  0.00  0.00    +0.295 HD
ENDBRANCH  14  16
ENDBRANCH  13  14
ENDBRANCH   1  13
TORSDOF 6
ENDMDL
MODEL 6
REMARK VINA RESULT:      -4.1      5.443      6.667
REMARK  Name = *****
REMARK                            x       y       z     vdW  Elec       q    Type
REMARK                         _______ _______ _______ _____ _____    ______ ____
ROOT
ATOM      1  C   LIG    1       26.330 -16.850   3.925  0.00  0.00    +0.043 C 
ENDROOT
BRANCH   1   2
ATOM      2  C   LIG    1       25.770 -15.474   3.552  0.00  0.00    -0.043 A 
ATOM      3  C   LIG    1       26.496 -14.580   2.747  0.00  0.00    +0.005 A 
ATOM      4  C   LIG    1       25.966 -13.341   2.382  0.00  0.00    +0.020 A 
ATOM      5  C   LIG    1       24.697 -12.976   2.813  0.00  0.00    +0.041 A 
ATOM      6 CL   LIG    1       24.044 -11.453   2.354  0.00  0.00    -0.084 Cl
ATOM      7  C   LIG    1       23.953 -13.845   3.606  0.00  0.00    +0.020 A 
ATOM      8  C   LIG    1       24.485 -15.090   3.972  0.00  0.00    +0.005 A 
ENDBRANCH   1   2
BRANCH   1   9
ATOM      9  C   LIG    1       27.879 -16.877   4.027  0.00  0.00    +0.086 C 
BRANCH   9  10
ATOM     10  N   LIG    1       28.400 -18.029   4.764  0.00  0.00    -0.329 NA
ATOM     11  H   LIG    1       29.285 -18.317   4.334  0.00  0.00    +0.118 HD
ATOM     12  H   LIG    1       28.668 -17.726   5.702  0.00  0.00    +0.118 HD
ENDBRANCH   9  10
ENDBRANCH   1   9
BRANCH   1  13
ATOM     13  C   LIG    1       25.753 -17.949   3.014  0.00  0.00    +0.129 C 
BRANCH  13  14
ATOM     14  C   LIG    1       25.136 -19.110   3.755  0.00  0.00    +0.305 C 
ATOM     15  O   LIG    1       23.944 -19.219   3.974  0.00  0.00    -0.251 OA
BRANCH  14  16
ATOM     16  O   LIG    1       26.036 -20.036   4.166  0.00  0.00    -0.481 OA
ATOM     17  H   LIG    1       25.664 -20.926   4.306  0.00  0.00    +0.295 HD
ENDBRANCH  14  16
ENDBRANCH  13  14
ENDBRANCH   1  13
TORSDOF 6
ENDMDL
MODEL 7
REMARK VINA RESULT:      -4.0      5.754      7.022
REMARK  Name = *****
REMARK                            x       y       z     vdW  Elec       q    Type
REMARK                         _______ _______ _______ _____ _____    ______ ____
ROOT
ATOM      1  C   LIG    1       25.474 -13.642   3.646  0.00  0.00    +0.043 C 
ENDROOT
BRANCH   1   2
ATOM      2  C   LIG    1       25.122 -15.132   3.702  0.00  0.00    -0.043 A 
ATOM      3  C   LIG    1       23.850 -15.570   4.108  0.00  0.00    +0.005 A 
ATOM      4  C   LIG    1       23.524 -16.928   4.124  0.00  0.00    +0.020 A 
ATOM      5  C   LIG    1       24.464 -17.871   3.730  0.00  0.00    +0.041 A 
ATOM      6 CL   LIG    1       24.055 -19.541   3.742  0.00  0.00    -0.084 Cl
ATOM      7  C   LIG    1       25.730 -17.464   3.317  0.00  0.00    +0.020 A 
ATOM      8  C   LIG    1       26.058 -16.101   3.300  0.00  0.00    +0.005 A 
ENDBRANCH   1   2
BRANCH   1   9
ATOM      9  C   LIG    1       24.333 -12.761   3.070  0.00  0.00    +0.086 C 
BRANCH   9  10
ATOM     10  N   LIG    1       23.793 -11.797   4.030  0.00  0.00    -0.329 NA
ATOM     11  H   LIG    1       24.127 -12.049   4.966  0.00  0.00    +0.118 HD
ATOM     12  H   LIG    1       24.219 -10.884   3.853  0.00  0.00    +0.118 HD
ENDBRANCH   9  10
ENDBRANCH   1   9
BRANCH   1  13
ATOM     13  C   LIG    1       26.833 -13.420   2.959  0.00  0.00    +0.129 C 
BRANCH  13  14
ATOM     14  C   LIG    1       27.990 -13.237   3.912  0.00  0.00    +0.305 C 
ATOM     15  O   LIG    1       27.861 -12.983   5.095  0.00  0.00    -0.251 OA
BRANCH  14  16
ATOM     16  O   LIG    1       29.205 -13.380   3.329  0.00  0.00    -0.481 OA
ATOM     17  H   LIG    1       29.472 -12.631   2.764  0.00  0.00    +0.295 HD
ENDBRANCH  14  16
ENDBRANCH  13  14
ENDBRANCH   1  13
TORSDOF 6
ENDMDL
MODEL 8
REMARK VINA RESULT:      -3.9      1.304      2.002
REMARK  Name = *****
REMARK                            x       y       z     vdW  Elec       q    Type
REMARK                         _______ _______ _______ _____ _____    ______ ____
ROOT
ATOM      1  C   LIG    1       23.700 -20.900   5.087  0.00  0.00    +0.043 C 
ENDROOT
BRANCH   1   2
ATOM      2  C   LIG    1       25.143 -20.758   5.578  0.00  0.00    -0.043 A 
ATOM      3  C   LIG    1       25.636 -21.534   6.641  0.00  0.00    +0.005 A 
ATOM      4  C   LIG    1       26.963 -21.424   7.062  0.00  0.00    +0.020 A 
ATOM      5  C   LIG    1       27.822 -20.539   6.423  0.00  0.00    +0.041 A 
ATOM      6 CL   LIG    1       29.458 -20.415   6.939  0.00  0.00    -0.084 Cl
ATOM      7  C   LIG    1       27.362 -19.763   5.362  0.00  0.00    +0.020 A 
ATOM      8  C   LIG    1       26.030 -19.873   4.939  0.00  0.00    +0.005 A 
ENDBRANCH   1   2
BRANCH   1   9
ATOM      9  C   LIG    1       23.593 -21.204   3.568  0.00  0.00    +0.086 C 
BRANCH   9  10
ATOM     10  N   LIG    1       24.613 -20.532   2.761  0.00  0.00    -0.329 NA
ATOM     11  H   LIG    1       25.537 -20.834   3.088  0.00  0.00    +0.118 HD
ATOM     12  H   LIG    1       24.562 -20.886   1.804  0.00  0.00    +0.118 HD
ENDBRANCH   9  10
ENDBRANCH   1   9
BRANCH   1  13
ATOM     13  C   LIG    1       22.841 -19.705   5.539  0.00  0.00    +0.129 C 
BRANCH  13  14
ATOM     14  C   LIG    1       22.392 -18.802   4.416  0.00  0.00    +0.305 C 
ATOM     15  O   LIG    1       21.246 -18.738   4.013  0.00  0.00    -0.251 OA
BRANCH  14  16
ATOM     16  O   LIG    1       23.391 -18.056   3.883  0.00  0.00    -0.481 OA
ATOM     17  H   LIG    1       23.680 -18.344   2.997  0.00  0.00    +0.295 HD
ENDBRANCH  14  16
ENDBRANCH  13  14
ENDBRANCH   1  13
TORSDOF 6
ENDMDL
MODEL 9
REMARK VINA RESULT:      -3.9      3.723      4.826
REMARK  Name = *****
REMARK                            x       y       z     vdW  Elec       q    Type
REMARK                         _______ _______ _______ _____ _____    ______ ____
ROOT
ATOM      1  C   LIG    1       23.737 -19.008   3.738  0.00  0.00    +0.043 C 
ENDROOT
BRANCH   1   2
ATOM      2  C   LIG    1       24.320 -17.592   3.753  0.00  0.00    -0.043 A 
ATOM      3  C   LIG    1       25.627 -17.332   3.308  0.00  0.00    +0.005 A 
ATOM      4  C   LIG    1       26.142 -16.034   3.292  0.00  0.00    +0.020 A 
ATOM      5  C   LIG    1       25.355 -14.971   3.718  0.00  0.00    +0.041 A 
ATOM      6 CL   LIG    1       25.989 -13.373   3.688  0.00  0.00    -0.084 Cl
ATOM      7  C   LIG    1       24.053 -15.200   4.158  0.00  0.00    +0.020 A 
ATOM      8  C   LIG    1       23.537 -16.503   4.174  0.00  0.00    +0.005 A 
ENDBRANCH   1   2
BRANCH   1   9
ATOM      9  C   LIG    1       22.696 -19.257   4.863  0.00  0.00    +0.086 C 
BRANCH   9  10
ATOM     10  N   LIG    1       22.182 -20.627   4.895  0.00  0.00    -0.329 NA
ATOM     11  H   LIG    1       22.423 -21.044   5.800  0.00  0.00    +0.118 HD
ATOM     12  H   LIG    1       21.161 -20.595   4.903  0.00  0.00    +0.118 HD
ENDBRANCH   9  10
ENDBRANCH   1   9
BRANCH   1  13
ATOM     13  C   LIG    1       24.853 -20.066   3.685  0.00  0.00    +0.129 C 
BRANCH  13  14
ATOM     14  C   LIG    1       25.600 -20.248   4.984  0.00  0.00    +0.305 C 
ATOM     15  O   LIG    1       25.067 -20.540   6.039  0.00  0.00    -0.251 OA
BRANCH  14  16
ATOM     16  O   LIG    1       26.937 -20.052   4.878  0.00  0.00    -0.481 OA
ATOM     17  H   LIG    1       27.212 -19.117   4.923  0.00  0.00    +0.295 HD
ENDBRANCH  14  16
ENDBRANCH  13  14
ENDBRANCH   1  13
TORSDOF 6
ENDMDL
