MODEL 1
REMARK VINA RESULT:       8.0      0.000      0.000
REMARK  Name = *****
REMARK                            x       y       z     vdW  Elec       q    Type
REMARK                         _______ _______ _______ _____ _____    ______ ____
ROOT
ATOM      1  C   LIG    1       24.040 -14.135   3.662  0.00  0.00    +0.220 A 
ATOM      2  N   LIG    1       23.242 -15.207   3.710  0.00  0.00    -0.197 NA
ATOM      3  C   LIG    1       23.764 -16.433   3.918  0.00  0.00    +0.153 A 
ATOM      4  C   LIG    1       25.149 -16.628   4.114  0.00  0.00    +0.136 A 
ATOM      5  N   LIG    1       25.707 -17.842   4.331  0.00  0.00    -0.209 NA
ATOM      6  C   LIG    1       27.021 -17.964   4.534  0.00  0.00    +0.220 A 
ATOM      7  N   LIG    1       27.815 -16.890   4.570  0.00  0.00    -0.197 NA
ATOM      8  C   LIG    1       27.289 -15.662   4.343  0.00  0.00    +0.153 A 
ATOM      9  C   LIG    1       25.911 -15.448   4.088  0.00  0.00    +0.136 A 
ATOM     10  N   LIG    1       25.359 -14.240   3.839  0.00  0.00    -0.209 NA
ENDROOT
BRANCH   3  11
ATOM     11  N   LIG    1       22.791 -17.460   3.879  0.00  0.00    -0.313 N 
ATOM     12  C   LIG    1       21.501 -16.995   3.334  0.00  0.00    +0.106 C 
ATOM     13  C   LIG    1       20.535 -18.145   3.014  0.00  0.00    +0.019 C 
ATOM     14  C   LIG    1       20.501 -19.249   4.064  0.00  0.00    +0.003 C 
ATOM     15  C   LIG    1       21.920 -19.663   4.428  0.00  0.00    +0.019 C 
ATOM     16  C   LIG    1       22.711 -18.455   4.938  0.00  0.00    +0.106 C 
ENDBRANCH   3  11
BRANCH   8  17
ATOM     17  N   LIG    1       28.201 -14.548   4.393  0.00  0.00    -0.313 N 
ATOM     18  C   LIG    1       27.800 -13.577   5.431  0.00  0.00    +0.106 C 
ATOM     19  C   LIG    1       28.818 -12.430   5.529  0.00  0.00    +0.019 C 
ATOM     20  C   LIG    1       29.075 -11.768   4.178  0.00  0.00    +0.003 C 
ATOM     21  C   LIG    1       29.465 -12.824   3.151  0.00  0.00    +0.019 C 
ATOM     22  C   LIG    1       28.401 -13.923   3.066  0.00  0.00    +0.106 C 
ENDBRANCH   8  17
BRANCH   6  23
ATOM     23  N   LIG    1       27.575 -19.242   4.734  0.00  0.00    -0.295 N 
BRANCH  23  24
ATOM     24  C   LIG    1       29.015 -19.238   5.047  0.00  0.00    +0.136 C 
BRANCH  24  25
ATOM     25  C   LIG    1       29.348 -20.024   6.323  0.00  0.00    +0.175 C 
BRANCH  25  26
ATOM     26  O   LIG    1       29.016 -21.405   6.163  0.00  0.00    -0.394 OA
ATOM     27  H   LIG    1       29.824 -21.886   5.912  0.00  0.00    +0.209 HD
ENDBRANCH  25  26
ENDBRANCH  24  25
ENDBRANCH  23  24
BRANCH  23  28
ATOM     28  C   LIG    1       26.750 -20.103   5.614  0.00  0.00    +0.136 C 
BRANCH  28  29
ATOM     29  C   LIG    1       25.787 -20.987   4.815  0.00  0.00    +0.175 C 
BRANCH  29  30
ATOM     30  O   LIG    1       25.706 -20.539   3.462  0.00  0.00    -0.394 OA
ATOM     31  H   LIG    1       26.545 -20.067   3.300  0.00  0.00    +0.209 HD
ENDBRANCH  29  30
ENDBRANCH  28  29
ENDBRANCH  23  28
ENDBRANCH   6  23
BRANCH   1  32
ATOM     32  N   LIG    1       23.470 -12.927   3.340  0.00  0.00    -0.295 N 
BRANCH  32  33
ATOM     33  C   LIG    1       23.590 -12.396   1.975  0.00  0.00    +0.136 C 
BRANCH  33  34
ATOM     34  C   LIG    1       24.785 -11.447   1.812  0.00  0.00    +0.175 C 
BRANCH  34  35
ATOM     35  O   LIG    1       25.993 -11.993   2.332  0.00  0.00    -0.394 OA
ATOM     36  H   LIG    1       25.818 -12.214   3.268  0.00  0.00    +0.209 HD
ENDBRANCH  34  35
ENDBRANCH  33  34
ENDBRANCH  32  33
BRANCH  32  37
ATOM     37  C   LIG    1       22.851 -12.134   4.396  0.00  0.00    +0.136 C 
BRANCH  37  38
ATOM     38  C   LIG    1       23.895 -11.447   5.292  0.00  0.00    +0.175 C 
BRANCH  38  39
ATOM     39  O   LIG    1       25.138 -12.142   5.225  0.00  0.00    -0.394 OA
ATOM     40  H   LIG    1       25.836 -11.465   5.192  0.00  0.00    +0.209 HD
ENDBRANCH  38  39
ENDBRANCH  37  38
ENDBRANCH  32  37
ENDBRANCH   1  32
TORSDOF 16
ENDMDL
MODEL 2
REMARK VINA RESULT:       9.4      1.182      8.063
REMARK  Name = *****
REMARK                            x       y       z     vdW  Elec       q    Type
REMARK                         _______ _______ _______ _____ _____    ______ ____
ROOT
ATOM      1  C   LIG    1       27.400 -18.071   4.698  0.00  0.00    +0.220 A 
ATOM      2  N   LIG    1       27.976 -16.864   4.702  0.00  0.00    -0.197 NA
ATOM      3  C   LIG    1       27.268 -15.773   4.347  0.00  0.00    +0.153 A 
ATOM      4  C   LIG    1       25.905 -15.856   3.987  0.00  0.00    +0.136 A 
ATOM      5  N   LIG    1       25.161 -14.782   3.632  0.00  0.00    -0.209 NA
ATOM      6  C   LIG    1       23.869 -14.916   3.325  0.00  0.00    +0.220 A 
ATOM      7  N   LIG    1       23.263 -16.105   3.398  0.00  0.00    -0.197 NA
ATOM      8  C   LIG    1       23.983 -17.201   3.737  0.00  0.00    +0.153 A 
ATOM      9  C   LIG    1       25.365 -17.152   4.047  0.00  0.00    +0.136 A 
ATOM     10  N   LIG    1       26.115 -18.229   4.370  0.00  0.00    -0.209 NA
ENDROOT
BRANCH   3  11
ATOM     11  N   LIG    1       28.043 -14.589   4.347  0.00  0.00    -0.313 N 
ATOM     12  C   LIG    1       27.840 -13.782   5.565  0.00  0.00    +0.106 C 
ATOM     13  C   LIG    1       28.874 -12.657   5.719  0.00  0.00    +0.019 C 
ATOM     14  C   LIG    1       29.195 -11.917   4.427  0.00  0.00    +0.003 C 
ATOM     15  C   LIG    1       29.470 -12.915   3.311  0.00  0.00    +0.019 C 
ATOM     16  C   LIG    1       28.265 -13.840   3.119  0.00  0.00    +0.106 C 
ENDBRANCH   3  11
BRANCH   8  17
ATOM     17  N   LIG    1       23.269 -18.452   3.794  0.00  0.00    -0.313 N 
ATOM     18  C   LIG    1       22.675 -18.666   5.130  0.00  0.00    +0.106 C 
ATOM     19  C   LIG    1       21.854 -19.964   5.160  0.00  0.00    +0.019 C 
ATOM     20  C   LIG    1       22.658 -21.169   4.679  0.00  0.00    +0.003 C 
ATOM     21  C   LIG    1       23.257 -20.876   3.308  0.00  0.00    +0.019 C 
ATOM     22  C   LIG    1       24.095 -19.594   3.342  0.00  0.00    +0.106 C 
ENDBRANCH   8  17
BRANCH   6  23
ATOM     23  N   LIG    1       23.128 -13.784   2.936  0.00  0.00    -0.295 N 
BRANCH  23  24
ATOM     24  C   LIG    1       22.670 -12.944   4.057  0.00  0.00    +0.136 C 
BRANCH  24  25
ATOM     25  C   LIG    1       23.550 -11.704   4.268  0.00  0.00    +0.175 C 
BRANCH  25  26
ATOM     26  O   LIG    1       24.109 -11.702   5.583  0.00  0.00    -0.394 OA
ATOM     27  H   LIG    1       24.487 -10.822   5.754  0.00  0.00    +0.209 HD
ENDBRANCH  25  26
ENDBRANCH  24  25
ENDBRANCH  23  24
BRANCH  23  28
ATOM     28  C   LIG    1       23.747 -13.040   1.815  0.00  0.00    +0.136 C 
BRANCH  28  29
ATOM     29  C   LIG    1       25.279 -13.070   1.881  0.00  0.00    +0.175 C 
BRANCH  29  30
ATOM     30  O   LIG    1       25.755 -12.106   2.820  0.00  0.00    -0.394 OA
ATOM     31  H   LIG    1       26.211 -12.625   3.509  0.00  0.00    +0.209 HD
ENDBRANCH  29  30
ENDBRANCH  28  29
ENDBRANCH  23  28
ENDBRANCH   6  23
BRANCH   1  32
ATOM     32  N   LIG    1       28.194 -19.160   4.962  0.00  0.00    -0.295 N 
BRANCH  32  33
ATOM     33  C   LIG    1       27.705 -20.516   4.673  0.00  0.00    +0.136 C 
BRANCH  33  34
ATOM     34  C   LIG    1       26.783 -21.060   5.773  0.00  0.00    +0.175 C 
BRANCH  34  35
ATOM     35  O   LIG    1       26.389 -20.056   6.704  0.00  0.00    -0.394 OA
ATOM     36  H   LIG    1       25.883 -20.511   7.406  0.00  0.00    +0.209 HD
ENDBRANCH  34  35
ENDBRANCH  33  34
ENDBRANCH  32  33
BRANCH  32  37
ATOM     37  C   LIG    1       29.472 -18.957   5.636  0.00  0.00    +0.136 C 
BRANCH  37  38
ATOM     38  C   LIG    1       29.472 -19.535   7.062  0.00  0.00    +0.175 C 
BRANCH  38  39
ATOM     39  O   LIG    1       29.382 -20.957   7.019  0.00  0.00    -0.394 OA
ATOM     40  H   LIG    1       28.824 -21.225   7.770  0.00  0.00    +0.209 HD
ENDBRANCH  38  39
ENDBRANCH  37  38
ENDBRANCH  32  37
ENDBRANCH   1  32
TORSDOF 16
ENDMDL
MODEL 3
REMARK VINA RESULT:      10.1      1.129      1.557
REMARK  Name = *****
REMARK                            x       y       z     vdW  Elec       q    Type
REMARK                         _______ _______ _______ _____ _____    ______ ____
ROOT
ATOM      1  C   LIG    1       23.740 -13.938   3.976  0.00  0.00    +0.220 A 
ATOM      2  N   LIG    1       22.843 -14.930   4.000  0.00  0.00    -0.197 NA
ATOM      3  C   LIG    1       23.252 -16.215   3.991  0.00  0.00    +0.153 A 
ATOM      4  C   LIG    1       24.622 -16.559   3.981  0.00  0.00    +0.136 A 
ATOM      5  N   LIG    1       25.068 -17.837   3.977  0.00  0.00    -0.209 NA
ATOM      6  C   LIG    1       26.377 -18.104   3.992  0.00  0.00    +0.220 A 
ATOM      7  N   LIG    1       27.280 -17.121   4.051  0.00  0.00    -0.197 NA
ATOM      8  C   LIG    1       26.865 -15.831   4.043  0.00  0.00    +0.153 A 
ATOM      9  C   LIG    1       25.498 -15.461   3.996  0.00  0.00    +0.136 A 
ATOM     10  N   LIG    1       25.052 -14.185   3.966  0.00  0.00    -0.209 NA
ENDROOT
BRANCH   3  11
ATOM     11  N   LIG    1       22.177 -17.135   3.957  0.00  0.00    -0.313 N 
ATOM     12  C   LIG    1       22.501 -18.403   4.637  0.00  0.00    +0.106 C 
ATOM     13  C   LIG    1       21.269 -19.292   4.867  0.00  0.00    +0.019 C 
ATOM     14  C   LIG    1       20.305 -19.348   3.688  0.00  0.00    +0.003 C 
ATOM     15  C   LIG    1       20.017 -17.940   3.186  0.00  0.00    +0.019 C 
ATOM     16  C   LIG    1       21.320 -17.242   2.787  0.00  0.00    +0.106 C 
ENDBRANCH   3  11
BRANCH   8  17
ATOM     17  N   LIG    1       27.891 -14.821   4.105  0.00  0.00    -0.313 N 
ATOM     18  C   LIG    1       27.690 -13.930   5.267  0.00  0.00    +0.106 C 
ATOM     19  C   LIG    1       28.828 -12.902   5.369  0.00  0.00    +0.019 C 
ATOM     20  C   LIG    1       29.029 -12.130   4.068  0.00  0.00    +0.003 C 
ATOM     21  C   LIG    1       29.211 -13.105   2.911  0.00  0.00    +0.019 C 
ATOM     22  C   LIG    1       28.033 -14.082   2.830  0.00  0.00    +0.106 C 
ENDBRANCH   8  17
BRANCH   6  23
ATOM     23  N   LIG    1       26.811 -19.442   3.965  0.00  0.00    -0.295 N 
BRANCH  23  24
ATOM     24  C   LIG    1       27.108 -20.012   5.291  0.00  0.00    +0.136 C 
BRANCH  24  25
ATOM     25  C   LIG    1       25.936 -20.823   5.865  0.00  0.00    +0.175 C 
BRANCH  25  26
ATOM     26  O   LIG    1       24.964 -19.954   6.450  0.00  0.00    -0.394 OA
ATOM     27  H   LIG    1       24.132 -20.448   6.547  0.00  0.00    +0.209 HD
ENDBRANCH  25  26
ENDBRANCH  24  25
ENDBRANCH  23  24
BRANCH  23  28
ATOM     28  C   LIG    1       25.983 -20.305   3.089  0.00  0.00    +0.136 C 
BRANCH  28  29
ATOM     29  C   LIG    1       24.483 -20.073   3.307  0.00  0.00    +0.175 C 
BRANCH  29  30
ATOM     30  O   LIG    1       23.816 -21.315   3.531  0.00  0.00    -0.394 OA
ATOM     31  H   LIG    1       24.514 -21.930   3.826  0.00  0.00    +0.209 HD
ENDBRANCH  29  30
ENDBRANCH  28  29
ENDBRANCH  23  28
ENDBRANCH   6  23
BRANCH   1  32
ATOM     32  N   LIG    1       23.269 -12.651   3.877  0.00  0.00    -0.295 N 
BRANCH  32  33
ATOM     33  C   LIG    1       23.210 -11.986   2.567  0.00  0.00    +0.136 C 
BRANCH  33  34
ATOM     34  C   LIG    1       24.546 -12.045   1.814  0.00  0.00    +0.175 C 
BRANCH  34  35
ATOM     35  O   LIG    1       25.655 -11.693   2.636  0.00  0.00    -0.394 OA
ATOM     36  H   LIG    1       26.172 -12.511   2.769  0.00  0.00    +0.209 HD
ENDBRANCH  34  35
ENDBRANCH  33  34
ENDBRANCH  32  33
BRANCH  32  37
ATOM     37  C   LIG    1       22.940 -11.923   5.098  0.00  0.00    +0.136 C 
BRANCH  37  38
ATOM     38  C   LIG    1       24.188 -11.626   5.947  0.00  0.00    +0.175 C 
BRANCH  38  39
ATOM     39  O   LIG    1       25.371 -11.931   5.212  0.00  0.00    -0.394 OA
ATOM     40  H   LIG    1       25.943 -11.146   5.265  0.00  0.00    +0.209 HD
ENDBRANCH  38  39
ENDBRANCH  37  38
ENDBRANCH  32  37
ENDBRANCH   1  32
TORSDOF 16
ENDMDL
