MODEL 1
REMARK VINA RESULT:      -9.0      0.000      0.000
REMARK  Name = *****
REMARK                            x       y       z     vdW  Elec       q    Type
REMARK                         _______ _______ _______ _____ _____    ______ ____
ROOT
ATOM      1  C   LIG    1       24.628 -24.315   6.115  0.00  0.00    +0.233 C 
ATOM      2  O   LIG    1       24.606 -23.077   5.403  0.00  0.00    -0.340 OA
ATOM      3  C   LIG    1       24.327 -21.959   6.236  0.00  0.00    +0.133 C 
ATOM      4  C   LIG    1       24.325 -20.709   5.373  0.00  0.00    +0.106 C 
ATOM      5  C   LIG    1       25.789 -20.338   5.372  0.00  0.00    +0.139 C 
ATOM      6  O   LIG    1       26.279 -19.561   4.568  0.00  0.00    -0.297 OA
ATOM      7  C   LIG    1       26.570 -21.039   6.480  0.00  0.00    +0.061 C 
ATOM      8  C   LIG    1       25.435 -21.737   7.262  0.00  0.00    +0.029 C 
ATOM      9  C   LIG    1       25.845 -23.016   7.988  0.00  0.00    +0.012 C 
ATOM     10  C   LIG    1       25.785 -24.283   7.138  0.00  0.00    +0.071 C 
ENDROOT
BRANCH   1  11
ATOM     11  C   LIG    1       24.838 -25.499   5.113  0.00  0.00    +0.301 C 
ATOM     12  F   LIG    1       23.684 -26.225   5.115  0.00  0.00    -0.200 F 
ATOM     13  F   LIG    1       24.988 -25.026   3.843  0.00  0.00    -0.200 F 
BRANCH  11  14
ATOM     14  C   LIG    1       26.035 -26.409   5.423  0.00  0.00    +0.081 C 
BRANCH  14  15
ATOM     15  C   LIG    1       25.646 -27.870   5.697  0.00  0.00    +0.006 C 
BRANCH  15  17
ATOM     16  C   LIG    1       24.364 -29.363   7.327  0.00  0.00    +0.004 C 
ATOM     17  C   LIG    1       25.295 -28.169   7.159  0.00  0.00    -0.003 C 
ENDBRANCH  15  17
ENDBRANCH  14  15
ENDBRANCH  11  14
ENDBRANCH   1  11
BRANCH   1  18
ATOM     18  O   LIG    1       23.375 -24.503   6.790  0.00  0.00    -0.360 OA
ATOM     19  H   LIG    1       23.060 -25.406   6.639  0.00  0.00    +0.213 HD
ENDBRANCH   1  18
BRANCH   7  20
ATOM     20  C   LIG    1       27.467 -20.100   7.326  0.00  0.00    +0.011 C 
BRANCH  20  21
ATOM     21  C   LIG    1       28.971 -20.442   7.336  0.00  0.00    +0.001 C 
BRANCH  21  22
ATOM     22  C   LIG    1       29.860 -19.467   6.546  0.00  0.00    +0.000 C 
BRANCH  22  23
ATOM     23  C   LIG    1       31.181 -19.153   7.279  0.00  0.00    +0.000 C 
BRANCH  23  24
ATOM     24  C   LIG    1       31.009 -18.985   8.797  0.00  0.00    +0.011 C 
BRANCH  24  25
ATOM     25  C   LIG    1       30.452 -17.618   9.192  0.00  0.00    +0.120 C 
BRANCH  25  26
ATOM     26  C   LIG    1       30.453 -17.402  10.693  0.00  0.00    +0.305 C 
ATOM     27  O   LIG    1       30.232 -16.343  11.231  0.00  0.00    -0.251 OA
BRANCH  26  28
ATOM     28  O   LIG    1       30.728 -18.537  11.386  0.00  0.00    -0.481 OA
ATOM     29  H   LIG    1       30.507 -18.503  12.333  0.00  0.00    +0.295 HD
ENDBRANCH  26  28
ENDBRANCH  25  26
ENDBRANCH  24  25
ENDBRANCH  23  24
ENDBRANCH  22  23
ENDBRANCH  21  22
ENDBRANCH  20  21
ENDBRANCH   7  20
TORSDOF 13
ENDMDL
MODEL 2
REMARK VINA RESULT:      -8.4      3.118      5.629
REMARK  Name = *****
REMARK                            x       y       z     vdW  Elec       q    Type
REMARK                         _______ _______ _______ _____ _____    ______ ____
ROOT
ATOM      1  C   LIG    1       23.771 -20.467   4.835  0.00  0.00    +0.233 C 
ATOM      2  O   LIG    1       23.921 -21.074   6.119  0.00  0.00    -0.340 OA
ATOM      3  C   LIG    1       25.043 -21.944   6.197  0.00  0.00    +0.133 C 
ATOM      4  C   LIG    1       25.096 -22.530   7.598  0.00  0.00    +0.106 C 
ATOM      5  C   LIG    1       25.871 -21.469   8.342  0.00  0.00    +0.139 C 
ATOM      6  O   LIG    1       25.899 -21.395   9.560  0.00  0.00    -0.297 OA
ATOM      7  C   LIG    1       26.605 -20.515   7.403  0.00  0.00    +0.061 C 
ATOM      8  C   LIG    1       26.354 -21.180   6.031  0.00  0.00    +0.029 C 
ATOM      9  C   LIG    1       26.343 -20.220   4.844  0.00  0.00    +0.012 C 
ATOM     10  C   LIG    1       24.993 -19.563   4.563  0.00  0.00    +0.071 C 
ENDROOT
BRANCH   1  11
ATOM     11  C   LIG    1       22.460 -19.612   4.803  0.00  0.00    +0.301 C 
ATOM     12  F   LIG    1       21.438 -20.469   4.521  0.00  0.00    -0.200 F 
ATOM     13  F   LIG    1       22.198 -19.098   6.039  0.00  0.00    -0.200 F 
BRANCH  11  14
ATOM     14  C   LIG    1       22.466 -18.449   3.800  0.00  0.00    +0.081 C 
BRANCH  14  15
ATOM     15  C   LIG    1       22.436 -17.062   4.460  0.00  0.00    +0.006 C 
BRANCH  15  17
ATOM     16  C   LIG    1       23.421 -14.710   4.301  0.00  0.00    +0.004 C 
ATOM     17  C   LIG    1       23.681 -16.207   4.196  0.00  0.00    -0.003 C 
ENDBRANCH  15  17
ENDBRANCH  14  15
ENDBRANCH  11  14
ENDBRANCH   1  11
BRANCH   1  18
ATOM     18  O   LIG    1       23.676 -21.488   3.829  0.00  0.00    -0.360 OA
ATOM     19  H   LIG    1       22.829 -21.404   3.365  0.00  0.00    +0.213 HD
ENDBRANCH   1  18
BRANCH   7  20
ATOM     20  C   LIG    1       28.097 -20.288   7.757  0.00  0.00    +0.011 C 
BRANCH  20  21
ATOM     21  C   LIG    1       29.057 -20.154   6.557  0.00  0.00    +0.001 C 
BRANCH  21  22
ATOM     22  C   LIG    1       29.934 -18.891   6.569  0.00  0.00    +0.000 C 
BRANCH  22  23
ATOM     23  C   LIG    1       31.250 -19.099   7.348  0.00  0.00    +0.000 C 
BRANCH  23  24
ATOM     24  C   LIG    1       31.460 -18.072   8.471  0.00  0.00    +0.011 C 
BRANCH  24  25
ATOM     25  C   LIG    1       30.175 -17.725   9.220  0.00  0.00    +0.120 C 
BRANCH  25  26
ATOM     26  C   LIG    1       30.423 -17.393  10.678  0.00  0.00    +0.305 C 
ATOM     27  O   LIG    1       30.333 -16.284  11.151  0.00  0.00    -0.251 OA
BRANCH  26  28
ATOM     28  O   LIG    1       30.759 -18.482  11.415  0.00  0.00    -0.481 OA
ATOM     29  H   LIG    1       30.943 -18.302  12.353  0.00  0.00    +0.295 HD
ENDBRANCH  26  28
ENDBRANCH  25  26
ENDBRANCH  24  25
ENDBRANCH  23  24
ENDBRANCH  22  23
ENDBRANCH  21  22
ENDBRANCH  20  21
ENDBRANCH   7  20
TORSDOF 13
ENDMDL
MODEL 3
REMARK VINA RESULT:      -8.1      3.484      7.971
REMARK  Name = *****
REMARK                            x       y       z     vdW  Elec       q    Type
REMARK                         _______ _______ _______ _____ _____    ______ ____
ROOT
ATOM      1  C   LIG    1       28.509 -20.171   6.645  0.00  0.00    +0.233 C 
ATOM      2  O   LIG    1       27.520 -19.981   5.632  0.00  0.00    -0.340 OA
ATOM      3  C   LIG    1       26.654 -21.098   5.481  0.00  0.00    +0.133 C 
ATOM      4  C   LIG    1       25.655 -20.783   4.381  0.00  0.00    +0.106 C 
ATOM      5  C   LIG    1       24.577 -20.055   5.148  0.00  0.00    +0.139 C 
ATOM      6  O   LIG    1       23.720 -19.373   4.610  0.00  0.00    -0.297 OA
ATOM      7  C   LIG    1       24.685 -20.272   6.655  0.00  0.00    +0.061 C 
ATOM      8  C   LIG    1       25.812 -21.326   6.734  0.00  0.00    +0.029 C 
ATOM      9  C   LIG    1       26.633 -21.294   8.021  0.00  0.00    +0.012 C 
ATOM     10  C   LIG    1       27.805 -20.314   8.012  0.00  0.00    +0.071 C 
ENDROOT
BRANCH   1  11
ATOM     11  C   LIG    1       29.481 -18.944   6.674  0.00  0.00    +0.301 C 
ATOM     12  F   LIG    1       30.680 -19.380   6.192  0.00  0.00    -0.200 F 
ATOM     13  F   LIG    1       29.052 -17.978   5.812  0.00  0.00    -0.200 F 
BRANCH  11  14
ATOM     14  C   LIG    1       29.670 -18.297   8.053  0.00  0.00    +0.081 C 
BRANCH  14  15
ATOM     15  C   LIG    1       31.139 -18.198   8.494  0.00  0.00    +0.006 C 
BRANCH  15  17
ATOM     16  C   LIG    1       30.461 -17.171  10.733  0.00  0.00    +0.004 C 
ATOM     17  C   LIG    1       31.413 -17.117   9.545  0.00  0.00    -0.003 C 
ENDBRANCH  15  17
ENDBRANCH  14  15
ENDBRANCH  11  14
ENDBRANCH   1  11
BRANCH   1  18
ATOM     18  O   LIG    1       29.273 -21.353   6.354  0.00  0.00    -0.360 OA
ATOM     19  H   LIG    1       29.435 -21.841   7.175  0.00  0.00    +0.213 HD
ENDBRANCH   1  18
BRANCH   7  20
ATOM     20  C   LIG    1       23.358 -20.681   7.342  0.00  0.00    +0.011 C 
BRANCH  20  21
ATOM     21  C   LIG    1       23.226 -22.173   7.711  0.00  0.00    +0.001 C 
BRANCH  21  22
ATOM     22  C   LIG    1       22.747 -23.081   6.566  0.00  0.00    +0.000 C 
BRANCH  22  23
ATOM     23  C   LIG    1       23.434 -24.463   6.588  0.00  0.00    +0.000 C 
BRANCH  23  24
ATOM     24  C   LIG    1       24.745 -24.503   5.787  0.00  0.00    +0.011 C 
BRANCH  24  25
ATOM     25  C   LIG    1       25.926 -25.044   6.591  0.00  0.00    +0.120 C 
BRANCH  25  26
ATOM     26  C   LIG    1       26.354 -26.425   6.137  0.00  0.00    +0.305 C 
ATOM     27  O   LIG    1       26.679 -26.702   5.006  0.00  0.00    -0.251 OA
BRANCH  26  28
ATOM     28  O   LIG    1       26.340 -27.337   7.143  0.00  0.00    -0.481 OA
ATOM     29  H   LIG    1       26.242 -26.963   8.035  0.00  0.00    +0.295 HD
ENDBRANCH  26  28
ENDBRANCH  25  26
ENDBRANCH  24  25
ENDBRANCH  23  24
ENDBRANCH  22  23
ENDBRANCH  21  22
ENDBRANCH  20  21
ENDBRANCH   7  20
TORSDOF 13
ENDMDL
MODEL 4
REMARK VINA RESULT:      -7.9      3.723      9.599
REMARK  Name = *****
REMARK                            x       y       z     vdW  Elec       q    Type
REMARK                         _______ _______ _______ _____ _____    ______ ____
ROOT
ATOM      1  C   LIG    1       30.543 -19.405   7.911  0.00  0.00    +0.233 C 
ATOM      2  O   LIG    1       29.335 -19.226   7.170  0.00  0.00    -0.340 OA
ATOM      3  C   LIG    1       28.991 -20.357   6.382  0.00  0.00    +0.133 C 
ATOM      4  C   LIG    1       27.701 -20.049   5.641  0.00  0.00    +0.106 C 
ATOM      5  C   LIG    1       26.662 -20.449   6.661  0.00  0.00    +0.139 C 
ATOM      6  O   LIG    1       25.494 -20.101   6.595  0.00  0.00    -0.297 OA
ATOM      7  C   LIG    1       27.239 -21.326   7.769  0.00  0.00    +0.061 C 
ATOM      8  C   LIG    1       28.674 -21.570   7.253  0.00  0.00    +0.029 C 
ATOM      9  C   LIG    1       29.717 -21.815   8.342  0.00  0.00    +0.012 C 
ATOM     10  C   LIG    1       30.342 -20.550   8.927  0.00  0.00    +0.071 C 
ENDROOT
BRANCH   1  11
ATOM     11  C   LIG    1       30.903 -18.082   8.666  0.00  0.00    +0.301 C 
ATOM     12  F   LIG    1       32.111 -17.671   8.186  0.00  0.00    -0.200 F 
ATOM     13  F   LIG    1       30.013 -17.098   8.352  0.00  0.00    -0.200 F 
BRANCH  11  14
ATOM     14  C   LIG    1       30.956 -18.200  10.196  0.00  0.00    +0.081 C 
BRANCH  14  15
ATOM     15  C   LIG    1       31.998 -17.280  10.852  0.00  0.00    +0.006 C 
BRANCH  15  17
ATOM     16  C   LIG    1       32.335 -16.155  13.121  0.00  0.00    +0.004 C 
ATOM     17  C   LIG    1       31.427 -16.330  11.910  0.00  0.00    -0.003 C 
ENDBRANCH  15  17
ENDBRANCH  14  15
ENDBRANCH  11  14
ENDBRANCH   1  11
BRANCH   1  18
ATOM     18  O   LIG    1       31.616 -19.724   7.010  0.00  0.00    -0.360 OA
ATOM     19  H   LIG    1       31.324 -20.411   6.393  0.00  0.00    +0.213 HD
ENDBRANCH   1  18
BRANCH   7  20
ATOM     20  C   LIG    1       26.422 -22.610   8.062  0.00  0.00    +0.011 C 
BRANCH  20  21
ATOM     21  C   LIG    1       26.212 -23.558   6.864  0.00  0.00    +0.001 C 
BRANCH  21  22
ATOM     22  C   LIG    1       24.834 -24.239   6.812  0.00  0.00    +0.000 C 
BRANCH  22  23
ATOM     23  C   LIG    1       24.673 -25.142   5.571  0.00  0.00    +0.000 C 
BRANCH  23  24
ATOM     24  C   LIG    1       24.276 -26.585   5.916  0.00  0.00    +0.011 C 
BRANCH  24  25
ATOM     25  C   LIG    1       25.171 -27.632   5.254  0.00  0.00    +0.120 C 
BRANCH  25  26
ATOM     26  C   LIG    1       24.650 -29.043   5.440  0.00  0.00    +0.305 C 
ATOM     27  O   LIG    1       25.351 -30.013   5.613  0.00  0.00    -0.251 OA
BRANCH  26  28
ATOM     28  O   LIG    1       23.294 -29.113   5.395  0.00  0.00    -0.481 OA
ATOM     29  H   LIG    1       22.900 -28.883   4.537  0.00  0.00    +0.295 HD
ENDBRANCH  26  28
ENDBRANCH  25  26
ENDBRANCH  24  25
ENDBRANCH  23  24
ENDBRANCH  22  23
ENDBRANCH  21  22
ENDBRANCH  20  21
ENDBRANCH   7  20
TORSDOF 13
ENDMDL
MODEL 5
REMARK VINA RESULT:      -7.9      1.804      2.187
REMARK  Name = *****
REMARK                            x       y       z     vdW  Elec       q    Type
REMARK                         _______ _______ _______ _____ _____    ______ ____
ROOT
ATOM      1  C   LIG    1       24.737 -24.094   6.031  0.00  0.00    +0.233 C 
ATOM      2  O   LIG    1       24.389 -23.018   5.158  0.00  0.00    -0.340 OA
ATOM      3  C   LIG    1       24.158 -21.795   5.845  0.00  0.00    +0.133 C 
ATOM      4  C   LIG    1       23.794 -20.734   4.820  0.00  0.00    +0.106 C 
ATOM      5  C   LIG    1       25.156 -20.237   4.399  0.00  0.00    +0.139 C 
ATOM      6  O   LIG    1       25.343 -19.583   3.386  0.00  0.00    -0.297 OA
ATOM      7  C   LIG    1       26.254 -20.643   5.378  0.00  0.00    +0.061 C 
ATOM      8  C   LIG    1       25.430 -21.283   6.517  0.00  0.00    +0.029 C 
ATOM      9  C   LIG    1       26.161 -22.361   7.314  0.00  0.00    +0.012 C 
ATOM     10  C   LIG    1       26.081 -23.765   6.718  0.00  0.00    +0.071 C 
ENDROOT
BRANCH   1  11
ATOM     11  C   LIG    1       24.871 -25.420   5.210  0.00  0.00    +0.301 C 
ATOM     12  F   LIG    1       23.674 -26.066   5.309  0.00  0.00    -0.200 F 
ATOM     13  F   LIG    1       25.048 -25.144   3.887  0.00  0.00    -0.200 F 
BRANCH  11  14
ATOM     14  C   LIG    1       26.009 -26.349   5.657  0.00  0.00    +0.081 C 
BRANCH  14  15
ATOM     15  C   LIG    1       25.581 -27.814   5.829  0.00  0.00    +0.006 C 
BRANCH  15  17
ATOM     16  C   LIG    1       26.102 -28.275   8.288  0.00  0.00    +0.004 C 
ATOM     17  C   LIG    1       25.025 -28.153   7.217  0.00  0.00    -0.003 C 
ENDBRANCH  15  17
ENDBRANCH  14  15
ENDBRANCH  11  14
ENDBRANCH   1  11
BRANCH   1  18
ATOM     18  O   LIG    1       23.706 -24.266   7.015  0.00  0.00    -0.360 OA
ATOM     19  H   LIG    1       23.984 -24.934   7.660  0.00  0.00    +0.213 HD
ENDBRANCH   1  18
BRANCH   7  20
ATOM     20  C   LIG    1       27.186 -19.484   5.816  0.00  0.00    +0.011 C 
BRANCH  20  21
ATOM     21  C   LIG    1       28.692 -19.706   5.568  0.00  0.00    +0.001 C 
BRANCH  21  22
ATOM     22  C   LIG    1       29.619 -18.714   6.290  0.00  0.00    +0.000 C 
BRANCH  22  23
ATOM     23  C   LIG    1       29.550 -18.860   7.825  0.00  0.00    +0.000 C 
BRANCH  23  24
ATOM     24  C   LIG    1       29.778 -20.300   8.309  0.00  0.00    +0.011 C 
BRANCH  24  25
ATOM     25  C   LIG    1       31.223 -20.576   8.721  0.00  0.00    +0.120 C 
BRANCH  25  26
ATOM     26  C   LIG    1       31.433 -22.003   9.187  0.00  0.00    +0.305 C 
ATOM     27  O   LIG    1       32.179 -22.792   8.657  0.00  0.00    -0.251 OA
BRANCH  26  28
ATOM     28  O   LIG    1       30.690 -22.312  10.281  0.00  0.00    -0.481 OA
ATOM     29  H   LIG    1       30.244 -23.175  10.243  0.00  0.00    +0.295 HD
ENDBRANCH  26  28
ENDBRANCH  25  26
ENDBRANCH  24  25
ENDBRANCH  23  24
ENDBRANCH  22  23
ENDBRANCH  21  22
ENDBRANCH  20  21
ENDBRANCH   7  20
TORSDOF 13
ENDMDL
MODEL 6
REMARK VINA RESULT:      -7.8      1.258      1.664
REMARK  Name = *****
REMARK                            x       y       z     vdW  Elec       q    Type
REMARK                         _______ _______ _______ _____ _____    ______ ____
ROOT
ATOM      1  C   LIG    1       24.936 -25.051   5.972  0.00  0.00    +0.233 C 
ATOM      2  O   LIG    1       24.653 -23.947   5.110  0.00  0.00    -0.340 OA
ATOM      3  C   LIG    1       24.049 -22.853   5.786  0.00  0.00    +0.133 C 
ATOM      4  C   LIG    1       23.792 -21.749   4.773  0.00  0.00    +0.106 C 
ATOM      5  C   LIG    1       25.113 -21.018   4.779  0.00  0.00    +0.139 C 
ATOM      6  O   LIG    1       25.447 -20.237   3.903  0.00  0.00    -0.297 OA
ATOM      7  C   LIG    1       25.969 -21.368   5.994  0.00  0.00    +0.061 C 
ATOM      8  C   LIG    1       24.994 -22.241   6.816  0.00  0.00    +0.029 C 
ATOM      9  C   LIG    1       25.662 -23.283   7.710  0.00  0.00    +0.012 C 
ATOM     10  C   LIG    1       25.977 -24.610   7.024  0.00  0.00    +0.071 C 
ENDROOT
BRANCH   1  11
ATOM     11  C   LIG    1       25.501 -26.246   5.134  0.00  0.00    +0.301 C 
ATOM     12  F   LIG    1       25.625 -25.803   3.850  0.00  0.00    -0.200 F 
ATOM     13  F   LIG    1       26.759 -26.566   5.550  0.00  0.00    -0.200 F 
BRANCH  11  14
ATOM     14  C   LIG    1       24.652 -27.525   5.170  0.00  0.00    +0.081 C 
BRANCH  14  15
ATOM     15  C   LIG    1       25.286 -28.666   5.982  0.00  0.00    +0.006 C 
BRANCH  15  17
ATOM     16  C   LIG    1       24.790 -30.976   6.954  0.00  0.00    +0.004 C 
ATOM     17  C   LIG    1       24.277 -29.563   6.708  0.00  0.00    -0.003 C 
ENDBRANCH  15  17
ENDBRANCH  14  15
ENDBRANCH  11  14
ENDBRANCH   1  11
BRANCH   1  18
ATOM     18  O   LIG    1       23.727 -25.477   6.619  0.00  0.00    -0.360 OA
ATOM     19  H   LIG    1       22.982 -24.956   6.283  0.00  0.00    +0.213 HD
ENDBRANCH   1  18
BRANCH   7  20
ATOM     20  C   LIG    1       26.544 -20.142   6.748  0.00  0.00    +0.011 C 
BRANCH  20  21
ATOM     21  C   LIG    1       27.623 -20.453   7.806  0.00  0.00    +0.001 C 
BRANCH  21  22
ATOM     22  C   LIG    1       29.029 -20.711   7.238  0.00  0.00    +0.000 C 
BRANCH  22  23
ATOM     23  C   LIG    1       29.612 -19.468   6.532  0.00  0.00    +0.000 C 
BRANCH  23  24
ATOM     24  C   LIG    1       31.049 -19.141   6.965  0.00  0.00    +0.011 C 
BRANCH  24  25
ATOM     25  C   LIG    1       31.315 -19.431   8.441  0.00  0.00    +0.120 C 
BRANCH  25  26
ATOM     26  C   LIG    1       31.704 -18.188   9.217  0.00  0.00    +0.305 C 
ATOM     27  O   LIG    1       31.617 -18.077  10.417  0.00  0.00    -0.251 OA
BRANCH  26  28
ATOM     28  O   LIG    1       32.171 -17.195   8.417  0.00  0.00    -0.481 OA
ATOM     29  H   LIG    1       31.532 -16.489   8.224  0.00  0.00    +0.295 HD
ENDBRANCH  26  28
ENDBRANCH  25  26
ENDBRANCH  24  25
ENDBRANCH  23  24
ENDBRANCH  22  23
ENDBRANCH  21  22
ENDBRANCH  20  21
ENDBRANCH   7  20
TORSDOF 13
ENDMDL
MODEL 7
REMARK VINA RESULT:      -7.6      3.580      5.300
REMARK  Name = *****
REMARK                            x       y       z     vdW  Elec       q    Type
REMARK                         _______ _______ _______ _____ _____    ______ ____
ROOT
ATOM      1  C   LIG    1       25.459 -25.827   6.137  0.00  0.00    +0.233 C 
ATOM      2  O   LIG    1       26.119 -24.813   6.897  0.00  0.00    -0.340 OA
ATOM      3  C   LIG    1       26.005 -23.519   6.319  0.00  0.00    +0.133 C 
ATOM      4  C   LIG    1       26.746 -22.533   7.206  0.00  0.00    +0.106 C 
ATOM      5  C   LIG    1       25.681 -22.172   8.214  0.00  0.00    +0.139 C 
ATOM      6  O   LIG    1       25.927 -21.628   9.278  0.00  0.00    -0.297 OA
ATOM      7  C   LIG    1       24.280 -22.564   7.750  0.00  0.00    +0.061 C 
ATOM      8  C   LIG    1       24.556 -23.039   6.306  0.00  0.00    +0.029 C 
ATOM      9  C   LIG    1       23.582 -24.088   5.777  0.00  0.00    +0.012 C 
ATOM     10  C   LIG    1       23.943 -25.532   6.121  0.00  0.00    +0.071 C 
ENDROOT
BRANCH   1  11
ATOM     11  C   LIG    1       25.721 -27.228   6.784  0.00  0.00    +0.301 C 
ATOM     12  F   LIG    1       26.774 -27.778   6.116  0.00  0.00    -0.200 F 
ATOM     13  F   LIG    1       26.121 -27.087   8.079  0.00  0.00    -0.200 F 
BRANCH  11  14
ATOM     14  C   LIG    1       24.522 -28.188   6.762  0.00  0.00    +0.081 C 
BRANCH  14  15
ATOM     15  C   LIG    1       24.655 -29.365   7.741  0.00  0.00    +0.006 C 
BRANCH  15  17
ATOM     16  C   LIG    1       25.241 -30.668   5.622  0.00  0.00    +0.004 C 
ATOM     17  C   LIG    1       25.308 -30.616   7.143  0.00  0.00    -0.003 C 
ENDBRANCH  15  17
ENDBRANCH  14  15
ENDBRANCH  11  14
ENDBRANCH   1  11
BRANCH   1  18
ATOM     18  O   LIG    1       25.977 -25.836   4.798  0.00  0.00    -0.360 OA
ATOM     19  H   LIG    1       25.344 -26.278   4.212  0.00  0.00    +0.213 HD
ENDBRANCH   1  18
BRANCH   7  20
ATOM     20  C   LIG    1       23.223 -21.439   7.879  0.00  0.00    +0.011 C 
BRANCH  20  21
ATOM     21  C   LIG    1       23.380 -20.258   6.899  0.00  0.00    +0.001 C 
BRANCH  21  22
ATOM     22  C   LIG    1       22.501 -20.341   5.640  0.00  0.00    +0.000 C 
BRANCH  22  23
ATOM     23  C   LIG    1       22.391 -18.984   4.912  0.00  0.00    +0.000 C 
BRANCH  23  24
ATOM     24  C   LIG    1       23.137 -18.953   3.569  0.00  0.00    +0.011 C 
BRANCH  24  25
ATOM     25  C   LIG    1       24.311 -19.929   3.508  0.00  0.00    +0.120 C 
BRANCH  25  26
ATOM     26  C   LIG    1       25.643 -19.252   3.759  0.00  0.00    +0.305 C 
ATOM     27  O   LIG    1       25.905 -18.117   3.435  0.00  0.00    -0.251 OA
BRANCH  26  28
ATOM     28  O   LIG    1       26.530 -20.058   4.397  0.00  0.00    -0.481 OA
ATOM     29  H   LIG    1       27.001 -20.686   3.824  0.00  0.00    +0.295 HD
ENDBRANCH  26  28
ENDBRANCH  25  26
ENDBRANCH  24  25
ENDBRANCH  23  24
ENDBRANCH  22  23
ENDBRANCH  21  22
ENDBRANCH  20  21
ENDBRANCH   7  20
TORSDOF 13
ENDMDL
MODEL 8
REMARK VINA RESULT:      -7.5      3.823      6.320
REMARK  Name = *****
REMARK                            x       y       z     vdW  Elec       q    Type
REMARK                         _______ _______ _______ _____ _____    ______ ____
ROOT
ATOM      1  C   LIG    1       22.770 -19.772   4.806  0.00  0.00    +0.233 C 
ATOM      2  O   LIG    1       22.981 -20.004   6.200  0.00  0.00    -0.340 OA
ATOM      3  C   LIG    1       23.300 -21.357   6.498  0.00  0.00    +0.133 C 
ATOM      4  C   LIG    1       23.496 -21.481   7.999  0.00  0.00    +0.106 C 
ATOM      5  C   LIG    1       24.952 -21.108   8.148  0.00  0.00    +0.139 C 
ATOM      6  O   LIG    1       25.455 -20.799   9.215  0.00  0.00    -0.297 OA
ATOM      7  C   LIG    1       25.707 -21.164   6.823  0.00  0.00    +0.061 C 
ATOM      8  C   LIG    1       24.637 -21.763   5.884  0.00  0.00    +0.029 C 
ATOM      9  C   LIG    1       24.770 -21.361   4.417  0.00  0.00    +0.012 C 
ATOM     10  C   LIG    1       24.087 -20.045   4.048  0.00  0.00    +0.071 C 
ENDROOT
BRANCH   1  11
ATOM     11  C   LIG    1       22.323 -18.290   4.577  0.00  0.00    +0.301 C 
ATOM     12  F   LIG    1       21.240 -18.329   3.750  0.00  0.00    -0.200 F 
ATOM     13  F   LIG    1       21.890 -17.738   5.746  0.00  0.00    -0.200 F 
BRANCH  11  14
ATOM     14  C   LIG    1       23.402 -17.368   3.991  0.00  0.00    +0.081 C 
BRANCH  14  15
ATOM     15  C   LIG    1       23.211 -15.886   4.348  0.00  0.00    +0.006 C 
BRANCH  15  17
ATOM     16  C   LIG    1       24.035 -13.577   3.628  0.00  0.00    +0.004 C 
ATOM     17  C   LIG    1       24.417 -14.996   4.028  0.00  0.00    -0.003 C 
ENDBRANCH  15  17
ENDBRANCH  14  15
ENDBRANCH  11  14
ENDBRANCH   1  11
BRANCH   1  18
ATOM     18  O   LIG    1       21.732 -20.642   4.326  0.00  0.00    -0.360 OA
ATOM     19  H   LIG    1       22.084 -21.201   3.618  0.00  0.00    +0.213 HD
ENDBRANCH   1  18
BRANCH   7  20
ATOM     20  C   LIG    1       27.043 -21.947   6.877  0.00  0.00    +0.011 C 
BRANCH  20  21
ATOM     21  C   LIG    1       28.121 -21.368   7.816  0.00  0.00    +0.001 C 
BRANCH  21  22
ATOM     22  C   LIG    1       28.444 -19.881   7.590  0.00  0.00    +0.000 C 
BRANCH  22  23
ATOM     23  C   LIG    1       29.436 -19.667   6.428  0.00  0.00    +0.000 C 
BRANCH  23  24
ATOM     24  C   LIG    1       30.841 -19.256   6.897  0.00  0.00    +0.011 C 
BRANCH  24  25
ATOM     25  C   LIG    1       30.824 -18.328   8.110  0.00  0.00    +0.120 C 
BRANCH  25  26
ATOM     26  C   LIG    1       31.196 -19.042   9.394  0.00  0.00    +0.305 C 
ATOM     27  O   LIG    1       30.703 -18.810  10.473  0.00  0.00    -0.251 OA
BRANCH  26  28
ATOM     28  O   LIG    1       32.154 -19.988   9.210  0.00  0.00    -0.481 OA
ATOM     29  H   LIG    1       32.096 -20.752   9.808  0.00  0.00    +0.295 HD
ENDBRANCH  26  28
ENDBRANCH  25  26
ENDBRANCH  24  25
ENDBRANCH  23  24
ENDBRANCH  22  23
ENDBRANCH  21  22
ENDBRANCH  20  21
ENDBRANCH   7  20
TORSDOF 13
ENDMDL
MODEL 9
REMARK VINA RESULT:      -7.4      3.348      5.607
REMARK  Name = *****
REMARK                            x       y       z     vdW  Elec       q    Type
REMARK                         _______ _______ _______ _____ _____    ______ ____
ROOT
ATOM      1  C   LIG    1       23.851 -20.666   4.861  0.00  0.00    +0.233 C 
ATOM      2  O   LIG    1       24.027 -21.240   6.158  0.00  0.00    -0.340 OA
ATOM      3  C   LIG    1       25.217 -22.009   6.271  0.00  0.00    +0.133 C 
ATOM      4  C   LIG    1       25.292 -22.568   7.681  0.00  0.00    +0.106 C 
ATOM      5  C   LIG    1       25.959 -21.434   8.423  0.00  0.00    +0.139 C 
ATOM      6  O   LIG    1       25.956 -21.339   9.639  0.00  0.00    -0.297 OA
ATOM      7  C   LIG    1       26.627 -20.434   7.482  0.00  0.00    +0.061 C 
ATOM      8  C   LIG    1       26.461 -21.138   6.117  0.00  0.00    +0.029 C 
ATOM      9  C   LIG    1       26.391 -20.200   4.914  0.00  0.00    +0.012 C 
ATOM     10  C   LIG    1       24.996 -19.665   4.598  0.00  0.00    +0.071 C 
ENDROOT
BRANCH   1  11
ATOM     11  C   LIG    1       22.473 -19.927   4.792  0.00  0.00    +0.301 C 
ATOM     12  F   LIG    1       21.515 -20.890   4.673  0.00  0.00    -0.200 F 
ATOM     13  F   LIG    1       22.220 -19.280   5.965  0.00  0.00    -0.200 F 
BRANCH  11  14
ATOM     14  C   LIG    1       22.339 -18.907   3.651  0.00  0.00    +0.081 C 
BRANCH  14  15
ATOM     15  C   LIG    1       21.219 -17.878   3.870  0.00  0.00    +0.006 C 
BRANCH  15  17
ATOM     16  C   LIG    1       19.044 -18.951   3.066  0.00  0.00    +0.004 C 
ATOM     17  C   LIG    1       20.118 -17.903   2.804  0.00  0.00    -0.003 C 
ENDBRANCH  15  17
ENDBRANCH  14  15
ENDBRANCH  11  14
ENDBRANCH   1  11
BRANCH   1  18
ATOM     18  O   LIG    1       23.863 -21.706   3.871  0.00  0.00    -0.360 OA
ATOM     19  H   LIG    1       24.106 -21.330   3.012  0.00  0.00    +0.213 HD
ENDBRANCH   1  18
BRANCH   7  20
ATOM     20  C   LIG    1       28.087 -20.074   7.860  0.00  0.00    +0.011 C 
BRANCH  20  21
ATOM     21  C   LIG    1       28.995 -19.647   6.689  0.00  0.00    +0.001 C 
BRANCH  21  22
ATOM     22  C   LIG    1       30.071 -18.609   7.051  0.00  0.00    +0.000 C 
BRANCH  22  23
ATOM     23  C   LIG    1       30.099 -18.298   8.562  0.00  0.00    +0.000 C 
BRANCH  23  24
ATOM     24  C   LIG    1       31.158 -19.103   9.329  0.00  0.00    +0.011 C 
BRANCH  24  25
ATOM     25  C   LIG    1       31.752 -20.250   8.513  0.00  0.00    +0.120 C 
BRANCH  25  26
ATOM     26  C   LIG    1       31.417 -21.610   9.093  0.00  0.00    +0.305 C 
ATOM     27  O   LIG    1       30.535 -21.813   9.895  0.00  0.00    -0.251 OA
BRANCH  26  28
ATOM     28  O   LIG    1       32.215 -22.598   8.612  0.00  0.00    -0.481 OA
ATOM     29  H   LIG    1       31.904 -23.013   7.790  0.00  0.00    +0.295 HD
ENDBRANCH  26  28
ENDBRANCH  25  26
ENDBRANCH  24  25
ENDBRANCH  23  24
ENDBRANCH  22  23
ENDBRANCH  21  22
ENDBRANCH  20  21
ENDBRANCH   7  20
TORSDOF 13
ENDMDL
