MODEL 1
REMARK VINA RESULT:      14.3      0.000      0.000
REMARK  Name = *****
REMARK                            x       y       z     vdW  Elec       q    Type
REMARK                         _______ _______ _______ _____ _____    ______ ____
ROOT
ATOM      1  C   LIG    1       26.261 -20.277   2.114  0.00  0.00    +0.014 C 
ATOM      2  C   LIG    1       26.296 -19.231   3.264  0.00  0.00    -0.003 C 
ATOM      3  C   LIG    1       25.686 -19.925   4.529  0.00  0.00    +0.121 C 
ATOM      4  C   LIG    1       24.400 -19.182   4.848  0.00  0.00    +0.032 C 
ATOM      5  C   LIG    1       23.986 -18.594   3.515  0.00  0.00    +0.007 C 
ATOM      6  C   LIG    1       25.297 -18.069   2.908  0.00  0.00    +0.001 C 
ATOM      7  C   LIG    1       25.707 -16.584   3.261  0.00  0.00    +0.003 C 
ATOM      8  C   LIG    1       27.238 -16.385   3.366  0.00  0.00    +0.023 C 
ATOM      9  C   LIG    1       27.662 -15.031   3.882  0.00  0.00    -0.041 A 
ATOM     10  C   LIG    1       26.894 -14.379   4.857  0.00  0.00    -0.040 A 
ATOM     11  C   LIG    1       25.662 -15.050   5.384  0.00  0.00    +0.039 C 
ATOM     12  C   LIG    1       27.363 -13.172   5.393  0.00  0.00    +0.049 A 
ATOM     13  C   LIG    1       28.564 -12.624   4.962  0.00  0.00    +0.117 A 
ATOM     14  C   LIG    1       29.330 -13.260   3.986  0.00  0.00    +0.045 A 
ATOM     15  C   LIG    1       28.870 -14.463   3.453  0.00  0.00    +0.008 A 
ATOM     16  C   LIG    1       27.913 -17.489   4.172  0.00  0.00    +0.009 C 
ATOM     17  C   LIG    1       24.838 -15.817   4.319  0.00  0.00    -0.003 C 
ATOM     18  C   LIG    1       27.758 -18.802   3.430  0.00  0.00    +0.010 C 
ENDROOT
BRANCH   3  19
ATOM     19  O   LIG    1       26.542 -19.969   5.657  0.00  0.00    -0.391 OA
ATOM     20  H   LIG    1       26.015 -20.169   6.448  0.00  0.00    +0.210 HD
ENDBRANCH   3  19
BRANCH  13  21
ATOM     21  O   LIG    1       28.988 -11.459   5.531  0.00  0.00    -0.507 OA
ATOM     22  H   LIG    1       28.969 -11.559   6.495  0.00  0.00    +0.292 HD
ENDBRANCH  13  21
BRANCH  17  23
ATOM     23  C   LIG    1       23.807 -14.848   3.648  0.00  0.00    +0.004 C 
BRANCH  23  24
ATOM     24  C   LIG    1       24.294 -14.077   2.400  0.00  0.00    +0.000 C 
BRANCH  24  25
ATOM     25  C   LIG    1       24.577 -12.601   2.700  0.00  0.00    +0.000 C 
BRANCH  25  26
ATOM     26  C   LIG    1       23.438 -11.934   3.489  0.00  0.00    -0.000 C 
BRANCH  26  27
ATOM     27  C   LIG    1       23.728 -11.790   4.990  0.00  0.00    -0.000 C 
BRANCH  27  28
ATOM     28  C   LIG    1       23.605 -13.105   5.762  0.00  0.00    +0.000 C 
BRANCH  28  29
ATOM     29  C   LIG    1       22.251 -13.773   5.511  0.00  0.00    +0.001 C 
BRANCH  29  30
ATOM     30  C   LIG    1       22.000 -14.899   6.519  0.00  0.00    +0.013 C 
BRANCH  30  31
ATOM     31  C   LIG    1       21.138 -16.036   5.980  0.00  0.00    +0.104 C 
BRANCH  31  32
ATOM     32  S   LIG    1       21.768 -16.711   4.417  0.00  0.00    +0.022 S 
ATOM     33  O   LIG    1       22.735 -17.819   4.730  0.00  0.00    -0.257 OA
BRANCH  32  34
ATOM     34  C   LIG    1       20.209 -17.487   3.877  0.00  0.00    +0.104 C 
BRANCH  34  35
ATOM     35  C   LIG    1       20.298 -19.014   3.938  0.00  0.00    +0.019 C 
BRANCH  35  36
ATOM     36  C   LIG    1       21.738 -19.528   3.810  0.00  0.00    +0.086 C 
BRANCH  36  37
ATOM     37  C   LIG    1       21.959 -20.842   4.553  0.00  0.00    +0.342 C 
ATOM     38  F   LIG    1       22.891 -21.570   3.873  0.00  0.00    -0.196 F 
ATOM     39  F   LIG    1       20.810 -21.571   4.502  0.00  0.00    -0.196 F 
BRANCH  37  40
ATOM     40  C   LIG    1       22.401 -20.628   6.012  0.00  0.00    +0.454 C 
ATOM     41  F   LIG    1       21.554 -21.225   6.886  0.00  0.00    -0.165 F 
ATOM     42  F   LIG    1       22.448 -19.316   6.348  0.00  0.00    -0.165 F 
ATOM     43  F   LIG    1       23.635 -21.139   6.259  0.00  0.00    -0.165 F 
ENDBRANCH  37  40
ENDBRANCH  36  37
ENDBRANCH  35  36
ENDBRANCH  34  35
ENDBRANCH  32  34
ENDBRANCH  31  32
ENDBRANCH  30  31
ENDBRANCH  29  30
ENDBRANCH  28  29
ENDBRANCH  27  28
ENDBRANCH  26  27
ENDBRANCH  25  26
ENDBRANCH  24  25
ENDBRANCH  23  24
ENDBRANCH  17  23
TORSDOF 17
ENDMDL
MODEL 2
REMARK VINA RESULT:      14.9      2.827      6.577
REMARK  Name = *****
REMARK                            x       y       z     vdW  Elec       q    Type
REMARK                         _______ _______ _______ _____ _____    ______ ____
ROOT
ATOM      1  C   LIG    1       29.461 -18.563   7.052  0.00  0.00    +0.014 C 
ATOM      2  C   LIG    1       28.537 -19.365   6.092  0.00  0.00    -0.003 C 
ATOM      3  C   LIG    1       29.473 -20.164   5.123  0.00  0.00    +0.121 C 
ATOM      4  C   LIG    1       29.236 -19.597   3.733  0.00  0.00    +0.032 C 
ATOM      5  C   LIG    1       28.747 -18.188   3.999  0.00  0.00    +0.007 C 
ATOM      6  C   LIG    1       27.769 -18.343   5.175  0.00  0.00    +0.001 C 
ATOM      7  C   LIG    1       26.257 -18.636   4.817  0.00  0.00    +0.003 C 
ATOM      8  C   LIG    1       25.553 -19.542   5.854  0.00  0.00    +0.023 C 
ATOM      9  C   LIG    1       24.169 -19.996   5.455  0.00  0.00    -0.041 A 
ATOM     10  C   LIG    1       23.879 -20.267   4.110  0.00  0.00    -0.040 A 
ATOM     11  C   LIG    1       24.962 -20.114   3.086  0.00  0.00    +0.039 C 
ATOM     12  C   LIG    1       22.619 -20.783   3.780  0.00  0.00    +0.049 A 
ATOM     13  C   LIG    1       21.668 -21.017   4.765  0.00  0.00    +0.117 A 
ATOM     14  C   LIG    1       21.943 -20.741   6.103  0.00  0.00    +0.045 A 
ATOM     15  C   LIG    1       23.196 -20.231   6.437  0.00  0.00    +0.008 A 
ATOM     16  C   LIG    1       26.404 -20.744   6.250  0.00  0.00    +0.009 C 
ATOM     17  C   LIG    1       25.900 -18.901   3.312  0.00  0.00    -0.003 C 
ATOM     18  C   LIG    1       27.644 -20.249   6.969  0.00  0.00    +0.010 C 
ENDROOT
BRANCH   3  19
ATOM     19  O   LIG    1       29.288 -21.569   5.138  0.00  0.00    -0.391 OA
ATOM     20  H   LIG    1       30.102 -21.993   5.456  0.00  0.00    +0.210 HD
ENDBRANCH   3  19
BRANCH  13  21
ATOM     21  O   LIG    1       20.464 -21.542   4.394  0.00  0.00    -0.507 OA
ATOM     22  H   LIG    1       20.395 -21.508   3.429  0.00  0.00    +0.292 HD
ENDBRANCH  13  21
BRANCH  17  23
ATOM     23  C   LIG    1       25.304 -17.633   2.613  0.00  0.00    +0.004 C 
BRANCH  23  24
ATOM     24  C   LIG    1       25.779 -16.262   3.145  0.00  0.00    +0.000 C 
BRANCH  24  25
ATOM     25  C   LIG    1       25.892 -15.212   2.034  0.00  0.00    +0.000 C 
BRANCH  25  26
ATOM     26  C   LIG    1       25.481 -13.808   2.509  0.00  0.00    -0.000 C 
BRANCH  26  27
ATOM     27  C   LIG    1       26.486 -12.710   2.131  0.00  0.00    -0.000 C 
BRANCH  27  28
ATOM     28  C   LIG    1       27.581 -12.500   3.178  0.00  0.00    +0.000 C 
BRANCH  28  29
ATOM     29  C   LIG    1       28.679 -13.559   3.054  0.00  0.00    +0.001 C 
BRANCH  29  30
ATOM     30  C   LIG    1       28.393 -14.754   3.969  0.00  0.00    +0.013 C 
BRANCH  30  31
ATOM     31  C   LIG    1       28.559 -14.453   5.455  0.00  0.00    +0.104 C 
BRANCH  31  32
ATOM     32  S   LIG    1       28.031 -12.772   5.892  0.00  0.00    +0.022 S 
ATOM     33  O   LIG    1       28.647 -11.809   4.917  0.00  0.00    -0.257 OA
BRANCH  32  34
ATOM     34  C   LIG    1       26.280 -12.971   5.424  0.00  0.00    +0.104 C 
BRANCH  34  35
ATOM     35  C   LIG    1       25.373 -12.980   6.657  0.00  0.00    +0.019 C 
BRANCH  35  36
ATOM     36  C   LIG    1       23.883 -13.054   6.294  0.00  0.00    +0.086 C 
BRANCH  36  37
ATOM     37  C   LIG    1       23.653 -13.507   4.855  0.00  0.00    +0.342 C 
ATOM     38  F   LIG    1       24.860 -13.558   4.221  0.00  0.00    -0.196 F 
ATOM     39  F   LIG    1       22.933 -12.549   4.206  0.00  0.00    -0.196 F 
BRANCH  37  40
ATOM     40  C   LIG    1       22.941 -14.869   4.772  0.00  0.00    +0.454 C 
ATOM     41  F   LIG    1       23.789 -15.895   5.030  0.00  0.00    -0.165 F 
ATOM     42  F   LIG    1       22.413 -15.099   3.545  0.00  0.00    -0.165 F 
ATOM     43  F   LIG    1       21.923 -14.976   5.663  0.00  0.00    -0.165 F 
ENDBRANCH  37  40
ENDBRANCH  36  37
ENDBRANCH  35  36
ENDBRANCH  34  35
ENDBRANCH  32  34
ENDBRANCH  31  32
ENDBRANCH  30  31
ENDBRANCH  29  30
ENDBRANCH  28  29
ENDBRANCH  27  28
ENDBRANCH  26  27
ENDBRANCH  25  26
ENDBRANCH  24  25
ENDBRANCH  23  24
ENDBRANCH  17  23
TORSDOF 17
ENDMDL
