MODEL 1
REMARK VINA RESULT:       4.1      0.000      0.000
REMARK  Name = *****
REMARK                            x       y       z     vdW  Elec       q    Type
REMARK                         _______ _______ _______ _____ _____    ______ ____
ROOT
ATOM      1  C   LIG    1       23.626 -16.050   4.487  0.00  0.00    +0.163 C 
ENDROOT
BRANCH   1   3
ATOM      2  C   LIG    1       21.843 -17.827   4.348  0.00  0.00    +0.233 C 
ATOM      3  N   LIG    1       22.399 -16.642   3.902  0.00  0.00    -0.302 N 
ATOM      4  H   LIG    1       21.969 -16.201   3.096  0.00  0.00    +0.149 HD
ATOM      5  O   LIG    1       22.293 -18.416   5.331  0.00  0.00    -0.274 OA
BRANCH   2   7
ATOM      6  C   LIG    1       20.910 -18.199   1.986  0.00  0.00    +0.037 C 
ATOM      7  C   LIG    1       20.653 -18.387   3.491  0.00  0.00    +0.088 C 
ATOM      8  C   LIG    1       19.351 -17.668   3.867  0.00  0.00    +0.037 C 
BRANCH   7   9
ATOM      9  N   LIG    1       20.486 -19.832   3.772  0.00  0.00    -0.318 NA
ATOM     10  H   LIG    1       21.415 -20.248   3.869  0.00  0.00    +0.119 HD
ATOM     11  H   LIG    1       20.090 -20.282   2.943  0.00  0.00    +0.119 HD
ENDBRANCH   7   9
ENDBRANCH   2   7
ENDBRANCH   1   3
BRANCH   1  12
ATOM     12  C   LIG    1       24.854 -16.496   3.650  0.00  0.00    +0.235 C 
ATOM     13  N   LIG    1       25.395 -17.717   4.006  0.00  0.00    -0.295 N 
ATOM     14  H   LIG    1       25.273 -17.985   4.979  0.00  0.00    +0.150 HD
ATOM     15  O   LIG    1       25.357 -15.818   2.757  0.00  0.00    -0.274 OA
BRANCH  13  16
ATOM     16  C   LIG    1       26.558 -18.214   3.303  0.00  0.00    +0.164 C 
BRANCH  16  17
ATOM     17  N   LIG    1       27.676 -18.072   4.191  0.00  0.00    -0.299 N 
ATOM     18  H   LIG    1       28.292 -17.265   4.141  0.00  0.00    +0.150 HD
ATOM     19  C   LIG    1       27.868 -18.935   5.214  0.00  0.00    +0.327 C 
ATOM     20  O   LIG    1       28.825 -18.839   5.996  0.00  0.00    -0.280 OA
ENDBRANCH  16  17
BRANCH  16  21
ATOM     21  C   LIG    1       26.373 -19.674   2.794  0.00  0.00    +0.079 C 
BRANCH  21  22
ATOM     22  C   LIG    1       25.141 -20.384   3.316  0.00  0.00    -0.019 C 
ATOM     23  C   LIG    1       24.855 -20.847   4.651  0.00  0.00    +0.003 C 
ATOM     24  C   LIG    1       23.511 -21.230   4.680  0.00  0.00    +0.047 C 
ATOM     25  C   LIG    1       22.835 -21.571   5.860  0.00  0.00    +0.026 C 
ATOM     26  C   LIG    1       23.543 -21.483   7.060  0.00  0.00    +0.002 C 
ATOM     27  C   LIG    1       24.903 -21.185   7.058  0.00  0.00    +0.001 C 
ATOM     28  N   LIG    1       23.057 -21.198   3.384  0.00  0.00    -0.360 NA
ATOM     29  H   LIG    1       22.129 -21.475   3.096  0.00  0.00    +0.165 HD
ATOM     30  C   LIG    1       25.584 -20.927   5.857  0.00  0.00    +0.010 C 
ATOM     31  C   LIG    1       24.018 -20.675   2.562  0.00  0.00    +0.087 C 
ENDBRANCH  21  22
ENDBRANCH  16  21
ENDBRANCH  13  16
ENDBRANCH   1  12
BRANCH   1  32
ATOM     32  C   LIG    1       23.541 -14.510   4.549  0.00  0.00    +0.069 C 
BRANCH  32  33
ATOM     33  C   LIG    1       24.586 -13.767   3.751  0.00  0.00    -0.020 C 
ATOM     34  C   LIG    1       25.935 -13.478   4.144  0.00  0.00    +0.003 C 
ATOM     35  C   LIG    1       26.534 -12.747   3.116  0.00  0.00    +0.047 C 
ATOM     36  C   LIG    1       27.859 -12.295   3.174  0.00  0.00    +0.026 C 
ATOM     37  C   LIG    1       28.600 -12.609   4.316  0.00  0.00    +0.002 C 
ATOM     38  C   LIG    1       28.037 -13.347   5.354  0.00  0.00    +0.001 C 
ATOM     39  N   LIG    1       25.594 -12.603   2.124  0.00  0.00    -0.360 NA
ATOM     40  H   LIG    1       25.757 -12.129   1.247  0.00  0.00    +0.165 HD
ATOM     41  C   LIG    1       26.708 -13.780   5.283  0.00  0.00    +0.010 C 
ATOM     42  C   LIG    1       24.423 -13.210   2.493  0.00  0.00    +0.087 C 
ENDBRANCH  32  33
ENDBRANCH   1  32
TORSDOF 10
ENDMDL
MODEL 2
REMARK VINA RESULT:       6.1      2.087      6.743
REMARK  Name = *****
REMARK                            x       y       z     vdW  Elec       q    Type
REMARK                         _______ _______ _______ _____ _____    ______ ____
ROOT
ATOM      1  C   LIG    1       25.439 -17.796   2.993  0.00  0.00    +0.163 C 
ENDROOT
BRANCH   1   3
ATOM      2  C   LIG    1       23.149 -18.761   3.415  0.00  0.00    +0.233 C 
ATOM      3  N   LIG    1       24.121 -17.811   3.671  0.00  0.00    -0.302 N 
ATOM      4  H   LIG    1       23.882 -17.060   4.310  0.00  0.00    +0.149 HD
ATOM      5  O   LIG    1       23.365 -19.713   2.667  0.00  0.00    -0.274 OA
BRANCH   2   7
ATOM      6  C   LIG    1       20.621 -18.497   3.055  0.00  0.00    +0.037 C 
ATOM      7  C   LIG    1       21.756 -18.509   4.094  0.00  0.00    +0.088 C 
ATOM      8  C   LIG    1       21.767 -17.167   4.836  0.00  0.00    +0.037 C 
BRANCH   7   9
ATOM      9  N   LIG    1       21.491 -19.584   5.079  0.00  0.00    -0.318 NA
ATOM     10  H   LIG    1       20.555 -19.439   5.466  0.00  0.00    +0.119 HD
ATOM     11  H   LIG    1       22.119 -19.457   5.877  0.00  0.00    +0.119 HD
ENDBRANCH   7   9
ENDBRANCH   2   7
ENDBRANCH   1   3
BRANCH   1  12
ATOM     12  C   LIG    1       26.418 -16.904   3.802  0.00  0.00    +0.235 C 
ATOM     13  N   LIG    1       26.910 -15.806   3.122  0.00  0.00    -0.295 N 
ATOM     14  H   LIG    1       26.974 -15.906   2.113  0.00  0.00    +0.150 HD
ATOM     15  O   LIG    1       26.779 -17.150   4.951  0.00  0.00    -0.274 OA
BRANCH  13  16
ATOM     16  C   LIG    1       27.849 -14.923   3.780  0.00  0.00    +0.164 C 
BRANCH  16  17
ATOM     17  N   LIG    1       28.106 -13.838   2.877  0.00  0.00    -0.299 N 
ATOM     18  H   LIG    1       27.642 -13.781   1.974  0.00  0.00    +0.150 HD
ATOM     19  C   LIG    1       28.866 -12.784   3.250  0.00  0.00    +0.327 C 
ATOM     20  O   LIG    1       29.106 -11.834   2.491  0.00  0.00    -0.280 OA
ENDBRANCH  16  17
BRANCH  16  21
ATOM     21  C   LIG    1       27.347 -14.442   5.173  0.00  0.00    +0.079 C 
BRANCH  21  22
ATOM     22  C   LIG    1       26.271 -13.376   5.133  0.00  0.00    -0.019 C 
ATOM     23  C   LIG    1       25.507 -12.896   4.009  0.00  0.00    +0.003 C 
ATOM     24  C   LIG    1       24.492 -12.080   4.514  0.00  0.00    +0.047 C 
ATOM     25  C   LIG    1       23.448 -11.575   3.724  0.00  0.00    +0.026 C 
ATOM     26  C   LIG    1       23.416 -11.948   2.380  0.00  0.00    +0.002 C 
ATOM     27  C   LIG    1       24.455 -12.691   1.827  0.00  0.00    +0.001 C 
ATOM     28  N   LIG    1       24.747 -11.903   5.851  0.00  0.00    -0.360 NA
ATOM     29  H   LIG    1       24.201 -11.315   6.466  0.00  0.00    +0.165 HD
ATOM     30  C   LIG    1       25.536 -13.118   2.615  0.00  0.00    +0.010 C 
ATOM     31  C   LIG    1       25.798 -12.690   6.238  0.00  0.00    +0.087 C 
ENDBRANCH  21  22
ENDBRANCH  16  21
ENDBRANCH  13  16
ENDBRANCH   1  12
BRANCH   1  32
ATOM     32  C   LIG    1       26.011 -19.220   2.829  0.00  0.00    +0.069 C 
BRANCH  32  33
ATOM     33  C   LIG    1       26.133 -20.024   4.102  0.00  0.00    -0.020 C 
ATOM     34  C   LIG    1       27.261 -20.082   4.987  0.00  0.00    +0.003 C 
ATOM     35  C   LIG    1       26.951 -20.970   6.019  0.00  0.00    +0.047 C 
ATOM     36  C   LIG    1       27.839 -21.266   7.062  0.00  0.00    +0.026 C 
ATOM     37  C   LIG    1       29.080 -20.626   7.056  0.00  0.00    +0.002 C 
ATOM     38  C   LIG    1       29.416 -19.726   6.048  0.00  0.00    +0.001 C 
ATOM     39  N   LIG    1       25.678 -21.429   5.785  0.00  0.00    -0.360 NA
ATOM     40  H   LIG    1       25.184 -22.077   6.385  0.00  0.00    +0.165 HD
ATOM     41  C   LIG    1       28.521 -19.452   5.009  0.00  0.00    +0.010 C 
ATOM     42  C   LIG    1       25.177 -20.869   4.640  0.00  0.00    +0.087 C 
ENDBRANCH  32  33
ENDBRANCH   1  32
TORSDOF 10
ENDMDL
MODEL 3
REMARK VINA RESULT:       6.4      1.998      7.277
REMARK  Name = *****
REMARK                            x       y       z     vdW  Elec       q    Type
REMARK                         _______ _______ _______ _____ _____    ______ ____
ROOT
ATOM      1  C   LIG    1       27.031 -16.892   4.072  0.00  0.00    +0.163 C 
ENDROOT
BRANCH   1   3
ATOM      2  C   LIG    1       28.005 -14.578   4.301  0.00  0.00    +0.233 C 
ATOM      3  N   LIG    1       27.322 -15.529   3.565  0.00  0.00    -0.302 N 
ATOM      4  H   LIG    1       26.956 -15.246   2.662  0.00  0.00    +0.149 HD
ATOM      5  O   LIG    1       28.496 -14.846   5.397  0.00  0.00    -0.274 OA
BRANCH   2   7
ATOM      6  C   LIG    1       27.576 -12.074   4.670  0.00  0.00    +0.037 C 
ATOM      7  C   LIG    1       28.058 -13.140   3.672  0.00  0.00    +0.088 C 
ATOM      8  C   LIG    1       27.178 -13.083   2.417  0.00  0.00    +0.037 C 
BRANCH   7   9
ATOM      9  N   LIG    1       29.453 -12.832   3.277  0.00  0.00    -0.318 NA
ATOM     10  H   LIG    1       30.036 -12.858   4.117  0.00  0.00    +0.119 HD
ATOM     11  H   LIG    1       29.496 -11.858   2.967  0.00  0.00    +0.119 HD
ENDBRANCH   7   9
ENDBRANCH   2   7
ENDBRANCH   1   3
BRANCH   1  12
ATOM     12  C   LIG    1       25.781 -17.450   3.343  0.00  0.00    +0.235 C 
ATOM     13  N   LIG    1       24.596 -17.346   4.046  0.00  0.00    -0.295 N 
ATOM     14  H   LIG    1       24.683 -17.353   5.059  0.00  0.00    +0.150 HD
ATOM     15  O   LIG    1       25.814 -17.987   2.237  0.00  0.00    -0.274 OA
BRANCH  13  16
ATOM     16  C   LIG    1       23.373 -17.858   3.464  0.00  0.00    +0.164 C 
BRANCH  16  17
ATOM     17  N   LIG    1       23.328 -19.262   3.755  0.00  0.00    -0.299 N 
ATOM     18  H   LIG    1       23.977 -19.913   3.321  0.00  0.00    +0.150 HD
ATOM     19  C   LIG    1       22.514 -19.749   4.718  0.00  0.00    +0.327 C 
ATOM     20  O   LIG    1       22.452 -20.957   4.990  0.00  0.00    -0.280 OA
ENDBRANCH  16  17
BRANCH  16  21
ATOM     21  C   LIG    1       22.108 -17.098   3.960  0.00  0.00    +0.079 C 
BRANCH  21  22
ATOM     22  C   LIG    1       22.385 -15.912   4.862  0.00  0.00    -0.019 C 
ATOM     23  C   LIG    1       23.115 -14.703   4.575  0.00  0.00    +0.003 C 
ATOM     24  C   LIG    1       22.902 -13.826   5.642  0.00  0.00    +0.047 C 
ATOM     25  C   LIG    1       23.317 -12.486   5.630  0.00  0.00    +0.026 C 
ATOM     26  C   LIG    1       23.938 -12.012   4.474  0.00  0.00    +0.002 C 
ATOM     27  C   LIG    1       24.239 -12.879   3.427  0.00  0.00    +0.001 C 
ATOM     28  N   LIG    1       22.250 -14.535   6.621  0.00  0.00    -0.360 NA
ATOM     29  H   LIG    1       22.009 -14.167   7.531  0.00  0.00    +0.165 HD
ATOM     30  C   LIG    1       23.889 -14.238   3.491  0.00  0.00    +0.010 C 
ATOM     31  C   LIG    1       21.918 -15.780   6.158  0.00  0.00    +0.087 C 
ENDBRANCH  21  22
ENDBRANCH  16  21
ENDBRANCH  13  16
ENDBRANCH   1  12
BRANCH   1  32
ATOM     32  C   LIG    1       28.237 -17.838   3.885  0.00  0.00    +0.069 C 
BRANCH  32  33
ATOM     33  C   LIG    1       28.319 -18.990   4.859  0.00  0.00    -0.020 C 
ATOM     34  C   LIG    1       27.226 -19.704   5.454  0.00  0.00    +0.003 C 
ATOM     35  C   LIG    1       27.760 -20.667   6.312  0.00  0.00    +0.047 C 
ATOM     36  C   LIG    1       26.964 -21.543   7.062  0.00  0.00    +0.026 C 
ATOM     37  C   LIG    1       25.578 -21.440   6.922  0.00  0.00    +0.002 C 
ATOM     38  C   LIG    1       25.014 -20.498   6.065  0.00  0.00    +0.001 C 
ATOM     39  N   LIG    1       29.127 -20.558   6.239  0.00  0.00    -0.360 NA
ATOM     40  H   LIG    1       29.775 -21.146   6.745  0.00  0.00    +0.165 HD
ATOM     41  C   LIG    1       25.825 -19.624   5.333  0.00  0.00    +0.010 C 
ATOM     42  C   LIG    1       29.474 -19.556   5.371  0.00  0.00    +0.087 C 
ENDBRANCH  32  33
ENDBRANCH   1  32
TORSDOF 10
ENDMDL
MODEL 4
REMARK VINA RESULT:       6.4      2.153      6.426
REMARK  Name = *****
REMARK                            x       y       z     vdW  Elec       q    Type
REMARK                         _______ _______ _______ _____ _____    ______ ____
ROOT
ATOM      1  C   LIG    1       24.787 -16.895   3.133  0.00  0.00    +0.163 C 
ENDROOT
BRANCH   1   3
ATOM      2  C   LIG    1       23.323 -18.887   3.623  0.00  0.00    +0.233 C 
ATOM      3  N   LIG    1       23.929 -17.711   4.025  0.00  0.00    -0.302 N 
ATOM      4  H   LIG    1       23.718 -17.374   4.958  0.00  0.00    +0.149 HD
ATOM      5  O   LIG    1       23.539 -19.374   2.514  0.00  0.00    -0.274 OA
BRANCH   2   7
ATOM      6  C   LIG    1       22.563 -21.020   4.832  0.00  0.00    +0.037 C 
ATOM      7  C   LIG    1       22.310 -19.515   4.645  0.00  0.00    +0.088 C 
ATOM      8  C   LIG    1       20.871 -19.309   4.153  0.00  0.00    +0.037 C 
BRANCH   7   9
ATOM      9  N   LIG    1       22.455 -18.838   5.955  0.00  0.00    -0.318 NA
ATOM     10  H   LIG    1       22.311 -19.533   6.691  0.00  0.00    +0.119 HD
ATOM     11  H   LIG    1       21.680 -18.180   6.070  0.00  0.00    +0.119 HD
ENDBRANCH   7   9
ENDBRANCH   2   7
ENDBRANCH   1   3
BRANCH   1  12
ATOM     12  C   LIG    1       24.474 -15.393   3.362  0.00  0.00    +0.235 C 
ATOM     13  N   LIG    1       24.518 -14.605   2.227  0.00  0.00    -0.295 N 
ATOM     14  H   LIG    1       25.145 -14.924   1.494  0.00  0.00    +0.150 HD
ATOM     15  O   LIG    1       24.240 -14.901   4.464  0.00  0.00    -0.274 OA
BRANCH  13  16
ATOM     16  C   LIG    1       24.264 -13.184   2.335  0.00  0.00    +0.164 C 
BRANCH  16  17
ATOM     17  N   LIG    1       23.570 -12.975   3.573  0.00  0.00    -0.299 N 
ATOM     18  H   LIG    1       23.141 -13.748   4.076  0.00  0.00    +0.150 HD
ATOM     19  C   LIG    1       23.581 -11.770   4.185  0.00  0.00    +0.327 C 
ATOM     20  O   LIG    1       22.990 -11.560   5.254  0.00  0.00    -0.280 OA
ENDBRANCH  16  17
BRANCH  16  21
ATOM     21  C   LIG    1       25.563 -12.332   2.221  0.00  0.00    +0.079 C 
BRANCH  21  22
ATOM     22  C   LIG    1       26.778 -12.921   2.909  0.00  0.00    -0.019 C 
ATOM     23  C   LIG    1       27.025 -13.106   4.317  0.00  0.00    +0.003 C 
ATOM     24  C   LIG    1       28.177 -13.887   4.438  0.00  0.00    +0.047 C 
ATOM     25  C   LIG    1       28.624 -14.413   5.658  0.00  0.00    +0.026 C 
ATOM     26  C   LIG    1       27.848 -14.167   6.792  0.00  0.00    +0.002 C 
ATOM     27  C   LIG    1       26.741 -13.326   6.721  0.00  0.00    +0.001 C 
ATOM     28  N   LIG    1       28.720 -13.998   3.181  0.00  0.00    -0.360 NA
ATOM     29  H   LIG    1       29.589 -14.470   2.972  0.00  0.00    +0.165 HD
ATOM     30  C   LIG    1       26.356 -12.740   5.504  0.00  0.00    +0.010 C 
ATOM     31  C   LIG    1       27.881 -13.440   2.255  0.00  0.00    +0.087 C 
ENDBRANCH  21  22
ENDBRANCH  16  21
ENDBRANCH  13  16
ENDBRANCH   1  12
BRANCH   1  32
ATOM     32  C   LIG    1       26.286 -17.179   3.369  0.00  0.00    +0.069 C 
BRANCH  32  33
ATOM     33  C   LIG    1       26.598 -18.458   4.110  0.00  0.00    -0.020 C 
ATOM     34  C   LIG    1       27.628 -18.667   5.087  0.00  0.00    +0.003 C 
ATOM     35  C   LIG    1       27.576 -20.003   5.488  0.00  0.00    +0.047 C 
ATOM     36  C   LIG    1       28.450 -20.549   6.436  0.00  0.00    +0.026 C 
ATOM     37  C   LIG    1       29.403 -19.699   7.002  0.00  0.00    +0.002 C 
ATOM     38  C   LIG    1       29.475 -18.358   6.634  0.00  0.00    +0.001 C 
ATOM     39  N   LIG    1       26.546 -20.590   4.793  0.00  0.00    -0.360 NA
ATOM     40  H   LIG    1       26.265 -21.556   4.896  0.00  0.00    +0.165 HD
ATOM     41  C   LIG    1       28.600 -17.833   5.676  0.00  0.00    +0.010 C 
ATOM     42  C   LIG    1       25.953 -19.675   3.965  0.00  0.00    +0.087 C 
ENDBRANCH  32  33
ENDBRANCH   1  32
TORSDOF 10
ENDMDL
