MODEL 1
REMARK VINA RESULT:      -9.9      0.000      0.000
REMARK  Name = *****
REMARK                            x       y       z     vdW  Elec       q    Type
REMARK                         _______ _______ _______ _____ _____    ______ ____
ROOT
ATOM      1  C   LIG    1       24.930 -22.609   5.932  0.00  0.00    +0.072 A 
ATOM      2  C   LIG    1       23.575 -22.763   6.213  0.00  0.00    +0.136 A 
ATOM      3  F   LIG    1       22.693 -21.773   6.008  0.00  0.00    -0.205 F 
ATOM      4  C   LIG    1       23.070 -23.970   6.688  0.00  0.00    +0.039 A 
ATOM      5  C   LIG    1       23.894 -25.092   6.773  0.00  0.00    +0.007 A 
ATOM      6  C   LIG    1       25.252 -25.003   6.433  0.00  0.00    -0.041 A 
ATOM      7  C   LIG    1       25.763 -23.745   6.041  0.00  0.00    +0.020 A 
ENDROOT
BRANCH   1   9
ATOM      8  O   LIG    1       25.213 -21.064   4.219  0.00  0.00    -0.270 OA
ATOM      9  C   LIG    1       25.506 -21.344   5.385  0.00  0.00    +0.249 C 
ATOM     10  N   LIG    1       26.334 -20.511   6.147  0.00  0.00    -0.294 N 
ATOM     11  C   LIG    1       27.179 -20.960   7.267  0.00  0.00    +0.127 C 
ATOM     12  C   LIG    1       28.617 -21.169   6.777  0.00  0.00    +0.127 C 
ATOM     13  N   LIG    1       29.126 -19.907   6.234  0.00  0.00    -0.298 N 
ATOM     14  C   LIG    1       29.859 -19.024   7.004  0.00  0.00    +0.219 C 
ATOM     15  O   LIG    1       29.842 -17.799   6.808  0.00  0.00    -0.275 OA
ATOM     16  C   LIG    1       28.303 -19.382   5.127  0.00  0.00    +0.127 C 
ATOM     17  C   LIG    1       26.822 -19.251   5.544  0.00  0.00    +0.127 C 
BRANCH  14  18
ATOM     18  C   LIG    1       30.738 -19.575   8.079  0.00  0.00    +0.075 C 
ATOM     19  C   LIG    1       31.872 -18.733   8.619  0.00  0.00    +0.013 C 
ATOM     20  C   LIG    1       30.699 -19.048   9.500  0.00  0.00    +0.013 C 
ENDBRANCH  14  18
ENDBRANCH   1   9
BRANCH   6  21
ATOM     21  C   LIG    1       26.130 -26.239   6.333  0.00  0.00    +0.092 C 
BRANCH  21  22
ATOM     22  C   LIG    1       25.379 -27.566   6.307  0.00  0.00    +0.074 C 
ATOM     23  C   LIG    1       25.456 -28.485   7.472  0.00  0.00    +0.011 A 
ATOM     24  C   LIG    1       24.728 -29.671   7.394  0.00  0.00    +0.050 A 
ATOM     25  C   LIG    1       24.759 -30.598   8.442  0.00  0.00    +0.014 A 
ATOM     26  C   LIG    1       25.532 -30.339   9.573  0.00  0.00    +0.001 A 
ATOM     27  C   LIG    1       26.264 -29.156   9.656  0.00  0.00    +0.001 A 
ATOM     28  C   LIG    1       23.930 -29.950   6.190  0.00  0.00    +0.273 C 
ATOM     29  O   LIG    1       23.254 -30.969   6.092  0.00  0.00    -0.266 OA
ATOM     30  N   LIG    1       23.992 -29.008   5.194  0.00  0.00    -0.242 N 
ATOM     31  H   LIG    1       23.459 -29.191   4.349  0.00  0.00    +0.192 HD
ATOM     32  C   LIG    1       26.223 -28.226   8.614  0.00  0.00    +0.010 A 
ATOM     33  N   LIG    1       24.686 -27.839   5.239  0.00  0.00    -0.175 NA
ENDBRANCH  21  22
ENDBRANCH   6  21
TORSDOF 4
ENDMDL
MODEL 2
REMARK VINA RESULT:      -9.8      1.650      9.224
REMARK  Name = *****
REMARK                            x       y       z     vdW  Elec       q    Type
REMARK                         _______ _______ _______ _____ _____    ______ ____
ROOT
ATOM      1  C   LIG    1       25.114 -24.194   6.134  0.00  0.00    +0.072 A 
ATOM      2  C   LIG    1       23.888 -23.812   6.672  0.00  0.00    +0.136 A 
ATOM      3  F   LIG    1       22.765 -24.507   6.436  0.00  0.00    -0.205 F 
ATOM      4  C   LIG    1       23.782 -22.707   7.510  0.00  0.00    +0.039 A 
ATOM      5  C   LIG    1       24.927 -22.032   7.932  0.00  0.00    +0.007 A 
ATOM      6  C   LIG    1       26.192 -22.424   7.472  0.00  0.00    -0.041 A 
ATOM      7  C   LIG    1       26.268 -23.490   6.548  0.00  0.00    +0.020 A 
ENDROOT
BRANCH   1   9
ATOM      8  O   LIG    1       24.896 -25.283   4.093  0.00  0.00    -0.270 OA
ATOM      9  C   LIG    1       25.278 -25.395   5.260  0.00  0.00    +0.249 C 
ATOM     10  N   LIG    1       25.836 -26.589   5.732  0.00  0.00    -0.294 N 
ATOM     11  C   LIG    1       25.809 -27.035   7.135  0.00  0.00    +0.127 C 
ATOM     12  C   LIG    1       24.660 -28.032   7.337  0.00  0.00    +0.127 C 
ATOM     13  N   LIG    1       24.859 -29.178   6.445  0.00  0.00    -0.298 N 
ATOM     14  C   LIG    1       25.500 -30.327   6.866  0.00  0.00    +0.219 C 
ATOM     15  O   LIG    1       26.150 -31.047   6.091  0.00  0.00    -0.275 OA
ATOM     16  C   LIG    1       24.930 -28.795   5.022  0.00  0.00    +0.127 C 
ATOM     17  C   LIG    1       26.008 -27.714   4.787  0.00  0.00    +0.127 C 
BRANCH  14  18
ATOM     18  C   LIG    1       25.366 -30.737   8.296  0.00  0.00    +0.075 C 
ATOM     19  C   LIG    1       26.204 -31.878   8.827  0.00  0.00    +0.013 C 
ATOM     20  C   LIG    1       26.460 -30.482   9.315  0.00  0.00    +0.013 C 
ENDBRANCH  14  18
ENDBRANCH   1   9
BRANCH   6  21
ATOM     21  C   LIG    1       27.468 -21.836   8.053  0.00  0.00    +0.092 C 
BRANCH  21  22
ATOM     22  C   LIG    1       28.100 -20.721   7.228  0.00  0.00    +0.074 C 
ATOM     23  C   LIG    1       29.393 -20.124   7.653  0.00  0.00    +0.011 A 
ATOM     24  C   LIG    1       29.928 -19.126   6.842  0.00  0.00    +0.050 A 
ATOM     25  C   LIG    1       31.135 -18.501   7.181  0.00  0.00    +0.014 A 
ATOM     26  C   LIG    1       31.804 -18.874   8.345  0.00  0.00    +0.001 A 
ATOM     27  C   LIG    1       31.273 -19.871   9.162  0.00  0.00    +0.001 A 
ATOM     28  C   LIG    1       29.209 -18.720   5.625  0.00  0.00    +0.273 C 
ATOM     29  O   LIG    1       29.657 -17.864   4.871  0.00  0.00    -0.266 OA
ATOM     30  N   LIG    1       28.013 -19.353   5.393  0.00  0.00    -0.242 N 
ATOM     31  H   LIG    1       27.494 -19.075   4.565  0.00  0.00    +0.192 HD
ATOM     32  C   LIG    1       30.075 -20.502   8.816  0.00  0.00    +0.010 A 
ATOM     33  N   LIG    1       27.464 -20.334   6.159  0.00  0.00    -0.175 NA
ENDBRANCH  21  22
ENDBRANCH   6  21
TORSDOF 4
ENDMDL
MODEL 3
REMARK VINA RESULT:      -9.7      3.589      8.870
REMARK  Name = *****
REMARK                            x       y       z     vdW  Elec       q    Type
REMARK                         _______ _______ _______ _____ _____    ______ ____
ROOT
ATOM      1  C   LIG    1       24.880 -29.100   7.375  0.00  0.00    +0.072 A 
ATOM      2  C   LIG    1       24.498 -29.516   6.102  0.00  0.00    +0.136 A 
ATOM      3  F   LIG    1       23.770 -30.626   5.910  0.00  0.00    -0.205 F 
ATOM      4  C   LIG    1       24.828 -28.773   4.972  0.00  0.00    +0.039 A 
ATOM      5  C   LIG    1       25.440 -27.527   5.104  0.00  0.00    +0.007 A 
ATOM      6  C   LIG    1       25.780 -27.034   6.371  0.00  0.00    -0.041 A 
ATOM      7  C   LIG    1       25.521 -27.846   7.498  0.00  0.00    +0.020 A 
ENDROOT
BRANCH   1   9
ATOM      8  O   LIG    1       23.316 -30.089   8.780  0.00  0.00    -0.270 OA
ATOM      9  C   LIG    1       24.515 -29.847   8.616  0.00  0.00    +0.249 C 
ATOM     10  N   LIG    1       25.474 -30.256   9.549  0.00  0.00    -0.294 N 
ATOM     11  C   LIG    1       26.771 -29.594   9.771  0.00  0.00    +0.127 C 
ATOM     12  C   LIG    1       26.670 -28.653  10.978  0.00  0.00    +0.127 C 
ATOM     13  N   LIG    1       26.291 -29.430  12.160  0.00  0.00    -0.298 N 
ATOM     14  C   LIG    1       27.234 -29.931  13.038  0.00  0.00    +0.219 C 
ATOM     15  O   LIG    1       27.053 -30.975  13.683  0.00  0.00    -0.275 OA
ATOM     16  C   LIG    1       25.013 -30.150  11.993  0.00  0.00    +0.127 C 
ATOM     17  C   LIG    1       25.032 -31.035  10.727  0.00  0.00    +0.127 C 
BRANCH  14  18
ATOM     18  C   LIG    1       28.495 -29.158  13.247  0.00  0.00    +0.075 C 
ATOM     19  C   LIG    1       29.561 -29.706  14.168  0.00  0.00    +0.013 C 
ATOM     20  C   LIG    1       29.827 -29.624  12.693  0.00  0.00    +0.013 C 
ENDBRANCH  14  18
ENDBRANCH   1   9
BRANCH   6  21
ATOM     21  C   LIG    1       26.273 -25.609   6.565  0.00  0.00    +0.092 C 
BRANCH  21  22
ATOM     22  C   LIG    1       25.180 -24.547   6.611  0.00  0.00    +0.074 C 
ATOM     23  C   LIG    1       25.506 -23.165   7.048  0.00  0.00    +0.011 A 
ATOM     24  C   LIG    1       24.467 -22.237   7.045  0.00  0.00    +0.050 A 
ATOM     25  C   LIG    1       24.687 -20.917   7.457  0.00  0.00    +0.014 A 
ATOM     26  C   LIG    1       25.956 -20.527   7.883  0.00  0.00    +0.001 A 
ATOM     27  C   LIG    1       27.000 -21.451   7.889  0.00  0.00    +0.001 A 
ATOM     28  C   LIG    1       23.124 -22.657   6.616  0.00  0.00    +0.273 C 
ATOM     29  O   LIG    1       22.188 -21.866   6.574  0.00  0.00    -0.266 OA
ATOM     30  N   LIG    1       22.988 -23.979   6.271  0.00  0.00    -0.242 N 
ATOM     31  H   LIG    1       22.065 -24.291   5.986  0.00  0.00    +0.192 HD
ATOM     32  C   LIG    1       26.781 -22.765   7.466  0.00  0.00    +0.010 A 
ATOM     33  N   LIG    1       23.981 -24.909   6.256  0.00  0.00    -0.175 NA
ENDBRANCH  21  22
ENDBRANCH   6  21
TORSDOF 4
ENDMDL
MODEL 4
REMARK VINA RESULT:      -9.7      3.029      9.285
REMARK  Name = *****
REMARK                            x       y       z     vdW  Elec       q    Type
REMARK                         _______ _______ _______ _____ _____    ______ ____
ROOT
ATOM      1  C   LIG    1       25.025 -28.146   6.574  0.00  0.00    +0.072 A 
ATOM      2  C   LIG    1       25.680 -28.256   5.350  0.00  0.00    +0.136 A 
ATOM      3  F   LIG    1       26.019 -29.448   4.835  0.00  0.00    -0.205 F 
ATOM      4  C   LIG    1       25.980 -27.131   4.589  0.00  0.00    +0.039 A 
ATOM      5  C   LIG    1       25.516 -25.875   4.979  0.00  0.00    +0.007 A 
ATOM      6  C   LIG    1       24.791 -25.723   6.169  0.00  0.00    -0.041 A 
ATOM      7  C   LIG    1       24.578 -26.866   6.973  0.00  0.00    +0.020 A 
ENDROOT
BRANCH   1   9
ATOM      8  O   LIG    1       23.567 -29.862   7.148  0.00  0.00    -0.270 OA
ATOM      9  C   LIG    1       24.651 -29.330   7.404  0.00  0.00    +0.249 C 
ATOM     10  N   LIG    1       25.479 -29.820   8.421  0.00  0.00    -0.294 N 
ATOM     11  C   LIG    1       26.454 -29.014   9.175  0.00  0.00    +0.127 C 
ATOM     12  C   LIG    1       25.842 -28.584  10.514  0.00  0.00    +0.127 C 
ATOM     13  N   LIG    1       25.475 -29.780  11.278  0.00  0.00    -0.298 N 
ATOM     14  C   LIG    1       26.326 -30.337  12.214  0.00  0.00    +0.219 C 
ATOM     15  O   LIG    1       26.331 -31.552  12.467  0.00  0.00    -0.275 OA
ATOM     16  C   LIG    1       24.524 -30.652  10.563  0.00  0.00    +0.127 C 
ATOM     17  C   LIG    1       25.055 -31.028   9.162  0.00  0.00    +0.127 C 
BRANCH  14  18
ATOM     18  C   LIG    1       27.238 -29.433  12.977  0.00  0.00    +0.075 C 
ATOM     19  C   LIG    1       28.182 -30.019  14.002  0.00  0.00    +0.013 C 
ATOM     20  C   LIG    1       28.736 -29.417  12.745  0.00  0.00    +0.013 C 
ENDBRANCH  14  18
ENDBRANCH   1   9
BRANCH   6  21
ATOM     21  C   LIG    1       24.113 -24.411   6.527  0.00  0.00    +0.092 C 
BRANCH  21  22
ATOM     22  C   LIG    1       25.052 -23.220   6.685  0.00  0.00    +0.074 C 
ATOM     23  C   LIG    1       25.003 -22.102   5.708  0.00  0.00    +0.011 A 
ATOM     24  C   LIG    1       25.871 -21.033   5.922  0.00  0.00    +0.050 A 
ATOM     25  C   LIG    1       25.899 -19.947   5.039  0.00  0.00    +0.014 A 
ATOM     26  C   LIG    1       25.057 -19.936   3.929  0.00  0.00    +0.001 A 
ATOM     27  C   LIG    1       24.187 -21.003   3.707  0.00  0.00    +0.001 A 
ATOM     28  C   LIG    1       26.774 -21.057   7.084  0.00  0.00    +0.273 C 
ATOM     29  O   LIG    1       27.535 -20.127   7.324  0.00  0.00    -0.266 OA
ATOM     30  N   LIG    1       26.711 -22.180   7.872  0.00  0.00    -0.242 N 
ATOM     31  H   LIG    1       27.338 -22.221   8.670  0.00  0.00    +0.192 HD
ATOM     32  C   LIG    1       24.152 -22.081   4.596  0.00  0.00    +0.010 A 
ATOM     33  N   LIG    1       25.873 -23.237   7.695  0.00  0.00    -0.175 NA
ENDBRANCH  21  22
ENDBRANCH   6  21
TORSDOF 4
ENDMDL
MODEL 5
REMARK VINA RESULT:      -9.4      2.900      9.057
REMARK  Name = *****
REMARK                            x       y       z     vdW  Elec       q    Type
REMARK                         _______ _______ _______ _____ _____    ______ ____
ROOT
ATOM      1  C   LIG    1       24.977 -27.963   6.494  0.00  0.00    +0.072 A 
ATOM      2  C   LIG    1       25.728 -27.950   5.321  0.00  0.00    +0.136 A 
ATOM      3  F   LIG    1       26.194 -29.080   4.768  0.00  0.00    -0.205 F 
ATOM      4  C   LIG    1       25.999 -26.760   4.652  0.00  0.00    +0.039 A 
ATOM      5  C   LIG    1       25.415 -25.567   5.075  0.00  0.00    +0.007 A 
ATOM      6  C   LIG    1       24.593 -25.542   6.211  0.00  0.00    -0.041 A 
ATOM      7  C   LIG    1       24.407 -26.745   6.929  0.00  0.00    +0.020 A 
ENDROOT
BRANCH   1   9
ATOM      8  O   LIG    1       23.595 -29.792   6.875  0.00  0.00    -0.270 OA
ATOM      9  C   LIG    1       24.632 -29.220   7.223  0.00  0.00    +0.249 C 
ATOM     10  N   LIG    1       25.436 -29.733   8.247  0.00  0.00    -0.294 N 
ATOM     11  C   LIG    1       26.324 -28.929   9.104  0.00  0.00    +0.127 C 
ATOM     12  C   LIG    1       25.623 -28.627  10.435  0.00  0.00    +0.127 C 
ATOM     13  N   LIG    1       25.289 -29.891  11.097  0.00  0.00    -0.298 N 
ATOM     14  C   LIG    1       26.123 -30.465  12.038  0.00  0.00    +0.219 C 
ATOM     15  O   LIG    1       26.186 -31.692  12.210  0.00  0.00    -0.275 OA
ATOM     16  C   LIG    1       24.426 -30.763  10.276  0.00  0.00    +0.127 C 
ATOM     17  C   LIG    1       25.047 -31.012   8.883  0.00  0.00    +0.127 C 
BRANCH  14  18
ATOM     18  C   LIG    1       26.943 -29.567  12.906  0.00  0.00    +0.075 C 
ATOM     19  C   LIG    1       27.863 -30.170  13.944  0.00  0.00    +0.013 C 
ATOM     20  C   LIG    1       28.448 -29.457  12.760  0.00  0.00    +0.013 C 
ENDBRANCH  14  18
ENDBRANCH   1   9
BRANCH   6  21
ATOM     21  C   LIG    1       23.794 -24.306   6.589  0.00  0.00    +0.092 C 
BRANCH  21  22
ATOM     22  C   LIG    1       24.278 -23.005   5.958  0.00  0.00    +0.074 C 
ATOM     23  C   LIG    1       25.368 -22.228   6.603  0.00  0.00    +0.011 A 
ATOM     24  C   LIG    1       25.779 -21.060   5.964  0.00  0.00    +0.050 A 
ATOM     25  C   LIG    1       26.789 -20.262   6.514  0.00  0.00    +0.014 A 
ATOM     26  C   LIG    1       27.385 -20.632   7.719  0.00  0.00    +0.001 A 
ATOM     27  C   LIG    1       26.976 -21.798   8.365  0.00  0.00    +0.001 A 
ATOM     28  C   LIG    1       25.134 -20.661   4.703  0.00  0.00    +0.273 C 
ATOM     29  O   LIG    1       25.483 -19.656   4.095  0.00  0.00    -0.266 OA
ATOM     30  N   LIG    1       24.124 -21.478   4.259  0.00  0.00    -0.242 N 
ATOM     31  H   LIG    1       23.656 -21.210   3.398  0.00  0.00    +0.192 HD
ATOM     32  C   LIG    1       25.977 -22.600   7.808  0.00  0.00    +0.010 A 
ATOM     33  N   LIG    1       23.701 -22.625   4.854  0.00  0.00    -0.175 NA
ENDBRANCH  21  22
ENDBRANCH   6  21
TORSDOF 4
ENDMDL
MODEL 6
REMARK VINA RESULT:      -9.3      3.544      4.438
REMARK  Name = *****
REMARK                            x       y       z     vdW  Elec       q    Type
REMARK                         _______ _______ _______ _____ _____    ______ ____
ROOT
ATOM      1  C   LIG    1       24.405 -24.941   6.369  0.00  0.00    +0.072 A 
ATOM      2  C   LIG    1       25.711 -24.879   6.850  0.00  0.00    +0.136 A 
ATOM      3  F   LIG    1       26.181 -23.791   7.479  0.00  0.00    -0.205 F 
ATOM      4  C   LIG    1       26.576 -25.962   6.727  0.00  0.00    +0.039 A 
ATOM      5  C   LIG    1       26.112 -27.180   6.232  0.00  0.00    +0.007 A 
ATOM      6  C   LIG    1       24.784 -27.312   5.801  0.00  0.00    -0.041 A 
ATOM      7  C   LIG    1       23.949 -26.173   5.848  0.00  0.00    +0.020 A 
ENDROOT
BRANCH   1   9
ATOM      8  O   LIG    1       22.283 -24.120   6.843  0.00  0.00    -0.270 OA
ATOM      9  C   LIG    1       23.433 -23.816   6.514  0.00  0.00    +0.249 C 
ATOM     10  N   LIG    1       23.797 -22.482   6.292  0.00  0.00    -0.294 N 
ATOM     11  C   LIG    1       24.886 -22.044   5.403  0.00  0.00    +0.127 C 
ATOM     12  C   LIG    1       24.308 -21.629   4.044  0.00  0.00    +0.127 C 
ATOM     13  N   LIG    1       23.349 -20.540   4.245  0.00  0.00    -0.298 N 
ATOM     14  C   LIG    1       23.717 -19.213   4.130  0.00  0.00    +0.219 C 
ATOM     15  O   LIG    1       23.163 -18.311   4.778  0.00  0.00    -0.275 OA
ATOM     16  C   LIG    1       22.246 -20.902   5.155  0.00  0.00    +0.127 C 
ATOM     17  C   LIG    1       22.785 -21.425   6.506  0.00  0.00    +0.127 C 
BRANCH  14  18
ATOM     18  C   LIG    1       24.791 -18.852   3.157  0.00  0.00    +0.075 C 
ATOM     19  C   LIG    1       25.468 -17.504   3.259  0.00  0.00    +0.013 C 
ATOM     20  C   LIG    1       26.248 -18.749   3.564  0.00  0.00    +0.013 C 
ENDBRANCH  14  18
ENDBRANCH   1   9
BRANCH   6  21
ATOM     21  C   LIG    1       24.196 -28.665   5.435  0.00  0.00    +0.092 C 
BRANCH  21  22
ATOM     22  C   LIG    1       24.989 -29.870   5.929  0.00  0.00    +0.074 C 
ATOM     23  C   LIG    1       24.880 -30.299   7.347  0.00  0.00    +0.011 A 
ATOM     24  C   LIG    1       25.613 -31.421   7.728  0.00  0.00    +0.050 A 
ATOM     25  C   LIG    1       25.577 -31.882   9.050  0.00  0.00    +0.014 A 
ATOM     26  C   LIG    1       24.810 -31.208   9.998  0.00  0.00    +0.001 A 
ATOM     27  C   LIG    1       24.076 -30.083   9.623  0.00  0.00    +0.001 A 
ATOM     28  C   LIG    1       26.439 -32.118   6.731  0.00  0.00    +0.273 C 
ATOM     29  O   LIG    1       27.079 -33.124   7.018  0.00  0.00    -0.266 OA
ATOM     30  N   LIG    1       26.450 -31.573   5.471  0.00  0.00    -0.242 N 
ATOM     31  H   LIG    1       27.027 -32.032   4.772  0.00  0.00    +0.192 HD
ATOM     32  C   LIG    1       24.102 -29.632   8.301  0.00  0.00    +0.010 A 
ATOM     33  N   LIG    1       25.744 -30.484   5.063  0.00  0.00    -0.175 NA
ENDBRANCH  21  22
ENDBRANCH   6  21
TORSDOF 4
ENDMDL
MODEL 7
REMARK VINA RESULT:      -9.2      3.562      4.705
REMARK  Name = *****
REMARK                            x       y       z     vdW  Elec       q    Type
REMARK                         _______ _______ _______ _____ _____    ______ ____
ROOT
ATOM      1  C   LIG    1       24.427 -24.909   6.358  0.00  0.00    +0.072 A 
ATOM      2  C   LIG    1       25.717 -24.843   6.879  0.00  0.00    +0.136 A 
ATOM      3  F   LIG    1       26.158 -23.762   7.541  0.00  0.00    -0.205 F 
ATOM      4  C   LIG    1       26.596 -25.916   6.764  0.00  0.00    +0.039 A 
ATOM      5  C   LIG    1       26.158 -27.130   6.235  0.00  0.00    +0.007 A 
ATOM      6  C   LIG    1       24.845 -27.266   5.762  0.00  0.00    -0.041 A 
ATOM      7  C   LIG    1       23.998 -26.135   5.803  0.00  0.00    +0.020 A 
ENDROOT
BRANCH   1   9
ATOM      8  O   LIG    1       22.291 -24.112   6.808  0.00  0.00    -0.270 OA
ATOM      9  C   LIG    1       23.440 -23.795   6.492  0.00  0.00    +0.249 C 
ATOM     10  N   LIG    1       23.792 -22.457   6.275  0.00  0.00    -0.294 N 
ATOM     11  C   LIG    1       24.886 -22.006   5.399  0.00  0.00    +0.127 C 
ATOM     12  C   LIG    1       24.319 -21.596   4.034  0.00  0.00    +0.127 C 
ATOM     13  N   LIG    1       23.345 -20.518   4.224  0.00  0.00    -0.298 N 
ATOM     14  C   LIG    1       23.699 -19.187   4.114  0.00  0.00    +0.219 C 
ATOM     15  O   LIG    1       23.127 -18.292   4.756  0.00  0.00    -0.275 OA
ATOM     16  C   LIG    1       22.236 -20.894   5.122  0.00  0.00    +0.127 C 
ATOM     17  C   LIG    1       22.765 -21.411   6.478  0.00  0.00    +0.127 C 
BRANCH  14  18
ATOM     18  C   LIG    1       24.780 -18.813   3.153  0.00  0.00    +0.075 C 
ATOM     19  C   LIG    1       25.455 -17.466   3.277  0.00  0.00    +0.013 C 
ATOM     20  C   LIG    1       26.233 -18.714   3.572  0.00  0.00    +0.013 C 
ENDBRANCH  14  18
ENDBRANCH   1   9
BRANCH   6  21
ATOM     21  C   LIG    1       24.281 -28.617   5.355  0.00  0.00    +0.092 C 
BRANCH  21  22
ATOM     22  C   LIG    1       24.410 -29.714   6.407  0.00  0.00    +0.074 C 
ATOM     23  C   LIG    1       25.137 -30.969   6.085  0.00  0.00    +0.011 A 
ATOM     24  C   LIG    1       25.239 -31.921   7.097  0.00  0.00    +0.050 A 
ATOM     25  C   LIG    1       25.895 -33.137   6.871  0.00  0.00    +0.014 A 
ATOM     26  C   LIG    1       26.445 -33.404   5.618  0.00  0.00    +0.001 A 
ATOM     27  C   LIG    1       26.346 -32.456   4.601  0.00  0.00    +0.001 A 
ATOM     28  C   LIG    1       24.638 -31.646   8.411  0.00  0.00    +0.273 C 
ATOM     29  O   LIG    1       24.726 -32.445   9.337  0.00  0.00    -0.266 OA
ATOM     30  N   LIG    1       23.976 -30.449   8.532  0.00  0.00    -0.242 N 
ATOM     31  H   LIG    1       23.542 -30.247   9.428  0.00  0.00    +0.192 HD
ATOM     32  C   LIG    1       25.702 -31.238   4.832  0.00  0.00    +0.010 A 
ATOM     33  N   LIG    1       23.863 -29.495   7.568  0.00  0.00    -0.175 NA
ENDBRANCH  21  22
ENDBRANCH   6  21
TORSDOF 4
ENDMDL
MODEL 8
REMARK VINA RESULT:      -8.9      1.470      2.037
REMARK  Name = *****
REMARK                            x       y       z     vdW  Elec       q    Type
REMARK                         _______ _______ _______ _____ _____    ______ ____
ROOT
ATOM      1  C   LIG    1       24.585 -22.462   5.784  0.00  0.00    +0.072 A 
ATOM      2  C   LIG    1       23.351 -22.300   6.408  0.00  0.00    +0.136 A 
ATOM      3  F   LIG    1       22.780 -21.093   6.542  0.00  0.00    -0.205 F 
ATOM      4  C   LIG    1       22.638 -23.393   6.889  0.00  0.00    +0.039 A 
ATOM      5  C   LIG    1       23.088 -24.690   6.643  0.00  0.00    +0.007 A 
ATOM      6  C   LIG    1       24.291 -24.906   5.956  0.00  0.00    -0.041 A 
ATOM      7  C   LIG    1       25.046 -23.779   5.558  0.00  0.00    +0.020 A 
ENDROOT
BRANCH   1   9
ATOM      8  O   LIG    1       25.300 -21.158   3.998  0.00  0.00    -0.270 OA
ATOM      9  C   LIG    1       25.366 -21.320   5.220  0.00  0.00    +0.249 C 
ATOM     10  N   LIG    1       26.133 -20.471   6.026  0.00  0.00    -0.294 N 
ATOM     11  C   LIG    1       26.731 -20.849   7.317  0.00  0.00    +0.127 C 
ATOM     12  C   LIG    1       28.204 -21.227   7.113  0.00  0.00    +0.127 C 
ATOM     13  N   LIG    1       28.917 -20.082   6.541  0.00  0.00    -0.298 N 
ATOM     14  C   LIG    1       29.595 -19.175   7.333  0.00  0.00    +0.219 C 
ATOM     15  O   LIG    1       29.731 -17.984   7.012  0.00  0.00    -0.275 OA
ATOM     16  C   LIG    1       28.346 -19.629   5.258  0.00  0.00    +0.127 C 
ATOM     17  C   LIG    1       26.836 -19.333   5.392  0.00  0.00    +0.127 C 
BRANCH  14  18
ATOM     18  C   LIG    1       30.224 -19.662   8.597  0.00  0.00    +0.075 C 
ATOM     19  C   LIG    1       31.335 -20.685   8.531  0.00  0.00    +0.013 C 
ATOM     20  C   LIG    1       31.641 -19.289   8.989  0.00  0.00    +0.013 C 
ENDBRANCH  14  18
ENDBRANCH   1   9
BRANCH   6  21
ATOM     21  C   LIG    1       24.714 -26.295   5.507  0.00  0.00    +0.092 C 
BRANCH  21  22
ATOM     22  C   LIG    1       25.290 -27.182   6.606  0.00  0.00    +0.074 C 
ATOM     23  C   LIG    1       24.907 -28.615   6.680  0.00  0.00    +0.011 A 
ATOM     24  C   LIG    1       25.487 -29.376   7.693  0.00  0.00    +0.050 A 
ATOM     25  C   LIG    1       25.167 -30.730   7.841  0.00  0.00    +0.014 A 
ATOM     26  C   LIG    1       24.253 -31.325   6.974  0.00  0.00    +0.001 A 
ATOM     27  C   LIG    1       23.667 -30.569   5.959  0.00  0.00    +0.001 A 
ATOM     28  C   LIG    1       26.436 -28.740   8.620  0.00  0.00    +0.273 C 
ATOM     29  O   LIG    1       26.989 -29.378   9.509  0.00  0.00    -0.266 OA
ATOM     30  N   LIG    1       26.658 -27.399   8.429  0.00  0.00    -0.242 N 
ATOM     31  H   LIG    1       27.299 -26.939   9.069  0.00  0.00    +0.192 HD
ATOM     32  C   LIG    1       23.997 -29.220   5.805  0.00  0.00    +0.010 A 
ATOM     33  N   LIG    1       26.114 -26.628   7.449  0.00  0.00    -0.175 NA
ENDBRANCH  21  22
ENDBRANCH   6  21
TORSDOF 4
ENDMDL
MODEL 9
REMARK VINA RESULT:      -8.8      3.639      9.162
REMARK  Name = *****
REMARK                            x       y       z     vdW  Elec       q    Type
REMARK                         _______ _______ _______ _____ _____    ______ ____
ROOT
ATOM      1  C   LIG    1       24.981 -28.897   6.795  0.00  0.00    +0.072 A 
ATOM      2  C   LIG    1       25.712 -29.252   5.665  0.00  0.00    +0.136 A 
ATOM      3  F   LIG    1       26.127 -30.511   5.458  0.00  0.00    -0.205 F 
ATOM      4  C   LIG    1       26.014 -28.317   4.679  0.00  0.00    +0.039 A 
ATOM      5  C   LIG    1       25.480 -27.031   4.743  0.00  0.00    +0.007 A 
ATOM      6  C   LIG    1       24.678 -26.648   5.828  0.00  0.00    -0.041 A 
ATOM      7  C   LIG    1       24.461 -27.584   6.864  0.00  0.00    +0.020 A 
ENDROOT
BRANCH   1   9
ATOM      8  O   LIG    1       23.467 -30.353   7.789  0.00  0.00    -0.270 OA
ATOM      9  C   LIG    1       24.603 -29.876   7.858  0.00  0.00    +0.249 C 
ATOM     10  N   LIG    1       25.484 -30.242   8.882  0.00  0.00    -0.294 N 
ATOM     11  C   LIG    1       26.575 -29.397   9.396  0.00  0.00    +0.127 C 
ATOM     12  C   LIG    1       26.117 -28.684  10.675  0.00  0.00    +0.127 C 
ATOM     13  N   LIG    1       25.741 -29.687  11.674  0.00  0.00    -0.298 N 
ATOM     14  C   LIG    1       26.632 -30.135  12.630  0.00  0.00    +0.219 C 
ATOM     15  O   LIG    1       26.577 -31.281  13.104  0.00  0.00    -0.275 OA
ATOM     16  C   LIG    1       24.671 -30.592  11.209  0.00  0.00    +0.127 C 
ATOM     17  C   LIG    1       25.047 -31.257   9.866  0.00  0.00    +0.127 C 
BRANCH  14  18
ATOM     18  C   LIG    1       27.669 -29.188  13.139  0.00  0.00    +0.075 C 
ATOM     19  C   LIG    1       28.336 -29.457  14.469  0.00  0.00    +0.013 C 
ATOM     20  C   LIG    1       29.138 -29.559  13.204  0.00  0.00    +0.013 C 
ENDBRANCH  14  18
ENDBRANCH   1   9
BRANCH   6  21
ATOM     21  C   LIG    1       23.930 -25.325   5.837  0.00  0.00    +0.092 C 
BRANCH  21  22
ATOM     22  C   LIG    1       24.616 -24.199   6.603  0.00  0.00    +0.074 C 
ATOM     23  C   LIG    1       24.061 -22.822   6.554  0.00  0.00    +0.011 A 
ATOM     24  C   LIG    1       24.722 -21.844   7.295  0.00  0.00    +0.050 A 
ATOM     25  C   LIG    1       24.272 -20.518   7.290  0.00  0.00    +0.014 A 
ATOM     26  C   LIG    1       23.158 -20.168   6.530  0.00  0.00    +0.001 A 
ATOM     27  C   LIG    1       22.493 -21.141   5.785  0.00  0.00    +0.001 A 
ATOM     28  C   LIG    1       25.911 -22.213   8.079  0.00  0.00    +0.273 C 
ATOM     29  O   LIG    1       26.506 -21.389   8.765  0.00  0.00    -0.266 OA
ATOM     30  N   LIG    1       26.307 -23.524   7.992  0.00  0.00    -0.242 N 
ATOM     31  H   LIG    1       27.135 -23.794   8.514  0.00  0.00    +0.192 HD
ATOM     32  C   LIG    1       22.936 -22.467   5.801  0.00  0.00    +0.010 A 
ATOM     33  N   LIG    1       25.683 -24.504   7.284  0.00  0.00    -0.175 NA
ENDBRANCH  21  22
ENDBRANCH   6  21
TORSDOF 4
ENDMDL
