MODEL 1
REMARK VINA RESULT:       5.7      0.000      0.000
REMARK  Name = *****
REMARK                            x       y       z     vdW  Elec       q    Type
REMARK                         _______ _______ _______ _____ _____    ______ ____
ROOT
ATOM      1  C   LIG    1       27.093 -16.867   4.165  0.00  0.00    +0.042 C 
ENDROOT
BRANCH   1   2
ATOM      2  C   LIG    1       28.263 -16.209   4.934  0.00  0.00    +0.087 C 
BRANCH   2   6
ATOM      3  C   LIG    1       25.800 -13.997   4.240  0.00  0.00    +0.093 C 
ATOM      4  C   LIG    1       26.659 -13.547   5.444  0.00  0.00    +0.044 C 
ATOM      5  C   LIG    1       28.180 -13.724   5.266  0.00  0.00    +0.059 C 
ATOM      6  N   LIG    1       28.558 -14.867   4.429  0.00  0.00    -0.296 NA
ATOM      7  C   LIG    1       28.084 -14.492   3.100  0.00  0.00    +0.059 C 
ATOM      8  C   LIG    1       28.662 -13.080   2.985  0.00  0.00    +0.020 C 
ATOM      9  C   LIG    1       28.768 -12.586   4.424  0.00  0.00    +0.020 C 
ATOM     10  C   LIG    1       26.556 -14.495   2.991  0.00  0.00    +0.044 C 
BRANCH   3  13
ATOM     11  C   LIG    1       25.513 -11.825   1.870  0.00  0.00    +0.088 C 
ATOM     12  C   LIG    1       24.511 -12.230   2.875  0.00  0.00    +0.131 A 
ATOM     13  N   LIG    1       24.654 -13.154   3.889  0.00  0.00    -0.312 N 
ATOM     14  C   LIG    1       23.400 -13.225   4.481  0.00  0.00    +0.136 A 
ATOM     15  N   LIG    1       22.602 -12.352   3.905  0.00  0.00    -0.134 NA
ATOM     16  N   LIG    1       23.288 -11.743   2.903  0.00  0.00    -0.135 NA
BRANCH  14  17
ATOM     17  C   LIG    1       23.002 -14.147   5.593  0.00  0.00    +0.051 C 
ATOM     18  C   LIG    1       22.417 -15.452   5.045  0.00  0.00    +0.015 C 
ATOM     19  C   LIG    1       21.993 -13.457   6.510  0.00  0.00    +0.015 C 
ENDBRANCH  14  17
ENDBRANCH   3  13
ENDBRANCH   2   6
ENDBRANCH   1   2
BRANCH   1  20
ATOM     20  C   LIG    1       27.225 -18.391   3.954  0.00  0.00    +0.104 C 
BRANCH  20  21
ATOM     21  C   LIG    1       27.964 -19.119   5.075  0.00  0.00    -0.027 A 
ATOM     22  C   LIG    1       27.850 -20.515   5.180  0.00  0.00    +0.005 A 
ATOM     23  C   LIG    1       28.551 -21.221   6.163  0.00  0.00    +0.000 A 
ATOM     24  C   LIG    1       29.373 -20.546   7.061  0.00  0.00    +0.000 A 
ATOM     25  C   LIG    1       29.475 -19.160   6.994  0.00  0.00    +0.000 A 
ATOM     26  C   LIG    1       28.760 -18.451   6.022  0.00  0.00    +0.005 A 
ENDBRANCH  20  21
BRANCH  20  27
ATOM     27  N   LIG    1       25.888 -18.966   3.790  0.00  0.00    -0.308 N 
ATOM     28  H   LIG    1       25.799 -19.975   3.920  0.00  0.00    +0.149 HD
ATOM     29  C   LIG    1       24.808 -18.287   3.285  0.00  0.00    +0.217 C 
ATOM     30  O   LIG    1       24.840 -17.084   3.002  0.00  0.00    -0.276 OA
BRANCH  29  31
ATOM     31  C   LIG    1       23.538 -19.120   3.143  0.00  0.00    +0.075 C 
ATOM     32  C   LIG    1       23.816 -20.630   3.331  0.00  0.00    +0.018 C 
ATOM     33  C   LIG    1       23.873 -21.089   4.791  0.00  0.00    +0.076 C 
ATOM     34  C   LIG    1       22.663 -20.630   5.584  0.00  0.00    +0.249 C 
ATOM     35  F   LIG    1       21.553 -21.251   5.105  0.00  0.00    -0.206 F 
ATOM     36  F   LIG    1       22.790 -21.016   6.877  0.00  0.00    -0.206 F 
ATOM     37  C   LIG    1       22.467 -19.129   5.511  0.00  0.00    +0.076 C 
ATOM     38  C   LIG    1       22.376 -18.651   4.065  0.00  0.00    +0.018 C 
ENDBRANCH  29  31
ENDBRANCH  20  27
ENDBRANCH   1  20
TORSDOF 8
ENDMDL
