MODEL 1
REMARK VINA RESULT:      -9.2      0.000      0.000
REMARK  Name = *****
REMARK                            x       y       z     vdW  Elec       q    Type
REMARK                         _______ _______ _______ _____ _____    ______ ____
ROOT
ATOM      1  C   UNK A  0       27.665 -20.344   7.536  0.00  0.00    +0.217 C 
ATOM      2  N   PHE A  1       26.661 -20.619   6.622  0.00  0.00    -0.302 N 
ATOM      3  H   PHE A  1       26.918 -21.057   5.745  0.00  0.00    +0.149 HD
ATOM      4  O   UNK A  0       27.411 -19.961   8.679  0.00  0.00    -0.276 OA
ENDROOT
BRANCH   1   8
ATOM      5  C   UNK A  0       31.186 -19.039   8.560  0.00  0.00    -0.008 C 
ATOM      6  C   UNK A  0       30.231 -18.370   7.560  0.00  0.00    +0.004 C 
ATOM      7  C   UNK A  0       29.752 -19.311   6.467  0.00  0.00    +0.013 C 
ATOM      8  C   UNK A  0       29.095 -20.583   7.017  0.00  0.00    +0.075 C 
ATOM      9  C   UNK A  0       30.009 -21.275   8.041  0.00  0.00    +0.013 C 
ATOM     10  C   UNK A  0       30.591 -20.348   9.105  0.00  0.00    +0.004 C 
BRANCH   5  12
ATOM     11  C   UNK A  0       30.363 -17.631  10.545  0.00  0.00    +0.007 C 
ATOM     12  C   UNK A  0       31.568 -18.036   9.690  0.00  0.00    -0.014 C 
ATOM     13  C   UNK A  0       32.257 -16.774   9.151  0.00  0.00    +0.007 C 
ENDBRANCH   5  12
ENDBRANCH   1   8
BRANCH   2  14
ATOM     14  CA  PHE A  1       25.230 -20.677   7.023  0.00  0.00    +0.186 C 
BRANCH  14  15
ATOM     15  C   PHE A  1       24.339 -20.726   5.780  0.00  0.00    +0.326 C 
ATOM     16  O   PHE A  1       24.740 -21.025   4.650  0.00  0.00    -0.249 OA
BRANCH  15  17
ATOM     17  OXT PHE A  1       23.057 -20.357   6.004  0.00  0.00    -0.479 OA
ATOM     18  HXT PHE A  1       22.756 -19.783   5.270  0.00  0.00    +0.295 HD
ENDBRANCH  15  17
ENDBRANCH  14  15
BRANCH  14  19
ATOM     19  CB  PHE A  1       24.918 -21.872   7.956  0.00  0.00    +0.069 C 
BRANCH  19  20
ATOM     20  CG  PHE A  1       24.898 -23.182   7.197  0.00  0.00    -0.045 A 
ATOM     21  CD2 PHE A  1       23.678 -23.754   6.812  0.00  0.00    +0.003 A 
ATOM     22  CE2 PHE A  1       23.645 -25.020   6.224  0.00  0.00    +0.000 A 
ATOM     23  CZ  PHE A  1       24.829 -25.723   6.010  0.00  0.00    +0.000 A 
ATOM     24  CE1 PHE A  1       26.049 -25.153   6.364  0.00  0.00    +0.000 A 
ATOM     25  CD1 PHE A  1       26.086 -23.886   6.948  0.00  0.00    +0.003 A 
ENDBRANCH  19  20
ENDBRANCH  14  19
ENDBRANCH   2  14
TORSDOF 7
ENDMDL
MODEL 2
REMARK VINA RESULT:      -9.1      3.808      7.773
REMARK  Name = *****
REMARK                            x       y       z     vdW  Elec       q    Type
REMARK                         _______ _______ _______ _____ _____    ______ ____
ROOT
ATOM      1  C   UNK A  0       25.009 -24.398   6.192  0.00  0.00    +0.217 C 
ATOM      2  N   PHE A  1       25.968 -23.429   6.443  0.00  0.00    -0.302 N 
ATOM      3  H   PHE A  1       26.876 -23.527   6.002  0.00  0.00    +0.149 HD
ATOM      4  O   UNK A  0       23.843 -24.262   6.562  0.00  0.00    -0.276 OA
ENDROOT
BRANCH   1   8
ATOM      5  C   UNK A  0       25.302 -28.203   6.953  0.00  0.00    -0.008 C 
ATOM      6  C   UNK A  0       26.364 -27.137   7.259  0.00  0.00    +0.004 C 
ATOM      7  C   UNK A  0       26.730 -26.291   6.051  0.00  0.00    +0.013 C 
ATOM      8  C   UNK A  0       25.515 -25.618   5.401  0.00  0.00    +0.075 C 
ATOM      9  C   UNK A  0       24.415 -26.647   5.096  0.00  0.00    +0.013 C 
ATOM     10  C   UNK A  0       24.080 -27.584   6.254  0.00  0.00    +0.004 C 
BRANCH   5  12
ATOM     11  C   UNK A  0       26.116 -29.137   9.203  0.00  0.00    +0.007 C 
ATOM     12  C   UNK A  0       24.925 -28.974   8.254  0.00  0.00    -0.014 C 
ATOM     13  C   UNK A  0       24.309 -30.350   7.967  0.00  0.00    +0.007 C 
ENDBRANCH   5  12
ENDBRANCH   1   8
BRANCH   2  14
ATOM     14  CA  PHE A  1       25.607 -22.088   6.976  0.00  0.00    +0.186 C 
BRANCH  14  15
ATOM     15  C   PHE A  1       26.241 -21.885   8.355  0.00  0.00    +0.326 C 
ATOM     16  O   PHE A  1       25.601 -21.818   9.409  0.00  0.00    -0.249 OA
BRANCH  15  17
ATOM     17  OXT PHE A  1       27.584 -21.729   8.328  0.00  0.00    -0.479 OA
ATOM     18  HXT PHE A  1       27.828 -21.191   7.546  0.00  0.00    +0.295 HD
ENDBRANCH  15  17
ENDBRANCH  14  15
BRANCH  14  19
ATOM     19  CB  PHE A  1       26.012 -20.938   6.024  0.00  0.00    +0.069 C 
BRANCH  19  20
ATOM     20  CG  PHE A  1       24.805 -20.325   5.344  0.00  0.00    -0.045 A 
ATOM     21  CD2 PHE A  1       24.959 -19.608   4.149  0.00  0.00    +0.003 A 
ATOM     22  CE2 PHE A  1       23.874 -18.936   3.584  0.00  0.00    +0.000 A 
ATOM     23  CZ  PHE A  1       22.626 -18.978   4.202  0.00  0.00    +0.000 A 
ATOM     24  CE1 PHE A  1       22.456 -19.710   5.375  0.00  0.00    +0.000 A 
ATOM     25  CD1 PHE A  1       23.537 -20.387   5.940  0.00  0.00    +0.003 A 
ENDBRANCH  19  20
ENDBRANCH  14  19
ENDBRANCH   2  14
TORSDOF 7
ENDMDL
MODEL 3
REMARK VINA RESULT:      -8.9      4.403      6.425
REMARK  Name = *****
REMARK                            x       y       z     vdW  Elec       q    Type
REMARK                         _______ _______ _______ _____ _____    ______ ____
ROOT
ATOM      1  C   UNK A  0       24.249 -23.817   6.955  0.00  0.00    +0.217 C 
ATOM      2  N   PHE A  1       25.412 -24.544   6.764  0.00  0.00    -0.302 N 
ATOM      3  H   PHE A  1       26.276 -24.178   7.149  0.00  0.00    +0.149 HD
ATOM      4  O   UNK A  0       23.145 -24.275   6.656  0.00  0.00    -0.276 OA
ENDROOT
BRANCH   1   8
ATOM      5  C   UNK A  0       24.115 -20.167   5.613  0.00  0.00    -0.008 C 
ATOM      6  C   UNK A  0       25.350 -21.078   5.628  0.00  0.00    +0.004 C 
ATOM      7  C   UNK A  0       25.643 -21.668   6.997  0.00  0.00    +0.013 C 
ATOM      8  C   UNK A  0       24.451 -22.429   7.589  0.00  0.00    +0.075 C 
ATOM      9  C   UNK A  0       23.182 -21.560   7.574  0.00  0.00    +0.013 C 
ATOM     10  C   UNK A  0       22.900 -20.869   6.242  0.00  0.00    +0.004 C 
BRANCH   5  12
ATOM     11  C   UNK A  0       25.078 -19.058   3.505  0.00  0.00    +0.007 C 
ATOM     12  C   UNK A  0       23.835 -19.666   4.164  0.00  0.00    -0.014 C 
ATOM     13  C   UNK A  0       22.680 -18.657   4.101  0.00  0.00    +0.007 C 
ENDBRANCH   5  12
ENDBRANCH   1   8
BRANCH   2  14
ATOM     14  CA  PHE A  1       25.386 -25.984   6.391  0.00  0.00    +0.186 C 
BRANCH  14  15
ATOM     15  C   PHE A  1       25.524 -26.136   4.875  0.00  0.00    +0.326 C 
ATOM     16  O   PHE A  1       26.234 -26.984   4.324  0.00  0.00    -0.249 OA
BRANCH  15  17
ATOM     17  OXT PHE A  1       24.835 -25.215   4.163  0.00  0.00    -0.479 OA
ATOM     18  HXT PHE A  1       24.234 -25.675   3.541  0.00  0.00    +0.295 HD
ENDBRANCH  15  17
ENDBRANCH  14  15
BRANCH  14  19
ATOM     19  CB  PHE A  1       26.477 -26.809   7.116  0.00  0.00    +0.069 C 
BRANCH  19  20
ATOM     20  CG  PHE A  1       25.893 -28.026   7.801  0.00  0.00    -0.045 A 
ATOM     21  CD2 PHE A  1       24.825 -28.720   7.214  0.00  0.00    +0.003 A 
ATOM     22  CE2 PHE A  1       24.201 -29.765   7.898  0.00  0.00    +0.000 A 
ATOM     23  CZ  PHE A  1       24.640 -30.131   9.168  0.00  0.00    +0.000 A 
ATOM     24  CE1 PHE A  1       25.717 -29.466   9.749  0.00  0.00    +0.000 A 
ATOM     25  CD1 PHE A  1       26.347 -28.425   9.067  0.00  0.00    +0.003 A 
ENDBRANCH  19  20
ENDBRANCH  14  19
ENDBRANCH   2  14
TORSDOF 7
ENDMDL
MODEL 4
REMARK VINA RESULT:      -8.8      1.765      7.983
REMARK  Name = *****
REMARK                            x       y       z     vdW  Elec       q    Type
REMARK                         _______ _______ _______ _____ _____    ______ ____
ROOT
ATOM      1  C   UNK A  0       26.807 -20.326   7.885  0.00  0.00    +0.217 C 
ATOM      2  N   PHE A  1       28.034 -19.977   7.345  0.00  0.00    -0.302 N 
ATOM      3  H   PHE A  1       28.064 -19.669   6.381  0.00  0.00    +0.149 HD
ATOM      4  O   UNK A  0       26.672 -20.556   9.087  0.00  0.00    -0.276 OA
ENDROOT
BRANCH   1   8
ATOM      5  C   UNK A  0       24.552 -23.155   6.451  0.00  0.00    -0.008 C 
ATOM      6  C   UNK A  0       25.901 -22.699   5.877  0.00  0.00    +0.004 C 
ATOM      7  C   UNK A  0       25.969 -21.201   5.627  0.00  0.00    +0.013 C 
ATOM      8  C   UNK A  0       25.647 -20.369   6.874  0.00  0.00    +0.075 C 
ATOM      9  C   UNK A  0       24.311 -20.809   7.496  0.00  0.00    +0.013 C 
ATOM     10  C   UNK A  0       24.159 -22.317   7.679  0.00  0.00    +0.004 C 
BRANCH   5  12
ATOM     11  C   UNK A  0       26.016 -25.223   6.873  0.00  0.00    +0.007 C 
ATOM     12  C   UNK A  0       24.587 -24.684   6.753  0.00  0.00    -0.014 C 
ATOM     13  C   UNK A  0       23.817 -25.509   5.713  0.00  0.00    +0.007 C 
ENDBRANCH   5  12
ENDBRANCH   1   8
BRANCH   2  14
ATOM     14  CA  PHE A  1       29.205 -19.653   8.204  0.00  0.00    +0.186 C 
BRANCH  14  15
ATOM     15  C   PHE A  1       30.171 -20.839   8.243  0.00  0.00    +0.326 C 
ATOM     16  O   PHE A  1       30.005 -21.847   8.938  0.00  0.00    -0.249 OA
BRANCH  15  17
ATOM     17  OXT PHE A  1       31.276 -20.677   7.480  0.00  0.00    -0.479 OA
ATOM     18  HXT PHE A  1       32.026 -20.414   8.054  0.00  0.00    +0.295 HD
ENDBRANCH  15  17
ENDBRANCH  14  15
BRANCH  14  19
ATOM     19  CB  PHE A  1       29.944 -18.372   7.749  0.00  0.00    +0.069 C 
BRANCH  19  20
ATOM     20  CG  PHE A  1       30.642 -17.688   8.905  0.00  0.00    -0.045 A 
ATOM     21  CD2 PHE A  1       31.968 -17.253   8.769  0.00  0.00    +0.003 A 
ATOM     22  CE2 PHE A  1       32.658 -16.737   9.868  0.00  0.00    +0.000 A 
ATOM     23  CZ  PHE A  1       32.030 -16.645  11.108  0.00  0.00    +0.000 A 
ATOM     24  CE1 PHE A  1       30.705 -17.050  11.248  0.00  0.00    +0.000 A 
ATOM     25  CD1 PHE A  1       30.011 -17.562  10.152  0.00  0.00    +0.003 A 
ENDBRANCH  19  20
ENDBRANCH  14  19
ENDBRANCH   2  14
TORSDOF 7
ENDMDL
MODEL 5
REMARK VINA RESULT:      -8.7      1.964      3.475
REMARK  Name = *****
REMARK                            x       y       z     vdW  Elec       q    Type
REMARK                         _______ _______ _______ _____ _____    ______ ____
ROOT
ATOM      1  C   UNK A  0       28.164 -20.814   7.384  0.00  0.00    +0.217 C 
ATOM      2  N   PHE A  1       27.445 -21.472   6.400  0.00  0.00    -0.302 N 
ATOM      3  H   PHE A  1       27.957 -21.909   5.642  0.00  0.00    +0.149 HD
ATOM      4  O   UNK A  0       27.624 -20.400   8.411  0.00  0.00    -0.276 OA
ENDROOT
BRANCH   1   8
ATOM      5  C   UNK A  0       30.935 -18.336   8.535  0.00  0.00    -0.008 C 
ATOM      6  C   UNK A  0       30.022 -18.164   7.312  0.00  0.00    +0.004 C 
ATOM      7  C   UNK A  0       30.029 -19.369   6.386  0.00  0.00    +0.013 C 
ATOM      8  C   UNK A  0       29.671 -20.677   7.101  0.00  0.00    +0.075 C 
ATOM      9  C   UNK A  0       30.548 -20.880   8.347  0.00  0.00    +0.013 C 
ATOM     10  C   UNK A  0       30.647 -19.661   9.261  0.00  0.00    +0.004 C 
BRANCH   5  12
ATOM     11  C   UNK A  0       32.090 -16.251   9.493  0.00  0.00    +0.007 C 
ATOM     12  C   UNK A  0       30.813 -17.097   9.473  0.00  0.00    -0.014 C 
ATOM     13  C   UNK A  0       30.433 -17.480  10.910  0.00  0.00    +0.007 C 
ENDBRANCH   5  12
ENDBRANCH   1   8
BRANCH   2  14
ATOM     14  CA  PHE A  1       26.037 -21.904   6.613  0.00  0.00    +0.186 C 
BRANCH  14  15
ATOM     15  C   PHE A  1       25.982 -23.003   7.677  0.00  0.00    +0.326 C 
ATOM     16  O   PHE A  1       25.957 -24.212   7.425  0.00  0.00    -0.249 OA
BRANCH  15  17
ATOM     17  OXT PHE A  1       25.907 -22.540   8.946  0.00  0.00    -0.479 OA
ATOM     18  HXT PHE A  1       26.598 -22.975   9.487  0.00  0.00    +0.295 HD
ENDBRANCH  15  17
ENDBRANCH  14  15
BRANCH  14  19
ATOM     19  CB  PHE A  1       25.104 -20.732   7.001  0.00  0.00    +0.069 C 
BRANCH  19  20
ATOM     20  CG  PHE A  1       24.320 -20.225   5.809  0.00  0.00    -0.045 A 
ATOM     21  CD2 PHE A  1       24.980 -19.916   4.612  0.00  0.00    +0.003 A 
ATOM     22  CE2 PHE A  1       24.285 -19.330   3.552  0.00  0.00    +0.000 A 
ATOM     23  CZ  PHE A  1       22.924 -19.055   3.676  0.00  0.00    +0.000 A 
ATOM     24  CE1 PHE A  1       22.253 -19.383   4.851  0.00  0.00    +0.000 A 
ATOM     25  CD1 PHE A  1       22.944 -19.972   5.910  0.00  0.00    +0.003 A 
ENDBRANCH  19  20
ENDBRANCH  14  19
ENDBRANCH   2  14
TORSDOF 7
ENDMDL
MODEL 6
REMARK VINA RESULT:      -8.7      1.370      2.008
REMARK  Name = *****
REMARK                            x       y       z     vdW  Elec       q    Type
REMARK                         _______ _______ _______ _____ _____    ______ ____
ROOT
ATOM      1  C   UNK A  0       28.859 -20.697   7.697  0.00  0.00    +0.217 C 
ATOM      2  N   PHE A  1       27.609 -20.570   7.114  0.00  0.00    -0.302 N 
ATOM      3  H   PHE A  1       27.538 -20.067   6.236  0.00  0.00    +0.149 HD
ATOM      4  O   UNK A  0       29.044 -21.425   8.673  0.00  0.00    -0.276 OA
ENDROOT
BRANCH   1   8
ATOM      5  C   UNK A  0       31.455 -18.069   8.921  0.00  0.00    -0.008 C 
ATOM      6  C   UNK A  0       30.034 -17.769   8.423  0.00  0.00    +0.004 C 
ATOM      7  C   UNK A  0       29.736 -18.375   7.062  0.00  0.00    +0.013 C 
ATOM      8  C   UNK A  0       29.976 -19.889   7.013  0.00  0.00    +0.075 C 
ATOM      9  C   UNK A  0       31.384 -20.238   7.525  0.00  0.00    +0.013 C 
ATOM     10  C   UNK A  0       31.764 -19.574   8.846  0.00  0.00    +0.004 C 
BRANCH   5  12
ATOM     11  C   UNK A  0       30.329 -17.188  11.055  0.00  0.00    +0.007 C 
ATOM     12  C   UNK A  0       31.658 -17.484  10.351  0.00  0.00    -0.014 C 
ATOM     13  C   UNK A  0       32.530 -16.221  10.355  0.00  0.00    +0.007 C 
ENDBRANCH   5  12
ENDBRANCH   1   8
BRANCH   2  14
ATOM     14  CA  PHE A  1       26.474 -21.456   7.488  0.00  0.00    +0.186 C 
BRANCH  14  15
ATOM     15  C   PHE A  1       25.566 -20.747   8.496  0.00  0.00    +0.326 C 
ATOM     16  O   PHE A  1       25.931 -20.372   9.615  0.00  0.00    -0.249 OA
BRANCH  15  17
ATOM     17  OXT PHE A  1       24.287 -20.603   8.081  0.00  0.00    -0.479 OA
ATOM     18  HXT PHE A  1       24.280 -20.440   7.115  0.00  0.00    +0.295 HD
ENDBRANCH  15  17
ENDBRANCH  14  15
BRANCH  14  19
ATOM     19  CB  PHE A  1       25.654 -21.927   6.263  0.00  0.00    +0.069 C 
BRANCH  19  20
ATOM     20  CG  PHE A  1       25.241 -23.378   6.393  0.00  0.00    -0.045 A 
ATOM     21  CD2 PHE A  1       26.213 -24.388   6.408  0.00  0.00    +0.003 A 
ATOM     22  CE2 PHE A  1       25.835 -25.732   6.401  0.00  0.00    +0.000 A 
ATOM     23  CZ  PHE A  1       24.486 -26.079   6.383  0.00  0.00    +0.000 A 
ATOM     24  CE1 PHE A  1       23.512 -25.084   6.395  0.00  0.00    +0.000 A 
ATOM     25  CD1 PHE A  1       23.886 -23.740   6.407  0.00  0.00    +0.003 A 
ENDBRANCH  19  20
ENDBRANCH  14  19
ENDBRANCH   2  14
TORSDOF 7
ENDMDL
MODEL 7
REMARK VINA RESULT:      -8.6      1.662      2.434
REMARK  Name = *****
REMARK                            x       y       z     vdW  Elec       q    Type
REMARK                         _______ _______ _______ _____ _____    ______ ____
ROOT
ATOM      1  C   UNK A  0       27.356 -20.272   6.259  0.00  0.00    +0.217 C 
ATOM      2  N   PHE A  1       26.876 -20.002   4.988  0.00  0.00    -0.302 N 
ATOM      3  H   PHE A  1       27.489 -20.168   4.198  0.00  0.00    +0.149 HD
ATOM      4  O   UNK A  0       26.620 -20.247   7.246  0.00  0.00    -0.276 OA
ENDROOT
BRANCH   1   8
ATOM      5  C   UNK A  0       30.445 -18.742   8.064  0.00  0.00    -0.008 C 
ATOM      6  C   UNK A  0       29.925 -18.348   6.674  0.00  0.00    +0.004 C 
ATOM      7  C   UNK A  0       29.754 -19.534   5.740  0.00  0.00    +0.013 C 
ATOM      8  C   UNK A  0       28.852 -20.630   6.322  0.00  0.00    +0.075 C 
ATOM      9  C   UNK A  0       29.324 -21.040   7.726  0.00  0.00    +0.013 C 
ATOM     10  C   UNK A  0       29.601 -19.874   8.672  0.00  0.00    +0.004 C 
BRANCH   5  12
ATOM     11  C   UNK A  0       31.939 -16.921   9.089  0.00  0.00    +0.007 C 
ATOM     12  C   UNK A  0       30.519 -17.486   8.984  0.00  0.00    -0.014 C 
ATOM     13  C   UNK A  0       29.972 -17.754  10.393  0.00  0.00    +0.007 C 
ENDBRANCH   5  12
ENDBRANCH   1   8
BRANCH   2  14
ATOM     14  CA  PHE A  1       25.419 -19.877   4.710  0.00  0.00    +0.186 C 
BRANCH  14  15
ATOM     15  C   PHE A  1       25.159 -18.662   3.817  0.00  0.00    +0.326 C 
ATOM     16  O   PHE A  1       24.034 -18.256   3.508  0.00  0.00    -0.249 OA
BRANCH  15  17
ATOM     17  OXT PHE A  1       26.281 -18.081   3.334  0.00  0.00    -0.479 OA
ATOM     18  HXT PHE A  1       26.483 -17.283   3.865  0.00  0.00    +0.295 HD
ENDBRANCH  15  17
ENDBRANCH  14  15
BRANCH  14  19
ATOM     19  CB  PHE A  1       24.822 -21.153   4.069  0.00  0.00    +0.069 C 
BRANCH  19  20
ATOM     20  CG  PHE A  1       24.357 -22.140   5.119  0.00  0.00    -0.045 A 
ATOM     21  CD2 PHE A  1       24.944 -23.410   5.202  0.00  0.00    +0.003 A 
ATOM     22  CE2 PHE A  1       24.437 -24.367   6.082  0.00  0.00    +0.000 A 
ATOM     23  CZ  PHE A  1       23.344 -24.064   6.891  0.00  0.00    +0.000 A 
ATOM     24  CE1 PHE A  1       22.769 -22.797   6.837  0.00  0.00    +0.000 A 
ATOM     25  CD1 PHE A  1       23.277 -21.836   5.962  0.00  0.00    +0.003 A 
ENDBRANCH  19  20
ENDBRANCH  14  19
ENDBRANCH   2  14
TORSDOF 7
ENDMDL
MODEL 8
REMARK VINA RESULT:      -8.3      2.873      5.241
REMARK  Name = *****
REMARK                            x       y       z     vdW  Elec       q    Type
REMARK                         _______ _______ _______ _____ _____    ______ ____
ROOT
ATOM      1  C   UNK A  0       23.937 -23.418   6.957  0.00  0.00    +0.217 C 
ATOM      2  N   PHE A  1       25.125 -24.110   6.783  0.00  0.00    -0.302 N 
ATOM      3  H   PHE A  1       25.961 -23.747   7.225  0.00  0.00    +0.149 HD
ATOM      4  O   UNK A  0       22.859 -23.882   6.585  0.00  0.00    -0.276 OA
ENDROOT
BRANCH   1   8
ATOM      5  C   UNK A  0       26.713 -20.693   7.090  0.00  0.00    -0.008 C 
ATOM      6  C   UNK A  0       26.598 -21.910   8.020  0.00  0.00    +0.004 C 
ATOM      7  C   UNK A  0       25.234 -22.033   8.679  0.00  0.00    +0.013 C 
ATOM      8  C   UNK A  0       24.080 -22.061   7.670  0.00  0.00    +0.075 C 
ATOM      9  C   UNK A  0       24.168 -20.869   6.703  0.00  0.00    +0.013 C 
ATOM     10  C   UNK A  0       25.548 -20.649   6.087  0.00  0.00    +0.004 C 
BRANCH   5  12
ATOM     11  C   UNK A  0       29.253 -20.945   7.375  0.00  0.00    +0.007 C 
ATOM     12  C   UNK A  0       28.107 -20.680   6.394  0.00  0.00    -0.014 C 
ATOM     13  C   UNK A  0       28.376 -19.373   5.636  0.00  0.00    +0.007 C 
ENDBRANCH   5  12
ENDBRANCH   1   8
BRANCH   2  14
ATOM     14  CA  PHE A  1       25.147 -25.529   6.336  0.00  0.00    +0.186 C 
BRANCH  14  15
ATOM     15  C   PHE A  1       25.288 -25.598   4.814  0.00  0.00    +0.326 C 
ATOM     16  O   PHE A  1       25.905 -26.483   4.213  0.00  0.00    -0.249 OA
BRANCH  15  17
ATOM     17  OXT PHE A  1       24.717 -24.561   4.159  0.00  0.00    -0.479 OA
ATOM     18  HXT PHE A  1       23.756 -24.549   4.354  0.00  0.00    +0.295 HD
ENDBRANCH  15  17
ENDBRANCH  14  15
BRANCH  14  19
ATOM     19  CB  PHE A  1       26.267 -26.352   7.018  0.00  0.00    +0.069 C 
BRANCH  19  20
ATOM     20  CG  PHE A  1       25.741 -27.661   7.569  0.00  0.00    -0.045 A 
ATOM     21  CD2 PHE A  1       26.328 -28.231   8.707  0.00  0.00    +0.003 A 
ATOM     22  CE2 PHE A  1       25.933 -29.496   9.148  0.00  0.00    +0.000 A 
ATOM     23  CZ  PHE A  1       24.946 -30.199   8.460  0.00  0.00    +0.000 A 
ATOM     24  CE1 PHE A  1       24.338 -29.630   7.344  0.00  0.00    +0.000 A 
ATOM     25  CD1 PHE A  1       24.726 -28.364   6.904  0.00  0.00    +0.003 A 
ENDBRANCH  19  20
ENDBRANCH  14  19
ENDBRANCH   2  14
TORSDOF 7
ENDMDL
MODEL 9
REMARK VINA RESULT:      -8.2      2.133      7.523
REMARK  Name = *****
REMARK                            x       y       z     vdW  Elec       q    Type
REMARK                         _______ _______ _______ _____ _____    ______ ____
ROOT
ATOM      1  C   UNK A  0       26.250 -21.544   8.413  0.00  0.00    +0.217 C 
ATOM      2  N   PHE A  1       27.573 -21.676   8.025  0.00  0.00    -0.302 N 
ATOM      3  H   PHE A  1       27.774 -22.181   7.169  0.00  0.00    +0.149 HD
ATOM      4  O   UNK A  0       25.922 -20.814   9.349  0.00  0.00    -0.276 OA
ENDROOT
BRANCH   1   8
ATOM      5  C   UNK A  0       23.839 -20.669   5.487  0.00  0.00    -0.008 C 
ATOM      6  C   UNK A  0       23.510 -20.580   6.984  0.00  0.00    +0.004 C 
ATOM      7  C   UNK A  0       23.800 -21.867   7.738  0.00  0.00    +0.013 C 
ATOM      8  C   UNK A  0       25.246 -22.349   7.569  0.00  0.00    +0.075 C 
ATOM      9  C   UNK A  0       25.626 -22.431   6.081  0.00  0.00    +0.013 C 
ATOM     10  C   UNK A  0       25.266 -21.195   5.262  0.00  0.00    +0.004 C 
BRANCH   5  12
ATOM     11  C   UNK A  0       22.111 -19.056   4.480  0.00  0.00    +0.007 C 
ATOM     12  C   UNK A  0       23.591 -19.291   4.801  0.00  0.00    -0.014 C 
ATOM     13  C   UNK A  0       24.424 -19.109   3.525  0.00  0.00    +0.007 C 
ENDBRANCH   5  12
ENDBRANCH   1   8
BRANCH   2  14
ATOM     14  CA  PHE A  1       28.642 -20.794   8.566  0.00  0.00    +0.186 C 
BRANCH  14  15
ATOM     15  C   PHE A  1       29.937 -21.589   8.746  0.00  0.00    +0.326 C 
ATOM     16  O   PHE A  1       30.495 -21.769   9.834  0.00  0.00    -0.249 OA
BRANCH  15  17
ATOM     17  OXT PHE A  1       30.469 -22.049   7.590  0.00  0.00    -0.479 OA
ATOM     18  HXT PHE A  1       29.743 -22.292   6.979  0.00  0.00    +0.295 HD
ENDBRANCH  15  17
ENDBRANCH  14  15
BRANCH  14  19
ATOM     19  CB  PHE A  1       28.894 -19.549   7.681  0.00  0.00    +0.069 C 
BRANCH  19  20
ATOM     20  CG  PHE A  1       29.949 -18.643   8.279  0.00  0.00    -0.045 A 
ATOM     21  CD2 PHE A  1       31.243 -18.619   7.740  0.00  0.00    +0.003 A 
ATOM     22  CE2 PHE A  1       32.254 -17.883   8.362  0.00  0.00    +0.000 A 
ATOM     23  CZ  PHE A  1       31.981 -17.162   9.522  0.00  0.00    +0.000 A 
ATOM     24  CE1 PHE A  1       30.693 -17.158  10.051  0.00  0.00    +0.000 A 
ATOM     25  CD1 PHE A  1       29.679 -17.888   9.430  0.00  0.00    +0.003 A 
ENDBRANCH  19  20
ENDBRANCH  14  19
ENDBRANCH   2  14
TORSDOF 7
ENDMDL
