MODEL 1
REMARK VINA RESULT:      -1.8      0.000      0.000
REMARK  Name = *****
REMARK                            x       y       z     vdW  Elec       q    Type
REMARK                         _______ _______ _______ _____ _____    ______ ____
ROOT
ATOM      1  C   LIG    1       25.804 -14.825   3.323  0.00  0.00    +0.019 A 
ATOM      2  C   LIG    1       25.418 -16.136   3.659  0.00  0.00    +0.035 A 
ATOM      3  C   LIG    1       26.333 -17.105   4.134  0.00  0.00    +0.049 A 
ATOM      4  N   LIG    1       25.943 -18.458   4.394  0.00  0.00    -0.297 N 
ATOM      5  C   LIG    1       26.733 -19.412   5.106  0.00  0.00    +0.048 A 
ATOM      6  C   LIG    1       28.082 -19.154   5.437  0.00  0.00    +0.034 A 
ATOM      7  S   LIG    1       28.962 -17.697   4.931  0.00  0.00    -0.086 S 
ATOM      8  C   LIG    1       28.852 -20.076   6.176  0.00  0.00    +0.017 A 
ATOM      9  C   LIG    1       28.310 -21.283   6.598  0.00  0.00    +0.001 A 
ATOM     10  C   LIG    1       26.991 -21.569   6.287  0.00  0.00    +0.002 A 
ATOM     11  C   LIG    1       26.219 -20.645   5.566  0.00  0.00    +0.024 A 
ATOM     12  C   LIG    1       27.655 -16.663   4.334  0.00  0.00    +0.034 A 
ATOM     13  C   LIG    1       28.037 -15.348   4.012  0.00  0.00    +0.017 A 
ATOM     14  C   LIG    1       27.127 -14.436   3.491  0.00  0.00    +0.012 A 
ENDROOT
BRANCH   1  15
ATOM     15  C   LIG    1       24.781 -13.912   2.740  0.00  0.00    +0.163 C 
ATOM     16  O   LIG    1       23.593 -14.114   2.986  0.00  0.00    -0.292 OA
BRANCH  15  18
ATOM     17  C   LIG    1       24.263 -11.570   1.998  0.00  0.00    +0.012 C 
ATOM     18  C   LIG    1       25.217 -12.744   1.875  0.00  0.00    +0.076 C 
ENDBRANCH  15  18
ENDBRANCH   1  15
BRANCH   4  19
ATOM     19  C   LIG    1       24.717 -18.942   3.682  0.00  0.00    +0.129 C 
BRANCH  19  20
ATOM     20  C   LIG    1       23.495 -19.238   4.626  0.00  0.00    +0.071 C 
ATOM     21  C   LIG    1       22.399 -18.186   4.371  0.00  0.00    +0.026 C 
BRANCH  20  22
ATOM     22  N   LIG    1       22.956 -20.629   4.462  0.00  0.00    -0.304 NA
ATOM     23  C   LIG    1       22.806 -21.315   5.754  0.00  0.00    +0.105 C 
ATOM     24  C   LIG    1       23.817 -21.458   3.609  0.00  0.00    +0.105 C 
ENDBRANCH  20  22
ENDBRANCH  19  20
ENDBRANCH   4  19
TORSDOF 5
ENDMDL
MODEL 2
REMARK VINA RESULT:      -0.7      2.534      6.250
REMARK  Name = *****
REMARK                            x       y       z     vdW  Elec       q    Type
REMARK                         _______ _______ _______ _____ _____    ______ ____
ROOT
ATOM      1  C   LIG    1       22.537 -19.163   4.596  0.00  0.00    +0.019 A 
ATOM      2  C   LIG    1       23.885 -18.782   4.458  0.00  0.00    +0.035 A 
ATOM      3  C   LIG    1       24.276 -17.469   4.103  0.00  0.00    +0.049 A 
ATOM      4  N   LIG    1       25.646 -17.115   3.886  0.00  0.00    -0.297 N 
ATOM      5  C   LIG    1       26.135 -15.776   3.780  0.00  0.00    +0.048 A 
ATOM      6  C   LIG    1       25.256 -14.675   3.669  0.00  0.00    +0.034 A 
ATOM      7  S   LIG    1       23.491 -14.828   3.547  0.00  0.00    -0.086 S 
ATOM      8  C   LIG    1       25.735 -13.350   3.605  0.00  0.00    +0.017 A 
ATOM      9  C   LIG    1       27.096 -13.080   3.640  0.00  0.00    +0.001 A 
ATOM     10  C   LIG    1       27.986 -14.136   3.745  0.00  0.00    +0.002 A 
ATOM     11  C   LIG    1       27.510 -15.456   3.825  0.00  0.00    +0.024 A 
ATOM     12  C   LIG    1       23.237 -16.527   3.972  0.00  0.00    +0.034 A 
ATOM     13  C   LIG    1       21.890 -16.907   4.125  0.00  0.00    +0.017 A 
ATOM     14  C   LIG    1       21.536 -18.219   4.415  0.00  0.00    +0.012 A 
ENDROOT
BRANCH   1  15
ATOM     15  C   LIG    1       22.231 -20.594   4.877  0.00  0.00    +0.163 C 
ATOM     16  O   LIG    1       21.181 -21.073   4.453  0.00  0.00    -0.292 OA
BRANCH  15  18
ATOM     17  C   LIG    1       23.432 -20.897   7.062  0.00  0.00    +0.012 C 
ATOM     18  C   LIG    1       23.221 -21.438   5.659  0.00  0.00    +0.076 C 
ENDBRANCH  15  18
ENDBRANCH   1  15
BRANCH   4  19
ATOM     19  C   LIG    1       26.574 -18.239   3.541  0.00  0.00    +0.129 C 
BRANCH  19  20
ATOM     20  C   LIG    1       26.908 -19.194   4.744  0.00  0.00    +0.071 C 
ATOM     21  C   LIG    1       26.225 -20.554   4.509  0.00  0.00    +0.026 C 
BRANCH  20  22
ATOM     22  N   LIG    1       28.383 -19.362   4.962  0.00  0.00    -0.304 NA
ATOM     23  C   LIG    1       28.673 -20.243   6.103  0.00  0.00    +0.105 C 
ATOM     24  C   LIG    1       29.056 -18.079   5.201  0.00  0.00    +0.105 C 
ENDBRANCH  20  22
ENDBRANCH  19  20
ENDBRANCH   4  19
TORSDOF 5
ENDMDL
MODEL 3
REMARK VINA RESULT:      -0.4      2.144      4.426
REMARK  Name = *****
REMARK                            x       y       z     vdW  Elec       q    Type
REMARK                         _______ _______ _______ _____ _____    ______ ____
ROOT
ATOM      1  C   LIG    1       25.990 -14.771   3.376  0.00  0.00    +0.019 A 
ATOM      2  C   LIG    1       26.045 -16.177   3.347  0.00  0.00    +0.035 A 
ATOM      3  C   LIG    1       24.975 -16.994   3.781  0.00  0.00    +0.049 A 
ATOM      4  N   LIG    1       25.075 -18.421   3.823  0.00  0.00    -0.297 N 
ATOM      5  C   LIG    1       23.971 -19.311   4.001  0.00  0.00    +0.048 A 
ATOM      6  C   LIG    1       22.691 -18.837   4.367  0.00  0.00    +0.034 A 
ATOM      7  S   LIG    1       22.337 -17.137   4.740  0.00  0.00    -0.086 S 
ATOM      8  C   LIG    1       21.591 -19.708   4.503  0.00  0.00    +0.017 A 
ATOM      9  C   LIG    1       21.729 -21.073   4.290  0.00  0.00    +0.001 A 
ATOM     10  C   LIG    1       22.971 -21.572   3.933  0.00  0.00    +0.002 A 
ATOM     11  C   LIG    1       24.064 -20.703   3.782  0.00  0.00    +0.024 A 
ATOM     12  C   LIG    1       23.801 -16.321   4.174  0.00  0.00    +0.034 A 
ATOM     13  C   LIG    1       23.742 -14.915   4.188  0.00  0.00    +0.017 A 
ATOM     14  C   LIG    1       24.832 -14.140   3.812  0.00  0.00    +0.012 A 
ENDROOT
BRANCH   1  15
ATOM     15  C   LIG    1       27.208 -14.005   2.988  0.00  0.00    +0.163 C 
ATOM     16  O   LIG    1       27.580 -14.032   1.817  0.00  0.00    -0.292 OA
BRANCH  15  18
ATOM     17  C   LIG    1       27.356 -13.379   5.415  0.00  0.00    +0.012 C 
ATOM     18  C   LIG    1       27.954 -13.194   4.032  0.00  0.00    +0.076 C 
ENDBRANCH  15  18
ENDBRANCH   1  15
BRANCH   4  19
ATOM     19  C   LIG    1       26.461 -18.986   3.895  0.00  0.00    +0.129 C 
BRANCH  19  20
ATOM     20  C   LIG    1       26.958 -19.294   5.354  0.00  0.00    +0.071 C 
ATOM     21  C   LIG    1       26.178 -20.502   5.905  0.00  0.00    +0.026 C 
BRANCH  20  22
ATOM     22  N   LIG    1       28.438 -19.529   5.427  0.00  0.00    -0.304 NA
ATOM     23  C   LIG    1       28.808 -20.340   6.597  0.00  0.00    +0.105 C 
ATOM     24  C   LIG    1       29.195 -18.273   5.493  0.00  0.00    +0.105 C 
ENDBRANCH  20  22
ENDBRANCH  19  20
ENDBRANCH   4  19
TORSDOF 5
ENDMDL
