MODEL 1
REMARK VINA RESULT:      -8.2      0.000      0.000
REMARK  Name = *****
REMARK                            x       y       z     vdW  Elec       q    Type
REMARK                         _______ _______ _______ _____ _____    ______ ____
ROOT
ATOM      1  N   LIG    1       24.969 -27.910   6.301  0.00  0.00    -0.297 NA
ATOM      2  C   LIG    1       26.123 -27.277   6.952  0.00  0.00    +0.100 C 
ATOM      3  C   LIG    1       26.770 -26.086   6.209  0.00  0.00    +0.100 C 
ATOM      4  N   LIG    1       25.870 -24.957   5.911  0.00  0.00    -0.292 NA
ATOM      5  C   LIG    1       24.644 -25.517   5.279  0.00  0.00    +0.100 C 
ATOM      6  C   LIG    1       24.046 -26.880   5.788  0.00  0.00    +0.100 C 
ENDROOT
BRANCH   1   7
ATOM      7  C   LIG    1       25.222 -29.060   5.394  0.00  0.00    +0.119 C 
BRANCH   7   8
ATOM      8  C   LIG    1       24.702 -30.462   5.879  0.00  0.00    +0.166 C 
BRANCH   8   9
ATOM      9  O   LIG    1       23.287 -30.584   5.704  0.00  0.00    -0.387 OA
ATOM     10  H   LIG    1       23.020 -29.802   5.186  0.00  0.00    +0.210 HD
ENDBRANCH   8   9
BRANCH   8  11
ATOM     11  C   LIG    1       24.957 -30.773   7.371  0.00  0.00    +0.261 C 
BRANCH  11  12
ATOM     12  O   LIG    1       23.728 -30.707   8.135  0.00  0.00    -0.486 OA
BRANCH  12  14
ATOM     13  C   LIG    1       22.742 -30.313  10.314  0.00  0.00    +0.162 A 
ATOM     14  C   LIG    1       23.861 -30.278   9.444  0.00  0.00    +0.162 A 
ATOM     15  C   LIG    1       25.072 -29.752   9.925  0.00  0.00    +0.049 A 
ATOM     16  C   LIG    1       25.189 -29.286  11.236  0.00  0.00    +0.004 A 
ATOM     17  C   LIG    1       24.091 -29.313  12.081  0.00  0.00    +0.004 A 
ATOM     18  C   LIG    1       22.875 -29.812  11.619  0.00  0.00    +0.049 A 
BRANCH  13  20
ATOM     19  C   LIG    1       20.435 -30.716  10.764  0.00  0.00    +0.277 C 
ATOM     20  O   LIG    1       21.545 -30.827   9.861  0.00  0.00    -0.491 OA
ENDBRANCH  13  20
ENDBRANCH  12  14
ENDBRANCH  11  12
ENDBRANCH   8  11
ENDBRANCH   7   8
ENDBRANCH   1   7
BRANCH   4  21
ATOM     21  C   LIG    1       25.564 -24.082   7.075  0.00  0.00    +0.180 C 
BRANCH  21  22
ATOM     22  C   LIG    1       25.171 -22.627   6.717  0.00  0.00    +0.231 C 
ATOM     23  N   LIG    1       25.094 -22.321   5.359  0.00  0.00    -0.284 N 
ATOM     24  H   LIG    1       25.790 -22.817   4.808  0.00  0.00    +0.155 HD
ATOM     25  O   LIG    1       24.927 -21.801   7.633  0.00  0.00    -0.274 OA
BRANCH  23  26
ATOM     26  C   LIG    1       24.724 -21.013   4.892  0.00  0.00    +0.039 A 
ATOM     27  C   LIG    1       23.362 -20.663   4.758  0.00  0.00    -0.029 A 
ATOM     28  C   LIG    1       22.237 -21.525   5.256  0.00  0.00    +0.045 C 
ATOM     29  C   LIG    1       23.013 -19.441   4.145  0.00  0.00    +0.005 A 
ATOM     30  C   LIG    1       23.986 -18.548   3.714  0.00  0.00    +0.001 A 
ATOM     31  C   LIG    1       25.320 -18.828   3.968  0.00  0.00    +0.005 A 
ATOM     32  C   LIG    1       25.703 -20.037   4.585  0.00  0.00    -0.029 A 
ATOM     33  C   LIG    1       27.127 -20.134   5.067  0.00  0.00    +0.045 C 
ENDBRANCH  23  26
ENDBRANCH  21  22
ENDBRANCH   4  21
TORSDOF 10
ENDMDL
MODEL 2
REMARK VINA RESULT:      -8.1      2.877      4.598
REMARK  Name = *****
REMARK                            x       y       z     vdW  Elec       q    Type
REMARK                         _______ _______ _______ _____ _____    ______ ____
ROOT
ATOM      1  N   LIG    1       24.474 -26.161   6.548  0.00  0.00    -0.297 NA
ATOM      2  C   LIG    1       25.827 -25.854   7.027  0.00  0.00    +0.100 C 
ATOM      3  C   LIG    1       26.512 -24.612   6.414  0.00  0.00    +0.100 C 
ATOM      4  N   LIG    1       25.785 -23.339   6.574  0.00  0.00    -0.292 NA
ATOM      5  C   LIG    1       24.378 -23.572   6.146  0.00  0.00    +0.100 C 
ATOM      6  C   LIG    1       23.663 -24.930   6.489  0.00  0.00    +0.100 C 
ENDROOT
BRANCH   1   7
ATOM      7  C   LIG    1       24.333 -27.083   5.390  0.00  0.00    +0.119 C 
BRANCH   7   8
ATOM      8  C   LIG    1       24.360 -28.621   5.711  0.00  0.00    +0.166 C 
BRANCH   8   9
ATOM      9  O   LIG    1       23.189 -29.279   5.219  0.00  0.00    -0.387 OA
ATOM     10  H   LIG    1       23.384 -30.233   5.272  0.00  0.00    +0.210 HD
ENDBRANCH   8   9
BRANCH   8  11
ATOM     11  C   LIG    1       24.424 -28.973   7.215  0.00  0.00    +0.261 C 
BRANCH  11  12
ATOM     12  O   LIG    1       23.942 -30.318   7.456  0.00  0.00    -0.486 OA
BRANCH  12  14
ATOM     13  C   LIG    1       24.612 -32.364   6.343  0.00  0.00    +0.162 A 
ATOM     14  C   LIG    1       24.872 -31.327   7.275  0.00  0.00    +0.162 A 
ATOM     15  C   LIG    1       26.053 -31.383   8.033  0.00  0.00    +0.049 A 
ATOM     16  C   LIG    1       26.969 -32.424   7.872  0.00  0.00    +0.004 A 
ATOM     17  C   LIG    1       26.708 -33.442   6.967  0.00  0.00    +0.004 A 
ATOM     18  C   LIG    1       25.534 -33.416   6.218  0.00  0.00    +0.049 A 
BRANCH  13  20
ATOM     19  C   LIG    1       22.896 -33.600   5.242  0.00  0.00    +0.277 C 
ATOM     20  O   LIG    1       23.459 -32.326   5.588  0.00  0.00    -0.491 OA
ENDBRANCH  13  20
ENDBRANCH  12  14
ENDBRANCH  11  12
ENDBRANCH   8  11
ENDBRANCH   7   8
ENDBRANCH   1   7
BRANCH   4  21
ATOM     21  C   LIG    1       25.876 -22.738   7.932  0.00  0.00    +0.180 C 
BRANCH  21  22
ATOM     22  C   LIG    1       26.877 -21.562   8.063  0.00  0.00    +0.231 C 
ATOM     23  N   LIG    1       28.096 -21.708   7.403  0.00  0.00    -0.284 N 
ATOM     24  H   LIG    1       28.428 -22.669   7.406  0.00  0.00    +0.155 HD
ATOM     25  O   LIG    1       26.560 -20.541   8.726  0.00  0.00    -0.274 OA
BRANCH  23  26
ATOM     26  C   LIG    1       29.105 -20.685   7.431  0.00  0.00    +0.039 A 
ATOM     27  C   LIG    1       30.229 -20.814   8.276  0.00  0.00    -0.029 A 
ATOM     28  C   LIG    1       30.546 -22.069   9.039  0.00  0.00    +0.045 C 
ATOM     29  C   LIG    1       31.124 -19.732   8.417  0.00  0.00    +0.005 A 
ATOM     30  C   LIG    1       30.949 -18.555   7.701  0.00  0.00    +0.001 A 
ATOM     31  C   LIG    1       29.925 -18.477   6.769  0.00  0.00    +0.005 A 
ATOM     32  C   LIG    1       29.017 -19.542   6.598  0.00  0.00    -0.029 A 
ATOM     33  C   LIG    1       28.120 -19.484   5.389  0.00  0.00    +0.045 C 
ENDBRANCH  23  26
ENDBRANCH  21  22
ENDBRANCH   4  21
TORSDOF 10
ENDMDL
MODEL 3
REMARK VINA RESULT:      -8.1      2.472      3.734
REMARK  Name = *****
REMARK                            x       y       z     vdW  Elec       q    Type
REMARK                         _______ _______ _______ _____ _____    ______ ____
ROOT
ATOM      1  N   LIG    1       24.439 -26.201   6.484  0.00  0.00    -0.297 NA
ATOM      2  C   LIG    1       25.819 -25.946   6.915  0.00  0.00    +0.100 C 
ATOM      3  C   LIG    1       26.498 -24.680   6.347  0.00  0.00    +0.100 C 
ATOM      4  N   LIG    1       25.804 -23.408   6.618  0.00  0.00    -0.292 NA
ATOM      5  C   LIG    1       24.374 -23.591   6.244  0.00  0.00    +0.100 C 
ATOM      6  C   LIG    1       23.650 -24.956   6.539  0.00  0.00    +0.100 C 
ENDROOT
BRANCH   1   7
ATOM      7  C   LIG    1       24.226 -27.048   5.281  0.00  0.00    +0.119 C 
BRANCH   7   8
ATOM      8  C   LIG    1       24.410 -28.597   5.473  0.00  0.00    +0.166 C 
BRANCH   8   9
ATOM      9  O   LIG    1       23.159 -29.286   5.392  0.00  0.00    -0.387 OA
ATOM     10  H   LIG    1       23.319 -30.049   4.805  0.00  0.00    +0.210 HD
ENDBRANCH   8   9
BRANCH   8  11
ATOM     11  C   LIG    1       25.022 -29.019   6.828  0.00  0.00    +0.261 C 
BRANCH  11  12
ATOM     12  O   LIG    1       24.039 -29.686   7.658  0.00  0.00    -0.486 OA
BRANCH  12  14
ATOM     13  C   LIG    1       23.393 -30.275   9.919  0.00  0.00    +0.162 A 
ATOM     14  C   LIG    1       24.350 -29.767   9.004  0.00  0.00    +0.162 A 
ATOM     15  C   LIG    1       25.579 -29.305   9.503  0.00  0.00    +0.049 A 
ATOM     16  C   LIG    1       25.873 -29.355  10.867  0.00  0.00    +0.004 A 
ATOM     17  C   LIG    1       24.932 -29.843  11.760  0.00  0.00    +0.004 A 
ATOM     18  C   LIG    1       23.699 -30.289  11.290  0.00  0.00    +0.049 A 
BRANCH  13  20
ATOM     19  C   LIG    1       21.753 -32.006   9.959  0.00  0.00    +0.277 C 
ATOM     20  O   LIG    1       22.181 -30.735   9.449  0.00  0.00    -0.491 OA
ENDBRANCH  13  20
ENDBRANCH  12  14
ENDBRANCH  11  12
ENDBRANCH   8  11
ENDBRANCH   7   8
ENDBRANCH   1   7
BRANCH   4  21
ATOM     21  C   LIG    1       25.970 -22.892   8.004  0.00  0.00    +0.180 C 
BRANCH  21  22
ATOM     22  C   LIG    1       26.934 -21.688   8.144  0.00  0.00    +0.231 C 
ATOM     23  N   LIG    1       28.120 -21.752   7.413  0.00  0.00    -0.284 N 
ATOM     24  H   LIG    1       28.485 -22.698   7.346  0.00  0.00    +0.155 HD
ATOM     25  O   LIG    1       26.618 -20.715   8.877  0.00  0.00    -0.274 OA
BRANCH  23  26
ATOM     26  C   LIG    1       29.091 -20.694   7.441  0.00  0.00    +0.039 A 
ATOM     27  C   LIG    1       30.219 -20.783   8.287  0.00  0.00    -0.029 A 
ATOM     28  C   LIG    1       30.580 -22.027   9.049  0.00  0.00    +0.045 C 
ATOM     29  C   LIG    1       31.075 -19.671   8.429  0.00  0.00    +0.005 A 
ATOM     30  C   LIG    1       30.859 -18.500   7.714  0.00  0.00    +0.001 A 
ATOM     31  C   LIG    1       29.833 -18.458   6.781  0.00  0.00    +0.005 A 
ATOM     32  C   LIG    1       28.963 -19.554   6.609  0.00  0.00    -0.029 A 
ATOM     33  C   LIG    1       28.065 -19.527   5.400  0.00  0.00    +0.045 C 
ENDBRANCH  23  26
ENDBRANCH  21  22
ENDBRANCH   4  21
TORSDOF 10
ENDMDL
MODEL 4
REMARK VINA RESULT:      -7.9      2.986     10.002
REMARK  Name = *****
REMARK                            x       y       z     vdW  Elec       q    Type
REMARK                         _______ _______ _______ _____ _____    ______ ____
ROOT
ATOM      1  N   LIG    1       25.149 -24.327   7.002  0.00  0.00    -0.297 NA
ATOM      2  C   LIG    1       24.265 -24.567   5.854  0.00  0.00    +0.100 C 
ATOM      3  C   LIG    1       24.895 -25.265   4.629  0.00  0.00    +0.100 C 
ATOM      4  N   LIG    1       25.499 -26.585   4.889  0.00  0.00    -0.292 NA
ATOM      5  C   LIG    1       26.389 -26.443   6.074  0.00  0.00    +0.100 C 
ATOM      6  C   LIG    1       25.959 -25.529   7.279  0.00  0.00    +0.100 C 
ENDROOT
BRANCH   1   7
ATOM      7  C   LIG    1       25.873 -23.031   7.069  0.00  0.00    +0.119 C 
BRANCH   7   8
ATOM      8  C   LIG    1       25.460 -22.057   8.230  0.00  0.00    +0.166 C 
BRANCH   8   9
ATOM      9  O   LIG    1       24.155 -21.509   8.014  0.00  0.00    -0.387 OA
ATOM     10  H   LIG    1       24.063 -21.429   7.047  0.00  0.00    +0.210 HD
ENDBRANCH   8   9
BRANCH   8  11
ATOM     11  C   LIG    1       26.388 -20.835   8.421  0.00  0.00    +0.261 C 
BRANCH  11  12
ATOM     12  O   LIG    1       27.781 -21.229   8.390  0.00  0.00    -0.486 OA
BRANCH  12  14
ATOM     13  C   LIG    1       29.926 -20.162   8.021  0.00  0.00    +0.162 A 
ATOM     14  C   LIG    1       28.605 -20.450   7.596  0.00  0.00    +0.162 A 
ATOM     15  C   LIG    1       28.146 -19.886   6.394  0.00  0.00    +0.049 A 
ATOM     16  C   LIG    1       28.970 -19.071   5.615  0.00  0.00    +0.004 A 
ATOM     17  C   LIG    1       30.258 -18.783   6.039  0.00  0.00    +0.004 A 
ATOM     18  C   LIG    1       30.727 -19.315   7.237  0.00  0.00    +0.049 A 
BRANCH  13  20
ATOM     19  C   LIG    1       31.161 -21.914   9.068  0.00  0.00    +0.277 C 
ATOM     20  O   LIG    1       30.396 -20.707   9.198  0.00  0.00    -0.491 OA
ENDBRANCH  13  20
ENDBRANCH  12  14
ENDBRANCH  11  12
ENDBRANCH   8  11
ENDBRANCH   7   8
ENDBRANCH   1   7
BRANCH   4  21
ATOM     21  C   LIG    1       24.522 -27.697   5.039  0.00  0.00    +0.180 C 
BRANCH  21  22
ATOM     22  C   LIG    1       25.031 -28.912   5.855  0.00  0.00    +0.231 C 
ATOM     23  N   LIG    1       24.402 -29.148   7.076  0.00  0.00    -0.284 N 
ATOM     24  H   LIG    1       24.132 -28.288   7.547  0.00  0.00    +0.155 HD
ATOM     25  O   LIG    1       25.955 -29.631   5.395  0.00  0.00    -0.274 OA
BRANCH  23  26
ATOM     26  C   LIG    1       24.768 -30.251   7.921  0.00  0.00    +0.039 A 
ATOM     27  C   LIG    1       24.338 -31.560   7.612  0.00  0.00    -0.029 A 
ATOM     28  C   LIG    1       23.654 -31.919   6.323  0.00  0.00    +0.045 C 
ATOM     29  C   LIG    1       24.562 -32.605   8.533  0.00  0.00    +0.005 A 
ATOM     30  C   LIG    1       25.245 -32.382   9.722  0.00  0.00    +0.001 A 
ATOM     31  C   LIG    1       25.788 -31.129   9.965  0.00  0.00    +0.005 A 
ATOM     32  C   LIG    1       25.588 -30.064   9.062  0.00  0.00    -0.029 A 
ATOM     33  C   LIG    1       26.432 -28.833   9.263  0.00  0.00    +0.045 C 
ENDBRANCH  23  26
ENDBRANCH  21  22
ENDBRANCH   4  21
TORSDOF 10
ENDMDL
MODEL 5
REMARK VINA RESULT:      -7.9      0.740      1.751
REMARK  Name = *****
REMARK                            x       y       z     vdW  Elec       q    Type
REMARK                         _______ _______ _______ _____ _____    ______ ____
ROOT
ATOM      1  N   LIG    1       24.916 -27.355   6.238  0.00  0.00    -0.297 NA
ATOM      2  C   LIG    1       25.939 -26.689   7.053  0.00  0.00    +0.100 C 
ATOM      3  C   LIG    1       26.616 -25.446   6.433  0.00  0.00    +0.100 C 
ATOM      4  N   LIG    1       25.707 -24.352   6.046  0.00  0.00    -0.292 NA
ATOM      5  C   LIG    1       24.605 -24.950   5.242  0.00  0.00    +0.100 C 
ATOM      6  C   LIG    1       24.017 -26.355   5.633  0.00  0.00    +0.100 C 
ENDROOT
BRANCH   1   7
ATOM      7  C   LIG    1       25.345 -28.463   5.344  0.00  0.00    +0.119 C 
BRANCH   7   8
ATOM      8  C   LIG    1       24.578 -29.826   5.500  0.00  0.00    +0.166 C 
BRANCH   8   9
ATOM      9  O   LIG    1       23.160 -29.632   5.490  0.00  0.00    -0.387 OA
ATOM     10  H   LIG    1       22.985 -29.025   4.747  0.00  0.00    +0.210 HD
ENDBRANCH   8   9
BRANCH   8  11
ATOM     11  C   LIG    1       24.874 -30.597   6.807  0.00  0.00    +0.261 C 
BRANCH  11  12
ATOM     12  O   LIG    1       23.749 -30.534   7.716  0.00  0.00    -0.486 OA
BRANCH  12  14
ATOM     13  C   LIG    1       23.074 -30.326  10.035  0.00  0.00    +0.162 A 
ATOM     14  C   LIG    1       24.053 -30.183   9.020  0.00  0.00    +0.162 A 
ATOM     15  C   LIG    1       25.301 -29.634   9.360  0.00  0.00    +0.049 A 
ATOM     16  C   LIG    1       25.589 -29.248  10.670  0.00  0.00    +0.004 A 
ATOM     17  C   LIG    1       24.626 -29.380  11.659  0.00  0.00    +0.004 A 
ATOM     18  C   LIG    1       23.376 -29.903  11.340  0.00  0.00    +0.049 A 
BRANCH  13  20
ATOM     19  C   LIG    1       20.816 -30.694  10.709  0.00  0.00    +0.277 C 
ATOM     20  O   LIG    1       21.843 -30.864   9.721  0.00  0.00    -0.491 OA
ENDBRANCH  13  20
ENDBRANCH  12  14
ENDBRANCH  11  12
ENDBRANCH   8  11
ENDBRANCH   7   8
ENDBRANCH   1   7
BRANCH   4  21
ATOM     21  C   LIG    1       25.205 -23.530   7.180  0.00  0.00    +0.180 C 
BRANCH  21  22
ATOM     22  C   LIG    1       24.531 -22.195   6.775  0.00  0.00    +0.231 C 
ATOM     23  N   LIG    1       24.413 -21.948   5.409  0.00  0.00    -0.284 N 
ATOM     24  H   LIG    1       25.201 -22.309   4.878  0.00  0.00    +0.155 HD
ATOM     25  O   LIG    1       24.114 -21.410   7.665  0.00  0.00    -0.274 OA
BRANCH  23  26
ATOM     26  C   LIG    1       23.793 -20.756   4.900  0.00  0.00    +0.039 A 
ATOM     27  C   LIG    1       24.583 -19.716   4.362  0.00  0.00    -0.029 A 
ATOM     28  C   LIG    1       26.059 -19.849   4.109  0.00  0.00    +0.045 C 
ATOM     29  C   LIG    1       23.980 -18.487   4.019  0.00  0.00    +0.005 A 
ATOM     30  C   LIG    1       22.612 -18.294   4.155  0.00  0.00    +0.001 A 
ATOM     31  C   LIG    1       21.815 -19.358   4.554  0.00  0.00    +0.005 A 
ATOM     32  C   LIG    1       22.385 -20.602   4.897  0.00  0.00    -0.029 A 
ATOM     33  C   LIG    1       21.440 -21.764   5.049  0.00  0.00    +0.045 C 
ENDBRANCH  23  26
ENDBRANCH  21  22
ENDBRANCH   4  21
TORSDOF 10
ENDMDL
MODEL 6
REMARK VINA RESULT:      -7.6      1.243      2.217
REMARK  Name = *****
REMARK                            x       y       z     vdW  Elec       q    Type
REMARK                         _______ _______ _______ _____ _____    ______ ____
ROOT
ATOM      1  N   LIG    1       25.148 -27.499   5.064  0.00  0.00    -0.297 NA
ATOM      2  C   LIG    1       24.438 -26.220   4.938  0.00  0.00    +0.100 C 
ATOM      3  C   LIG    1       24.164 -25.448   6.248  0.00  0.00    +0.100 C 
ATOM      4  N   LIG    1       25.355 -25.112   7.050  0.00  0.00    -0.292 NA
ATOM      5  C   LIG    1       26.162 -26.355   7.195  0.00  0.00    +0.100 C 
ATOM      6  C   LIG    1       26.287 -27.359   5.991  0.00  0.00    +0.100 C 
ENDROOT
BRANCH   1   7
ATOM      7  C   LIG    1       24.339 -28.736   5.218  0.00  0.00    +0.119 C 
BRANCH   7   8
ATOM      8  C   LIG    1       25.110 -30.025   5.680  0.00  0.00    +0.166 C 
BRANCH   8   9
ATOM      9  O   LIG    1       24.978 -31.084   4.727  0.00  0.00    -0.387 OA
ATOM     10  H   LIG    1       25.478 -30.793   3.942  0.00  0.00    +0.210 HD
ENDBRANCH   8   9
BRANCH   8  11
ATOM     11  C   LIG    1       24.636 -30.624   7.024  0.00  0.00    +0.261 C 
BRANCH  11  12
ATOM     12  O   LIG    1       25.352 -30.038   8.138  0.00  0.00    -0.486 OA
BRANCH  12  14
ATOM     13  C   LIG    1       25.316 -29.569  10.516  0.00  0.00    +0.162 A 
ATOM     14  C   LIG    1       24.652 -29.973   9.330  0.00  0.00    +0.162 A 
ATOM     15  C   LIG    1       23.301 -30.351   9.410  0.00  0.00    +0.049 A 
ATOM     16  C   LIG    1       22.610 -30.318  10.623  0.00  0.00    +0.004 A 
ATOM     17  C   LIG    1       23.265 -29.932  11.783  0.00  0.00    +0.004 A 
ATOM     18  C   LIG    1       24.609 -29.573  11.730  0.00  0.00    +0.049 A 
BRANCH  13  20
ATOM     19  C   LIG    1       26.966 -27.945  11.087  0.00  0.00    +0.277 C 
ATOM     20  O   LIG    1       26.642 -29.194  10.458  0.00  0.00    -0.491 OA
ENDBRANCH  13  20
ENDBRANCH  12  14
ENDBRANCH  11  12
ENDBRANCH   8  11
ENDBRANCH   7   8
ENDBRANCH   1   7
BRANCH   4  21
ATOM     21  C   LIG    1       26.154 -23.970   6.528  0.00  0.00    +0.180 C 
BRANCH  21  22
ATOM     22  C   LIG    1       25.383 -22.632   6.407  0.00  0.00    +0.231 C 
ATOM     23  N   LIG    1       24.941 -22.282   5.132  0.00  0.00    -0.284 N 
ATOM     24  H   LIG    1       25.587 -22.572   4.403  0.00  0.00    +0.155 HD
ATOM     25  O   LIG    1       25.176 -21.934   7.434  0.00  0.00    -0.274 OA
BRANCH  23  26
ATOM     26  C   LIG    1       24.200 -21.075   4.887  0.00  0.00    +0.039 A 
ATOM     27  C   LIG    1       22.818 -21.017   5.170  0.00  0.00    -0.029 A 
ATOM     28  C   LIG    1       22.080 -22.103   5.902  0.00  0.00    +0.045 C 
ATOM     29  C   LIG    1       22.071 -19.888   4.773  0.00  0.00    +0.005 A 
ATOM     30  C   LIG    1       22.679 -18.805   4.150  0.00  0.00    +0.001 A 
ATOM     31  C   LIG    1       24.058 -18.802   3.994  0.00  0.00    +0.005 A 
ATOM     32  C   LIG    1       24.835 -19.911   4.387  0.00  0.00    -0.029 A 
ATOM     33  C   LIG    1       26.327 -19.713   4.437  0.00  0.00    +0.045 C 
ENDBRANCH  23  26
ENDBRANCH  21  22
ENDBRANCH   4  21
TORSDOF 10
ENDMDL
MODEL 7
REMARK VINA RESULT:      -7.6      3.148     10.306
REMARK  Name = *****
REMARK                            x       y       z     vdW  Elec       q    Type
REMARK                         _______ _______ _______ _____ _____    ______ ____
ROOT
ATOM      1  N   LIG    1       24.983 -24.814   6.912  0.00  0.00    -0.297 NA
ATOM      2  C   LIG    1       24.028 -25.197   5.865  0.00  0.00    +0.100 C 
ATOM      3  C   LIG    1       24.595 -25.997   4.671  0.00  0.00    +0.100 C 
ATOM      4  N   LIG    1       25.267 -27.263   5.014  0.00  0.00    -0.292 NA
ATOM      5  C   LIG    1       26.234 -26.974   6.109  0.00  0.00    +0.100 C 
ATOM      6  C   LIG    1       25.856 -25.955   7.246  0.00  0.00    +0.100 C 
ENDROOT
BRANCH   1   7
ATOM      7  C   LIG    1       25.659 -23.495   6.796  0.00  0.00    +0.119 C 
BRANCH   7   8
ATOM      8  C   LIG    1       25.466 -22.500   7.997  0.00  0.00    +0.166 C 
BRANCH   8   9
ATOM      9  O   LIG    1       24.236 -21.776   7.883  0.00  0.00    -0.387 OA
ATOM     10  H   LIG    1       24.347 -21.195   7.109  0.00  0.00    +0.210 HD
ENDBRANCH   8   9
BRANCH   8  11
ATOM     11  C   LIG    1       26.563 -21.420   8.134  0.00  0.00    +0.261 C 
BRANCH  11  12
ATOM     12  O   LIG    1       27.792 -21.842   7.493  0.00  0.00    -0.486 OA
BRANCH  12  14
ATOM     13  C   LIG    1       29.857 -20.668   7.979  0.00  0.00    +0.162 A 
ATOM     14  C   LIG    1       28.687 -20.829   7.194  0.00  0.00    +0.162 A 
ATOM     15  C   LIG    1       28.440 -19.913   6.158  0.00  0.00    +0.049 A 
ATOM     16  C   LIG    1       29.328 -18.870   5.885  0.00  0.00    +0.004 A 
ATOM     17  C   LIG    1       30.466 -18.710   6.660  0.00  0.00    +0.004 A 
ATOM     18  C   LIG    1       30.721 -19.595   7.705  0.00  0.00    +0.049 A 
BRANCH  13  20
ATOM     19  C   LIG    1       31.466 -22.043   9.078  0.00  0.00    +0.277 C 
ATOM     20  O   LIG    1       30.118 -21.558   9.000  0.00  0.00    -0.491 OA
ENDBRANCH  13  20
ENDBRANCH  12  14
ENDBRANCH  11  12
ENDBRANCH   8  11
ENDBRANCH   7   8
ENDBRANCH   1   7
BRANCH   4  21
ATOM     21  C   LIG    1       24.347 -28.385   5.347  0.00  0.00    +0.180 C 
BRANCH  21  22
ATOM     22  C   LIG    1       25.039 -29.666   5.876  0.00  0.00    +0.231 C 
ATOM     23  N   LIG    1       24.699 -30.068   7.167  0.00  0.00    -0.284 N 
ATOM     24  H   LIG    1       24.529 -29.281   7.787  0.00  0.00    +0.155 HD
ATOM     25  O   LIG    1       25.847 -30.289   5.141  0.00  0.00    -0.274 OA
BRANCH  23  26
ATOM     26  C   LIG    1       25.256 -31.247   7.769  0.00  0.00    +0.039 A 
ATOM     27  C   LIG    1       26.277 -31.139   8.739  0.00  0.00    -0.029 A 
ATOM     28  C   LIG    1       26.710 -29.829   9.336  0.00  0.00    +0.045 C 
ATOM     29  C   LIG    1       26.930 -32.302   9.200  0.00  0.00    +0.005 A 
ATOM     30  C   LIG    1       26.553 -33.562   8.755  0.00  0.00    +0.001 A 
ATOM     31  C   LIG    1       25.461 -33.682   7.907  0.00  0.00    +0.005 A 
ATOM     32  C   LIG    1       24.783 -32.540   7.433  0.00  0.00    -0.029 A 
ATOM     33  C   LIG    1       23.459 -32.769   6.752  0.00  0.00    +0.045 C 
ENDBRANCH  23  26
ENDBRANCH  21  22
ENDBRANCH   4  21
TORSDOF 10
ENDMDL
MODEL 8
REMARK VINA RESULT:      -7.3      2.699      4.342
REMARK  Name = *****
REMARK                            x       y       z     vdW  Elec       q    Type
REMARK                         _______ _______ _______ _____ _____    ______ ____
ROOT
ATOM      1  N   LIG    1       24.494 -26.337   6.504  0.00  0.00    -0.297 NA
ATOM      2  C   LIG    1       25.842 -26.034   7.003  0.00  0.00    +0.100 C 
ATOM      3  C   LIG    1       26.547 -24.805   6.387  0.00  0.00    +0.100 C 
ATOM      4  N   LIG    1       25.828 -23.525   6.517  0.00  0.00    -0.292 NA
ATOM      5  C   LIG    1       24.427 -23.752   6.067  0.00  0.00    +0.100 C 
ATOM      6  C   LIG    1       23.695 -25.100   6.414  0.00  0.00    +0.100 C 
ENDROOT
BRANCH   1   7
ATOM      7  C   LIG    1       24.367 -27.272   5.356  0.00  0.00    +0.119 C 
BRANCH   7   8
ATOM      8  C   LIG    1       24.324 -28.805   5.702  0.00  0.00    +0.166 C 
BRANCH   8   9
ATOM      9  O   LIG    1       23.086 -29.398   5.298  0.00  0.00    -0.387 OA
ATOM     10  H   LIG    1       22.951 -30.154   5.899  0.00  0.00    +0.210 HD
ENDBRANCH   8   9
BRANCH   8  11
ATOM     11  C   LIG    1       24.466 -29.139   7.204  0.00  0.00    +0.261 C 
BRANCH  11  12
ATOM     12  O   LIG    1       25.070 -30.442   7.393  0.00  0.00    -0.486 OA
BRANCH  12  14
ATOM     13  C   LIG    1       23.919 -32.526   6.933  0.00  0.00    +0.162 A 
ATOM     14  C   LIG    1       24.209 -31.445   7.805  0.00  0.00    +0.162 A 
ATOM     15  C   LIG    1       23.566 -31.395   9.052  0.00  0.00    +0.049 A 
ATOM     16  C   LIG    1       22.669 -32.391   9.446  0.00  0.00    +0.004 A 
ATOM     17  C   LIG    1       22.381 -33.441   8.588  0.00  0.00    +0.004 A 
ATOM     18  C   LIG    1       22.992 -33.500   7.339  0.00  0.00    +0.049 A 
BRANCH  13  20
ATOM     19  C   LIG    1       23.958 -33.500   4.757  0.00  0.00    +0.277 C 
ATOM     20  O   LIG    1       24.541 -32.593   5.704  0.00  0.00    -0.491 OA
ENDBRANCH  13  20
ENDBRANCH  12  14
ENDBRANCH  11  12
ENDBRANCH   8  11
ENDBRANCH   7   8
ENDBRANCH   1   7
BRANCH   4  21
ATOM     21  C   LIG    1       25.900 -22.907   7.868  0.00  0.00    +0.180 C 
BRANCH  21  22
ATOM     22  C   LIG    1       26.934 -21.762   8.011  0.00  0.00    +0.231 C 
ATOM     23  N   LIG    1       28.072 -21.849   7.211  0.00  0.00    -0.284 N 
ATOM     24  H   LIG    1       28.381 -22.808   7.077  0.00  0.00    +0.155 HD
ATOM     25  O   LIG    1       26.712 -20.814   8.809  0.00  0.00    -0.274 OA
BRANCH  23  26
ATOM     26  C   LIG    1       29.099 -20.845   7.235  0.00  0.00    +0.039 A 
ATOM     27  C   LIG    1       29.010 -19.712   6.396  0.00  0.00    -0.029 A 
ATOM     28  C   LIG    1       27.788 -19.383   5.585  0.00  0.00    +0.045 C 
ATOM     29  C   LIG    1       30.099 -18.820   6.308  0.00  0.00    +0.005 A 
ATOM     30  C   LIG    1       31.245 -19.006   7.071  0.00  0.00    +0.001 A 
ATOM     31  C   LIG    1       31.281 -20.040   7.995  0.00  0.00    +0.005 A 
ATOM     32  C   LIG    1       30.206 -20.945   8.114  0.00  0.00    -0.029 A 
ATOM     33  C   LIG    1       30.210 -21.853   9.316  0.00  0.00    +0.045 C 
ENDBRANCH  23  26
ENDBRANCH  21  22
ENDBRANCH   4  21
TORSDOF 10
ENDMDL
MODEL 9
REMARK VINA RESULT:      -7.2      1.854      3.228
REMARK  Name = *****
REMARK                            x       y       z     vdW  Elec       q    Type
REMARK                         _______ _______ _______ _____ _____    ______ ____
ROOT
ATOM      1  N   LIG    1       24.730 -29.449   6.623  0.00  0.00    -0.297 NA
ATOM      2  C   LIG    1       24.520 -28.080   7.109  0.00  0.00    +0.100 C 
ATOM      3  C   LIG    1       25.670 -27.078   6.871  0.00  0.00    +0.100 C 
ATOM      4  N   LIG    1       26.075 -26.894   5.466  0.00  0.00    -0.292 NA
ATOM      5  C   LIG    1       26.272 -28.247   4.877  0.00  0.00    +0.100 C 
ATOM      6  C   LIG    1       25.305 -29.424   5.265  0.00  0.00    +0.100 C 
ENDROOT
BRANCH   1   7
ATOM      7  C   LIG    1       25.324 -30.441   7.558  0.00  0.00    +0.119 C 
BRANCH   7   8
ATOM      8  C   LIG    1       24.315 -31.298   8.404  0.00  0.00    +0.166 C 
BRANCH   8   9
ATOM      9  O   LIG    1       23.359 -31.957   7.567  0.00  0.00    -0.387 OA
ATOM     10  H   LIG    1       23.373 -32.892   7.842  0.00  0.00    +0.210 HD
ENDBRANCH   8   9
BRANCH   8  11
ATOM     11  C   LIG    1       23.478 -30.500   9.430  0.00  0.00    +0.261 C 
BRANCH  11  12
ATOM     12  O   LIG    1       24.002 -30.663  10.770  0.00  0.00    -0.486 OA
BRANCH  12  14
ATOM     13  C   LIG    1       25.039 -28.836  11.979  0.00  0.00    +0.162 A 
ATOM     14  C   LIG    1       23.881 -29.560  11.597  0.00  0.00    +0.162 A 
ATOM     15  C   LIG    1       22.637 -29.165  12.117  0.00  0.00    +0.049 A 
ATOM     16  C   LIG    1       22.527 -28.074  12.981  0.00  0.00    +0.004 A 
ATOM     17  C   LIG    1       23.661 -27.373  13.360  0.00  0.00    +0.004 A 
ATOM     18  C   LIG    1       24.907 -27.759  12.872  0.00  0.00    +0.049 A 
BRANCH  13  20
ATOM     19  C   LIG    1       26.760 -28.424  10.381  0.00  0.00    +0.277 C 
ATOM     20  O   LIG    1       26.269 -29.207  11.479  0.00  0.00    -0.491 OA
ENDBRANCH  13  20
ENDBRANCH  12  14
ENDBRANCH  11  12
ENDBRANCH   8  11
ENDBRANCH   7   8
ENDBRANCH   1   7
BRANCH   4  21
ATOM     21  C   LIG    1       25.153 -26.049   4.659  0.00  0.00    +0.180 C 
BRANCH  21  22
ATOM     22  C   LIG    1       24.531 -24.849   5.417  0.00  0.00    +0.231 C 
ATOM     23  N   LIG    1       25.125 -23.605   5.205  0.00  0.00    -0.284 N 
ATOM     24  H   LIG    1       26.132 -23.670   5.082  0.00  0.00    +0.155 HD
ATOM     25  O   LIG    1       23.534 -25.029   6.162  0.00  0.00    -0.274 OA
BRANCH  23  26
ATOM     26  C   LIG    1       24.634 -22.410   5.834  0.00  0.00    +0.039 A 
ATOM     27  C   LIG    1       24.936 -22.141   7.187  0.00  0.00    -0.029 A 
ATOM     28  C   LIG    1       25.914 -22.952   7.990  0.00  0.00    +0.045 C 
ATOM     29  C   LIG    1       24.315 -21.055   7.839  0.00  0.00    +0.005 A 
ATOM     30  C   LIG    1       23.447 -20.209   7.160  0.00  0.00    +0.001 A 
ATOM     31  C   LIG    1       23.256 -20.389   5.798  0.00  0.00    +0.005 A 
ATOM     32  C   LIG    1       23.866 -21.462   5.115  0.00  0.00    -0.029 A 
ATOM     33  C   LIG    1       23.828 -21.420   3.610  0.00  0.00    +0.045 C 
ENDBRANCH  23  26
ENDBRANCH  21  22
ENDBRANCH   4  21
TORSDOF 10
ENDMDL
