MODEL 1
REMARK VINA RESULT:      -2.9      0.000      0.000
REMARK  Name = *****
REMARK                            x       y       z     vdW  Elec       q    Type
REMARK                         _______ _______ _______ _____ _____    ______ ____
ROOT
ATOM      1 BR   LIG    1       22.186 -16.311   4.562  0.00  0.00    -0.044 Br
ATOM      2  C   LIG    1       23.991 -16.612   3.998  0.00  0.00    +0.087 A 
ATOM      3  C   LIG    1       24.881 -15.525   3.962  0.00  0.00    +0.106 A 
ATOM      4  C   LIG    1       26.213 -15.766   3.533  0.00  0.00    +0.090 A 
ATOM      5  N   LIG    1       27.133 -14.785   3.470  0.00  0.00    -0.252 NA
ATOM      6  C   LIG    1       26.731 -13.550   3.832  0.00  0.00    +0.131 A 
ATOM      7  C   LIG    1       25.447 -13.295   4.252  0.00  0.00    +0.131 A 
ATOM      8  C   LIG    1       26.597 -17.045   3.164  0.00  0.00    +0.033 A 
ATOM      9  C   LIG    1       25.702 -18.111   3.209  0.00  0.00    +0.049 A 
ATOM     10  N   LIG    1       24.513 -14.267   4.328  0.00  0.00    -0.251 NA
ATOM     11  C   LIG    1       24.393 -17.912   3.638  0.00  0.00    +0.158 A 
ENDROOT
BRANCH  11  12
ATOM     12  N   LIG    1       23.524 -19.016   3.641  0.00  0.00    -0.076 NA
ATOM     13  C   LIG    1       23.665 -19.907   4.559  0.00  0.00    +0.370 C 
ATOM     14  N   LIG    1       24.516 -19.964   5.630  0.00  0.00    -0.235 N 
ATOM     15  H   LIG    1       24.962 -19.110   5.934  0.00  0.00    +0.244 HD
ATOM     16  C   LIG    1       24.098 -20.936   6.625  0.00  0.00    +0.219 C 
ATOM     17  C   LIG    1       22.850 -21.570   5.988  0.00  0.00    +0.219 C 
ATOM     18  N   LIG    1       22.849 -21.000   4.655  0.00  0.00    -0.235 N 
ATOM     19  H   LIG    1       21.979 -20.926   4.143  0.00  0.00    +0.244 HD
ENDBRANCH  11  12
TORSDOF 1
ENDMDL
MODEL 2
REMARK VINA RESULT:      -2.8      1.847      6.121
REMARK  Name = *****
REMARK                            x       y       z     vdW  Elec       q    Type
REMARK                         _______ _______ _______ _____ _____    ______ ____
ROOT
ATOM      1 BR   LIG    1       27.712 -18.971   5.011  0.00  0.00    -0.044 Br
ATOM      2  C   LIG    1       25.844 -18.948   4.586  0.00  0.00    +0.087 A 
ATOM      3  C   LIG    1       24.989 -19.856   5.234  0.00  0.00    +0.106 A 
ATOM      4  C   LIG    1       23.610 -19.829   4.900  0.00  0.00    +0.090 A 
ATOM      5  N   LIG    1       22.718 -20.660   5.474  0.00  0.00    -0.252 NA
ATOM      6  C   LIG    1       23.198 -21.530   6.385  0.00  0.00    +0.131 A 
ATOM      7  C   LIG    1       24.530 -21.572   6.725  0.00  0.00    +0.131 A 
ATOM      8  C   LIG    1       23.147 -18.925   3.958  0.00  0.00    +0.033 A 
ATOM      9  C   LIG    1       24.008 -18.031   3.328  0.00  0.00    +0.049 A 
ATOM     10  N   LIG    1       25.436 -20.742   6.165  0.00  0.00    -0.251 NA
ATOM     11  C   LIG    1       25.364 -18.021   3.642  0.00  0.00    +0.158 A 
ENDROOT
BRANCH  11  12
ATOM     12  N   LIG    1       26.193 -17.116   2.959  0.00  0.00    -0.076 NA
ATOM     13  C   LIG    1       26.052 -15.858   3.191  0.00  0.00    +0.370 C 
ATOM     14  N   LIG    1       25.236 -15.194   4.067  0.00  0.00    -0.235 N 
ATOM     15  H   LIG    1       24.830 -15.713   4.833  0.00  0.00    +0.244 HD
ATOM     16  C   LIG    1       25.653 -13.819   4.288  0.00  0.00    +0.219 C 
ATOM     17  C   LIG    1       26.856 -13.666   3.342  0.00  0.00    +0.219 C 
ATOM     18  N   LIG    1       26.832 -14.907   2.592  0.00  0.00    -0.235 N 
ATOM     19  H   LIG    1       27.687 -15.258   2.179  0.00  0.00    +0.244 HD
ENDBRANCH  11  12
TORSDOF 1
ENDMDL
MODEL 3
REMARK VINA RESULT:      -2.7      2.377      6.140
REMARK  Name = *****
REMARK                            x       y       z     vdW  Elec       q    Type
REMARK                         _______ _______ _______ _____ _____    ______ ____
ROOT
ATOM      1 BR   LIG    1       24.342 -18.758   3.679  0.00  0.00    -0.044 Br
ATOM      2  C   LIG    1       26.132 -18.698   4.360  0.00  0.00    +0.087 A 
ATOM      3  C   LIG    1       26.542 -19.680   5.278  0.00  0.00    +0.106 A 
ATOM      4  C   LIG    1       27.869 -19.614   5.777  0.00  0.00    +0.090 A 
ATOM      5  N   LIG    1       28.347 -20.515   6.657  0.00  0.00    -0.252 NA
ATOM      6  C   LIG    1       27.502 -21.488   7.051  0.00  0.00    +0.131 A 
ATOM      7  C   LIG    1       26.214 -21.572   6.578  0.00  0.00    +0.131 A 
ATOM      8  C   LIG    1       28.713 -18.601   5.357  0.00  0.00    +0.033 A 
ATOM      9  C   LIG    1       28.291 -17.638   4.444  0.00  0.00    +0.049 A 
ATOM     10  N   LIG    1       25.720 -20.682   5.691  0.00  0.00    -0.251 NA
ATOM     11  C   LIG    1       27.001 -17.681   3.924  0.00  0.00    +0.158 A 
ENDROOT
BRANCH  11  12
ATOM     12  N   LIG    1       26.618 -16.671   3.026  0.00  0.00    -0.076 NA
ATOM     13  C   LIG    1       26.742 -15.443   3.390  0.00  0.00    +0.370 C 
ATOM     14  N   LIG    1       27.255 -14.896   4.536  0.00  0.00    -0.235 N 
ATOM     15  H   LIG    1       27.850 -15.470   5.117  0.00  0.00    +0.244 HD
ATOM     16  C   LIG    1       27.559 -13.482   4.393  0.00  0.00    +0.219 C 
ATOM     17  C   LIG    1       27.086 -13.169   2.963  0.00  0.00    +0.219 C 
ATOM     18  N   LIG    1       26.419 -14.396   2.572  0.00  0.00    -0.235 N 
ATOM     19  H   LIG    1       26.342 -14.632   1.591  0.00  0.00    +0.244 HD
ENDBRANCH  11  12
TORSDOF 1
ENDMDL
MODEL 4
REMARK VINA RESULT:      -1.9      1.255      5.780
REMARK  Name = *****
REMARK                            x       y       z     vdW  Elec       q    Type
REMARK                         _______ _______ _______ _____ _____    ______ ____
ROOT
ATOM      1 BR   LIG    1       21.977 -16.553   4.806  0.00  0.00    -0.044 Br
ATOM      2  C   LIG    1       23.545 -17.494   4.236  0.00  0.00    +0.087 A 
ATOM      3  C   LIG    1       23.600 -18.888   4.407  0.00  0.00    +0.106 A 
ATOM      4  C   LIG    1       24.774 -19.566   3.986  0.00  0.00    +0.090 A 
ATOM      5  N   LIG    1       24.912 -20.900   4.108  0.00  0.00    -0.252 NA
ATOM      6  C   LIG    1       23.879 -21.570   4.657  0.00  0.00    +0.131 A 
ATOM      7  C   LIG    1       22.732 -20.933   5.069  0.00  0.00    +0.131 A 
ATOM      8  C   LIG    1       25.821 -18.850   3.429  0.00  0.00    +0.033 A 
ATOM      9  C   LIG    1       25.748 -17.470   3.265  0.00  0.00    +0.049 A 
ATOM     10  N   LIG    1       22.574 -19.598   4.948  0.00  0.00    -0.251 NA
ATOM     11  C   LIG    1       24.606 -16.775   3.654  0.00  0.00    +0.158 A 
ENDROOT
BRANCH  11  12
ATOM     12  N   LIG    1       24.594 -15.380   3.489  0.00  0.00    -0.076 NA
ATOM     13  C   LIG    1       25.694 -14.733   3.646  0.00  0.00    +0.370 C 
ATOM     14  N   LIG    1       26.964 -15.174   3.909  0.00  0.00    -0.235 N 
ATOM     15  H   LIG    1       27.180 -16.145   3.736  0.00  0.00    +0.244 HD
ATOM     16  C   LIG    1       27.974 -14.165   3.635  0.00  0.00    +0.219 C 
ATOM     17  C   LIG    1       27.139 -12.946   3.209  0.00  0.00    +0.219 C 
ATOM     18  N   LIG    1       25.782 -13.378   3.479  0.00  0.00    -0.235 N 
ATOM     19  H   LIG    1       25.014 -12.963   2.968  0.00  0.00    +0.244 HD
ENDBRANCH  11  12
TORSDOF 1
ENDMDL
MODEL 5
REMARK VINA RESULT:      -1.8      1.665      5.758
REMARK  Name = *****
REMARK                            x       y       z     vdW  Elec       q    Type
REMARK                         _______ _______ _______ _____ _____    ______ ____
ROOT
ATOM      1 BR   LIG    1       23.830 -14.040   3.677  0.00  0.00    -0.044 Br
ATOM      2  C   LIG    1       24.625 -15.781   3.589  0.00  0.00    +0.087 A 
ATOM      3  C   LIG    1       23.864 -16.895   3.981  0.00  0.00    +0.106 A 
ATOM      4  C   LIG    1       24.473 -18.175   3.917  0.00  0.00    +0.090 A 
ATOM      5  N   LIG    1       23.818 -19.298   4.269  0.00  0.00    -0.252 NA
ATOM      6  C   LIG    1       22.547 -19.152   4.694  0.00  0.00    +0.131 A 
ATOM      7  C   LIG    1       21.936 -17.921   4.761  0.00  0.00    +0.131 A 
ATOM      8  C   LIG    1       25.782 -18.294   3.479  0.00  0.00    +0.033 A 
ATOM      9  C   LIG    1       26.520 -17.179   3.092  0.00  0.00    +0.049 A 
ATOM     10  N   LIG    1       22.576 -16.787   4.406  0.00  0.00    -0.251 NA
ATOM     11  C   LIG    1       25.949 -15.910   3.130  0.00  0.00    +0.158 A 
ENDROOT
BRANCH  11  12
ATOM     12  N   LIG    1       26.745 -14.817   2.752  0.00  0.00    -0.076 NA
ATOM     13  C   LIG    1       27.149 -14.006   3.666  0.00  0.00    +0.370 C 
ATOM     14  N   LIG    1       26.986 -14.033   5.025  0.00  0.00    -0.235 N 
ATOM     15  H   LIG    1       26.722 -14.906   5.459  0.00  0.00    +0.244 HD
ATOM     16  C   LIG    1       27.911 -13.151   5.717  0.00  0.00    +0.219 C 
ATOM     17  C   LIG    1       28.673 -12.475   4.565  0.00  0.00    +0.219 C 
ATOM     18  N   LIG    1       27.950 -12.930   3.394  0.00  0.00    -0.235 N 
ATOM     19  H   LIG    1       28.420 -12.967   2.499  0.00  0.00    +0.244 HD
ENDBRANCH  11  12
TORSDOF 1
ENDMDL
MODEL 6
REMARK VINA RESULT:      -1.3      3.404      4.595
REMARK  Name = *****
REMARK                            x       y       z     vdW  Elec       q    Type
REMARK                         _______ _______ _______ _____ _____    ______ ____
ROOT
ATOM      1 BR   LIG    1       24.488 -21.572   6.955  0.00  0.00    -0.044 Br
ATOM      2  C   LIG    1       25.351 -20.472   5.645  0.00  0.00    +0.087 A 
ATOM      3  C   LIG    1       26.684 -20.082   5.859  0.00  0.00    +0.106 A 
ATOM      4  C   LIG    1       27.304 -19.260   4.881  0.00  0.00    +0.090 A 
ATOM      5  N   LIG    1       28.579 -18.842   5.002  0.00  0.00    -0.252 NA
ATOM      6  C   LIG    1       29.247 -19.239   6.104  0.00  0.00    +0.131 A 
ATOM      7  C   LIG    1       28.666 -20.037   7.061  0.00  0.00    +0.131 A 
ATOM      8  C   LIG    1       26.592 -18.866   3.761  0.00  0.00    +0.033 A 
ATOM      9  C   LIG    1       25.272 -19.264   3.565  0.00  0.00    +0.049 A 
ATOM     10  N   LIG    1       27.392 -20.470   6.953  0.00  0.00    -0.251 NA
ATOM     11  C   LIG    1       24.639 -20.081   4.497  0.00  0.00    +0.158 A 
ENDROOT
BRANCH  11  12
ATOM     12  N   LIG    1       23.299 -20.433   4.263  0.00  0.00    -0.076 NA
ATOM     13  C   LIG    1       22.404 -19.509   4.301  0.00  0.00    +0.370 C 
ATOM     14  N   LIG    1       22.520 -18.157   4.486  0.00  0.00    -0.235 N 
ATOM     15  H   LIG    1       23.424 -17.729   4.346  0.00  0.00    +0.244 HD
ATOM     16  C   LIG    1       21.325 -17.433   4.083  0.00  0.00    +0.219 C 
ATOM     17  C   LIG    1       20.364 -18.558   3.663  0.00  0.00    +0.219 C 
ATOM     18  N   LIG    1       21.081 -19.755   4.059  0.00  0.00    -0.235 N 
ATOM     19  H   LIG    1       20.891 -20.630   3.589  0.00  0.00    +0.244 HD
ENDBRANCH  11  12
TORSDOF 1
ENDMDL
MODEL 7
REMARK VINA RESULT:      -0.7      2.739      3.243
REMARK  Name = *****
REMARK                            x       y       z     vdW  Elec       q    Type
REMARK                         _______ _______ _______ _____ _____    ______ ____
ROOT
ATOM      1 BR   LIG    1       23.165 -16.499   4.194  0.00  0.00    -0.044 Br
ATOM      2  C   LIG    1       24.801 -15.668   3.646  0.00  0.00    +0.087 A 
ATOM      3  C   LIG    1       24.795 -14.298   3.332  0.00  0.00    +0.106 A 
ATOM      4  C   LIG    1       26.016 -13.702   2.920  0.00  0.00    +0.090 A 
ATOM      5  N   LIG    1       26.103 -12.396   2.602  0.00  0.00    -0.252 NA
ATOM      6  C   LIG    1       24.969 -11.673   2.689  0.00  0.00    +0.131 A 
ATOM      7  C   LIG    1       23.777 -12.230   3.088  0.00  0.00    +0.131 A 
ATOM      8  C   LIG    1       27.164 -14.472   2.837  0.00  0.00    +0.033 A 
ATOM      9  C   LIG    1       27.153 -15.827   3.155  0.00  0.00    +0.049 A 
ATOM     10  N   LIG    1       23.673 -13.535   3.416  0.00  0.00    -0.251 NA
ATOM     11  C   LIG    1       25.976 -16.440   3.576  0.00  0.00    +0.158 A 
ENDROOT
BRANCH  11  12
ATOM     12  N   LIG    1       26.013 -17.815   3.861  0.00  0.00    -0.076 NA
ATOM     13  C   LIG    1       27.099 -18.315   4.337  0.00  0.00    +0.370 C 
ATOM     14  N   LIG    1       28.281 -17.720   4.689  0.00  0.00    -0.235 N 
ATOM     15  H   LIG    1       28.289 -16.722   4.842  0.00  0.00    +0.244 HD
ATOM     16  C   LIG    1       29.106 -18.570   5.531  0.00  0.00    +0.219 C 
ATOM     17  C   LIG    1       28.289 -19.871   5.617  0.00  0.00    +0.219 C 
ATOM     18  N   LIG    1       27.218 -19.637   4.668  0.00  0.00    -0.235 N 
ATOM     19  H   LIG    1       26.339 -20.128   4.775  0.00  0.00    +0.244 HD
ENDBRANCH  11  12
TORSDOF 1
ENDMDL
MODEL 8
REMARK VINA RESULT:      -0.2      2.126      2.658
REMARK  Name = *****
REMARK                            x       y       z     vdW  Elec       q    Type
REMARK                         _______ _______ _______ _____ _____    ______ ____
ROOT
ATOM      1 BR   LIG    1       28.862 -17.828   4.817  0.00  0.00    -0.044 Br
ATOM      2  C   LIG    1       27.270 -17.037   4.103  0.00  0.00    +0.087 A 
ATOM      3  C   LIG    1       27.238 -15.648   3.894  0.00  0.00    +0.106 A 
ATOM      4  C   LIG    1       26.047 -15.080   3.372  0.00  0.00    +0.090 A 
ATOM      5  N   LIG    1       25.928 -13.759   3.136  0.00  0.00    -0.252 NA
ATOM      6  C   LIG    1       26.998 -12.992   3.424  0.00  0.00    +0.131 A 
ATOM      7  C   LIG    1       28.162 -13.522   3.928  0.00  0.00    +0.131 A 
ATOM      8  C   LIG    1       24.962 -15.893   3.089  0.00  0.00    +0.033 A 
ATOM      9  C   LIG    1       25.013 -17.268   3.301  0.00  0.00    +0.049 A 
ATOM     10  N   LIG    1       28.301 -14.844   4.164  0.00  0.00    -0.251 NA
ATOM     11  C   LIG    1       26.170 -17.860   3.798  0.00  0.00    +0.158 A 
ENDROOT
BRANCH  11  12
ATOM     12  N   LIG    1       26.160 -19.248   4.016  0.00  0.00    -0.076 NA
ATOM     13  C   LIG    1       25.094 -19.788   4.493  0.00  0.00    +0.370 C 
ATOM     14  N   LIG    1       23.875 -19.245   4.800  0.00  0.00    -0.235 N 
ATOM     15  H   LIG    1       23.635 -18.348   4.402  0.00  0.00    +0.244 HD
ATOM     16  C   LIG    1       22.837 -20.252   4.951  0.00  0.00    +0.219 C 
ATOM     17  C   LIG    1       23.603 -21.571   4.760  0.00  0.00    +0.219 C 
ATOM     18  N   LIG    1       24.985 -21.133   4.712  0.00  0.00    -0.235 N 
ATOM     19  H   LIG    1       25.673 -21.698   4.231  0.00  0.00    +0.244 HD
ENDBRANCH  11  12
TORSDOF 1
ENDMDL
MODEL 9
REMARK VINA RESULT:      -0.0      1.577      5.926
REMARK  Name = *****
REMARK                            x       y       z     vdW  Elec       q    Type
REMARK                         _______ _______ _______ _____ _____    ______ ____
ROOT
ATOM      1 BR   LIG    1       23.479 -14.760   4.557  0.00  0.00    -0.044 Br
ATOM      2  C   LIG    1       24.409 -16.345   4.016  0.00  0.00    +0.087 A 
ATOM      3  C   LIG    1       23.735 -17.577   4.061  0.00  0.00    +0.106 A 
ATOM      4  C   LIG    1       24.443 -18.741   3.664  0.00  0.00    +0.090 A 
ATOM      5  N   LIG    1       23.876 -19.962   3.673  0.00  0.00    -0.252 NA
ATOM      6  C   LIG    1       22.594 -20.033   4.083  0.00  0.00    +0.131 A 
ATOM      7  C   LIG    1       21.888 -18.918   4.470  0.00  0.00    +0.131 A 
ATOM      8  C   LIG    1       25.761 -18.637   3.250  0.00  0.00    +0.033 A 
ATOM      9  C   LIG    1       26.413 -17.407   3.209  0.00  0.00    +0.049 A 
ATOM     10  N   LIG    1       22.439 -17.685   4.461  0.00  0.00    -0.251 NA
ATOM     11  C   LIG    1       25.743 -16.244   3.578  0.00  0.00    +0.158 A 
ENDROOT
BRANCH  11  12
ATOM     12  N   LIG    1       26.454 -15.033   3.542  0.00  0.00    -0.076 NA
ATOM     13  C   LIG    1       25.978 -14.061   2.846  0.00  0.00    +0.370 C 
ATOM     14  N   LIG    1       24.814 -13.955   2.133  0.00  0.00    -0.235 N 
ATOM     15  H   LIG    1       24.070 -14.610   2.328  0.00  0.00    +0.244 HD
ATOM     16  C   LIG    1       24.477 -12.578   1.813  0.00  0.00    +0.219 C 
ATOM     17  C   LIG    1       25.669 -11.789   2.382  0.00  0.00    +0.219 C 
ATOM     18  N   LIG    1       26.588 -12.839   2.774  0.00  0.00    -0.235 N 
ATOM     19  H   LIG    1       27.269 -12.662   3.501  0.00  0.00    +0.244 HD
ENDBRANCH  11  12
TORSDOF 1
ENDMDL
