MODEL 1
REMARK VINA RESULT:      -4.0      0.000      0.000
REMARK  Name = *****
REMARK                            x       y       z     vdW  Elec       q    Type
REMARK                         _______ _______ _______ _____ _____    ______ ____
ROOT
ATOM      1  C   LIG    1       23.115 -15.838   4.071  0.00  0.00    +0.011 C 
ATOM      2  C   LIG    1       23.982 -14.575   4.018  0.00  0.00    -0.030 C 
ATOM      3  C   LIG    1       25.450 -14.951   3.709  0.00  0.00    +0.013 C 
ATOM      4  C   LIG    1       26.341 -13.687   3.655  0.00  0.00    -0.030 C 
ATOM      5  C   LIG    1       26.256 -12.961   5.017  0.00  0.00    +0.010 C 
ATOM      6  C   LIG    1       24.802 -12.569   5.327  0.00  0.00    -0.008 C 
ATOM      7  C   LIG    1       24.281 -11.635   4.223  0.00  0.00    +0.025 C 
ATOM      8  C   LIG    1       24.339 -12.347   2.856  0.00  0.00    +0.018 C 
ATOM      9  C   LIG    1       27.790 -14.077   3.352  0.00  0.00    +0.011 C 
ATOM     10  C   LIG    1       25.799 -12.744   2.555  0.00  0.00    +0.028 C 
ATOM     11  C   LIG    1       23.469 -13.622   2.914  0.00  0.00    +0.028 C 
ATOM     12  C   LIG    1       23.933 -13.836   5.374  0.00  0.00    +0.010 C 
ENDROOT
BRANCH   8  13
ATOM     13  N   LIG    1       23.850 -11.447   1.812  0.00  0.00    -0.325 NA
ATOM     14  H   LIG    1       24.351 -11.623   0.941  0.00  0.00    +0.119 HD
ATOM     15  H   LIG    1       22.869 -11.640   1.619  0.00  0.00    +0.119 HD
ENDBRANCH   8  13
TORSDOF 1
ENDMDL
MODEL 2
REMARK VINA RESULT:      -3.9      1.540      3.300
REMARK  Name = *****
REMARK                            x       y       z     vdW  Elec       q    Type
REMARK                         _______ _______ _______ _____ _____    ______ ____
ROOT
ATOM      1  C   LIG    1       24.227 -11.465   1.812  0.00  0.00    +0.011 C 
ATOM      2  C   LIG    1       24.629 -12.462   2.904  0.00  0.00    -0.030 C 
ATOM      3  C   LIG    1       23.601 -13.615   2.977  0.00  0.00    +0.013 C 
ATOM      4  C   LIG    1       23.991 -14.630   4.077  0.00  0.00    -0.030 C 
ATOM      5  C   LIG    1       24.054 -13.891   5.434  0.00  0.00    +0.010 C 
ATOM      6  C   LIG    1       25.085 -12.753   5.377  0.00  0.00    -0.008 C 
ATOM      7  C   LIG    1       26.471 -13.336   5.054  0.00  0.00    +0.025 C 
ATOM      8  C   LIG    1       26.435 -14.062   3.694  0.00  0.00    +0.018 C 
ATOM      9  C   LIG    1       22.961 -15.762   4.138  0.00  0.00    +0.011 C 
ATOM     10  C   LIG    1       25.393 -15.198   3.755  0.00  0.00    +0.028 C 
ATOM     11  C   LIG    1       26.023 -13.057   2.596  0.00  0.00    +0.028 C 
ATOM     12  C   LIG    1       24.683 -11.757   4.278  0.00  0.00    +0.010 C 
ENDROOT
BRANCH   8  13
ATOM     13  N   LIG    1       27.754 -14.621   3.401  0.00  0.00    -0.325 NA
ATOM     14  H   LIG    1       28.160 -14.144   2.595  0.00  0.00    +0.119 HD
ATOM     15  H   LIG    1       28.385 -14.447   4.181  0.00  0.00    +0.119 HD
ENDBRANCH   8  13
TORSDOF 1
ENDMDL
MODEL 3
REMARK VINA RESULT:      -3.8      2.087      3.586
REMARK  Name = *****
REMARK                            x       y       z     vdW  Elec       q    Type
REMARK                         _______ _______ _______ _____ _____    ______ ____
ROOT
ATOM      1  C   LIG    1       26.256 -16.780   3.341  0.00  0.00    +0.011 C 
ATOM      2  C   LIG    1       26.240 -15.256   3.497  0.00  0.00    -0.030 C 
ATOM      3  C   LIG    1       24.848 -14.784   3.978  0.00  0.00    +0.013 C 
ATOM      4  C   LIG    1       24.813 -13.246   4.139  0.00  0.00    -0.030 C 
ATOM      5  C   LIG    1       25.150 -12.597   2.776  0.00  0.00    +0.010 C 
ATOM      6  C   LIG    1       26.539 -13.047   2.296  0.00  0.00    -0.008 C 
ATOM      7  C   LIG    1       27.596 -12.626   3.331  0.00  0.00    +0.025 C 
ATOM      8  C   LIG    1       27.290 -13.279   4.695  0.00  0.00    +0.018 C 
ATOM      9  C   LIG    1       23.428 -12.797   4.611  0.00  0.00    +0.011 C 
ATOM     10  C   LIG    1       25.891 -12.829   5.167  0.00  0.00    +0.028 C 
ATOM     11  C   LIG    1       27.300 -14.814   4.534  0.00  0.00    +0.028 C 
ATOM     12  C   LIG    1       26.555 -14.576   2.145  0.00  0.00    +0.010 C 
ENDROOT
BRANCH   8  13
ATOM     13  N   LIG    1       28.294 -12.865   5.673  0.00  0.00    -0.325 NA
ATOM     14  H   LIG    1       27.864 -12.268   6.380  0.00  0.00    +0.119 HD
ATOM     15  H   LIG    1       28.651 -13.680   6.170  0.00  0.00    +0.119 HD
ENDBRANCH   8  13
TORSDOF 1
ENDMDL
MODEL 4
REMARK VINA RESULT:      -3.8      1.904      3.167
REMARK  Name = *****
REMARK                            x       y       z     vdW  Elec       q    Type
REMARK                         _______ _______ _______ _____ _____    ______ ____
ROOT
ATOM      1  C   LIG    1       23.098 -15.236   4.692  0.00  0.00    +0.011 C 
ATOM      2  C   LIG    1       24.397 -14.607   4.178  0.00  0.00    -0.030 C 
ATOM      3  C   LIG    1       24.078 -13.405   3.257  0.00  0.00    +0.013 C 
ATOM      4  C   LIG    1       25.379 -12.759   2.725  0.00  0.00    -0.030 C 
ATOM      5  C   LIG    1       26.180 -13.826   1.944  0.00  0.00    +0.010 C 
ATOM      6  C   LIG    1       26.516 -15.018   2.855  0.00  0.00    -0.008 C 
ATOM      7  C   LIG    1       27.356 -14.528   4.046  0.00  0.00    +0.025 C 
ATOM      8  C   LIG    1       26.567 -13.475   4.851  0.00  0.00    +0.018 C 
ATOM      9  C   LIG    1       25.045 -11.575   1.814  0.00  0.00    +0.011 C 
ATOM     10  C   LIG    1       26.226 -12.285   3.930  0.00  0.00    +0.028 C 
ATOM     11  C   LIG    1       25.256 -14.109   5.364  0.00  0.00    +0.028 C 
ATOM     12  C   LIG    1       25.213 -15.645   3.375  0.00  0.00    +0.010 C 
ENDROOT
BRANCH   8  13
ATOM     13  N   LIG    1       27.378 -13.008   5.975  0.00  0.00    -0.325 NA
ATOM     14  H   LIG    1       28.035 -13.738   6.254  0.00  0.00    +0.119 HD
ATOM     15  H   LIG    1       27.944 -12.212   5.688  0.00  0.00    +0.119 HD
ENDBRANCH   8  13
TORSDOF 1
ENDMDL
MODEL 5
REMARK VINA RESULT:      -3.7      2.007      3.663
REMARK  Name = *****
REMARK                            x       y       z     vdW  Elec       q    Type
REMARK                         _______ _______ _______ _____ _____    ______ ____
ROOT
ATOM      1  C   LIG    1       29.010 -12.948   4.012  0.00  0.00    +0.011 C 
ATOM      2  C   LIG    1       27.530 -13.334   3.928  0.00  0.00    -0.030 C 
ATOM      3  C   LIG    1       26.800 -12.423   2.913  0.00  0.00    +0.013 C 
ATOM      4  C   LIG    1       25.302 -12.797   2.817  0.00  0.00    -0.030 C 
ATOM      5  C   LIG    1       24.662 -12.649   4.217  0.00  0.00    +0.010 C 
ATOM      6  C   LIG    1       25.371 -13.562   5.230  0.00  0.00    -0.008 C 
ATOM      7  C   LIG    1       25.247 -15.025   4.771  0.00  0.00    +0.025 C 
ATOM      8  C   LIG    1       25.897 -15.199   3.382  0.00  0.00    +0.018 C 
ATOM      9  C   LIG    1       24.594 -11.884   1.812  0.00  0.00    +0.011 C 
ATOM     10  C   LIG    1       25.187 -14.274   2.372  0.00  0.00    +0.028 C 
ATOM     11  C   LIG    1       27.387 -14.804   3.469  0.00  0.00    +0.028 C 
ATOM     12  C   LIG    1       26.857 -13.177   5.310  0.00  0.00    +0.010 C 
ENDROOT
BRANCH   8  13
ATOM     13  N   LIG    1       25.766 -16.590   2.951  0.00  0.00    -0.325 NA
ATOM     14  H   LIG    1       25.673 -16.630   1.936  0.00  0.00    +0.119 HD
ATOM     15  H   LIG    1       26.614 -17.106   3.178  0.00  0.00    +0.119 HD
ENDBRANCH   8  13
TORSDOF 1
ENDMDL
MODEL 6
REMARK VINA RESULT:      -3.5      2.057      3.197
REMARK  Name = *****
REMARK                            x       y       z     vdW  Elec       q    Type
REMARK                         _______ _______ _______ _____ _____    ______ ____
ROOT
ATOM      1  C   LIG    1       23.446 -12.930   4.830  0.00  0.00    +0.011 C 
ATOM      2  C   LIG    1       24.793 -13.319   4.214  0.00  0.00    -0.030 C 
ATOM      3  C   LIG    1       25.950 -12.866   5.136  0.00  0.00    +0.013 C 
ATOM      4  C   LIG    1       27.320 -13.248   4.528  0.00  0.00    -0.030 C 
ATOM      5  C   LIG    1       27.453 -12.574   3.143  0.00  0.00    +0.010 C 
ATOM      6  C   LIG    1       26.317 -13.029   2.213  0.00  0.00    -0.008 C 
ATOM      7  C   LIG    1       26.381 -14.555   2.039  0.00  0.00    +0.025 C 
ATOM      8  C   LIG    1       26.231 -15.250   3.409  0.00  0.00    +0.018 C 
ATOM      9  C   LIG    1       28.452 -12.790   5.450  0.00  0.00    +0.011 C 
ATOM     10  C   LIG    1       27.370 -14.783   4.339  0.00  0.00    +0.028 C 
ATOM     11  C   LIG    1       24.875 -14.852   4.030  0.00  0.00    +0.028 C 
ATOM     12  C   LIG    1       24.965 -12.643   2.835  0.00  0.00    +0.010 C 
ENDROOT
BRANCH   8  13
ATOM     13  N   LIG    1       26.303 -16.700   3.234  0.00  0.00    -0.325 NA
ATOM     14  H   LIG    1       25.386 -17.114   3.401  0.00  0.00    +0.119 HD
ATOM     15  H   LIG    1       26.543 -16.921   2.269  0.00  0.00    +0.119 HD
ENDBRANCH   8  13
TORSDOF 1
ENDMDL
MODEL 7
REMARK VINA RESULT:      -3.4      1.589      3.368
REMARK  Name = *****
REMARK                            x       y       z     vdW  Elec       q    Type
REMARK                         _______ _______ _______ _____ _____    ______ ____
ROOT
ATOM      1  C   LIG    1       28.419 -12.792   5.519  0.00  0.00    +0.011 C 
ATOM      2  C   LIG    1       27.299 -13.248   4.577  0.00  0.00    -0.030 C 
ATOM      3  C   LIG    1       27.327 -14.787   4.424  0.00  0.00    +0.013 C 
ATOM      4  C   LIG    1       26.204 -15.265   3.474  0.00  0.00    -0.030 C 
ATOM      5  C   LIG    1       26.400 -14.592   2.096  0.00  0.00    +0.010 C 
ATOM      6  C   LIG    1       26.358 -13.062   2.235  0.00  0.00    -0.008 C 
ATOM      7  C   LIG    1       24.997 -12.640   2.814  0.00  0.00    +0.025 C 
ATOM      8  C   LIG    1       24.789 -13.286   4.199  0.00  0.00    +0.018 C 
ATOM      9  C   LIG    1       26.248 -16.789   3.330  0.00  0.00    +0.011 C 
ATOM     10  C   LIG    1       24.840 -14.821   4.053  0.00  0.00    +0.028 C 
ATOM     11  C   LIG    1       25.922 -12.830   5.144  0.00  0.00    +0.028 C 
ATOM     12  C   LIG    1       27.478 -12.606   3.183  0.00  0.00    +0.010 C 
ENDROOT
BRANCH   8  13
ATOM     13  N   LIG    1       23.489 -12.887   4.736  0.00  0.00    -0.325 NA
ATOM     14  H   LIG    1       23.618 -12.382   5.614  0.00  0.00    +0.119 HD
ATOM     15  H   LIG    1       23.035 -12.235   4.098  0.00  0.00    +0.119 HD
ENDBRANCH   8  13
TORSDOF 1
ENDMDL
MODEL 8
REMARK VINA RESULT:      -3.4      1.246      3.350
REMARK  Name = *****
REMARK                            x       y       z     vdW  Elec       q    Type
REMARK                         _______ _______ _______ _____ _____    ______ ____
ROOT
ATOM      1  C   LIG    1       27.711 -14.446   3.584  0.00  0.00    +0.011 C 
ATOM      2  C   LIG    1       26.259 -13.967   3.674  0.00  0.00    -0.030 C 
ATOM      3  C   LIG    1       25.322 -15.161   3.973  0.00  0.00    +0.013 C 
ATOM      4  C   LIG    1       23.850 -14.695   4.065  0.00  0.00    -0.030 C 
ATOM      5  C   LIG    1       23.454 -14.035   2.724  0.00  0.00    +0.010 C 
ATOM      6  C   LIG    1       24.369 -12.837   2.425  0.00  0.00    -0.008 C 
ATOM      7  C   LIG    1       24.239 -11.802   3.555  0.00  0.00    +0.025 C 
ATOM      8  C   LIG    1       24.649 -12.435   4.901  0.00  0.00    +0.018 C 
ATOM      9  C   LIG    1       22.937 -15.889   4.357  0.00  0.00    +0.011 C 
ATOM     10  C   LIG    1       23.732 -13.641   5.191  0.00  0.00    +0.028 C 
ATOM     11  C   LIG    1       26.110 -12.923   4.806  0.00  0.00    +0.028 C 
ATOM     12  C   LIG    1       25.826 -13.318   2.340  0.00  0.00    +0.010 C 
ENDROOT
BRANCH   8  13
ATOM     13  N   LIG    1       24.513 -11.447   5.970  0.00  0.00    -0.325 NA
ATOM     14  H   LIG    1       24.866 -10.544   5.653  0.00  0.00    +0.119 HD
ATOM     15  H   LIG    1       23.528 -11.305   6.188  0.00  0.00    +0.119 HD
ENDBRANCH   8  13
TORSDOF 1
ENDMDL
MODEL 9
REMARK VINA RESULT:      -3.3      5.248      7.120
REMARK  Name = *****
REMARK                            x       y       z     vdW  Elec       q    Type
REMARK                         _______ _______ _______ _____ _____    ______ ____
ROOT
ATOM      1  C   LIG    1       25.067 -20.936   7.019  0.00  0.00    +0.011 C 
ATOM      2  C   LIG    1       24.682 -20.403   5.635  0.00  0.00    -0.030 C 
ATOM      3  C   LIG    1       23.341 -19.637   5.715  0.00  0.00    +0.013 C 
ATOM      4  C   LIG    1       22.934 -19.093   4.325  0.00  0.00    -0.030 C 
ATOM      5  C   LIG    1       22.807 -20.282   3.345  0.00  0.00    +0.010 C 
ATOM      6  C   LIG    1       24.140 -21.041   3.246  0.00  0.00    -0.008 C 
ATOM      7  C   LIG    1       25.234 -20.085   2.741  0.00  0.00    +0.025 C 
ATOM      8  C   LIG    1       25.391 -18.900   3.716  0.00  0.00    +0.018 C 
ATOM      9  C   LIG    1       21.604 -18.341   4.422  0.00  0.00    +0.011 C 
ATOM     10  C   LIG    1       24.048 -18.147   3.817  0.00  0.00    +0.028 C 
ATOM     11  C   LIG    1       25.774 -19.441   5.111  0.00  0.00    +0.028 C 
ATOM     12  C   LIG    1       24.528 -21.571   4.636  0.00  0.00    +0.010 C 
ENDROOT
BRANCH   8  13
ATOM     13  N   LIG    1       26.426 -17.993   3.222  0.00  0.00    -0.325 NA
ATOM     14  H   LIG    1       26.044 -17.399   2.486  0.00  0.00    +0.119 HD
ATOM     15  H   LIG    1       26.722 -17.366   3.968  0.00  0.00    +0.119 HD
ENDBRANCH   8  13
TORSDOF 1
ENDMDL
