MODEL 1
REMARK VINA RESULT:      -6.9      0.000      0.000
REMARK  Name = *****
REMARK                            x       y       z     vdW  Elec       q    Type
REMARK                         _______ _______ _______ _____ _____    ______ ____
ROOT
ATOM      1  C   LIG    1       26.904 -20.295   7.423  0.00  0.00    +0.339 C 
ATOM      2  O   LIG    1       27.098 -20.320   8.623  0.00  0.00    -0.245 OA
ENDROOT
BRANCH   1   3
ATOM      3  C   LIG    1       25.610 -20.622   6.783  0.00  0.00    +0.059 A 
ATOM      4  C   LIG    1       25.499 -20.536   5.392  0.00  0.00    +0.017 A 
ATOM      5  C   LIG    1       24.275 -20.818   4.775  0.00  0.00    +0.023 A 
ATOM      6  C   LIG    1       23.167 -21.215   5.531  0.00  0.00    +0.025 A 
ATOM      7  C   LIG    1       23.275 -21.237   6.923  0.00  0.00    +0.023 A 
ATOM      8  C   LIG    1       24.492 -20.965   7.549  0.00  0.00    +0.017 A 
BRANCH   6   9
ATOM      9  N   LIG    1       21.914 -21.353   4.925  0.00  0.00    -0.358 N 
ATOM     10  H   LIG    1       21.493 -22.267   5.050  0.00  0.00    +0.142 HD
ATOM     11  H   LIG    1       21.268 -20.600   5.143  0.00  0.00    +0.142 HD
ENDBRANCH   6   9
ENDBRANCH   1   3
BRANCH   1  12
ATOM     12  O   LIG    1       27.799 -19.945   6.461  0.00  0.00    -0.460 OA
BRANCH  12  13
ATOM     13  C   LIG    1       29.054 -20.641   6.523  0.00  0.00    +0.247 C 
BRANCH  13  14
ATOM     14  C   LIG    1       30.210 -19.641   6.701  0.00  0.00    +0.125 C 
BRANCH  14  15
ATOM     15  N   LIG    1       31.128 -19.956   7.815  0.00  0.00    -0.300 NA
BRANCH  15  17
ATOM     16  C   LIG    1       30.421 -17.801   8.991  0.00  0.00    +0.020 C 
ATOM     17  C   LIG    1       31.535 -18.754   8.563  0.00  0.00    +0.081 C 
ENDBRANCH  15  17
BRANCH  15  18
ATOM     18  C   LIG    1       30.547 -21.014   8.661  0.00  0.00    +0.081 C 
ATOM     19  C   LIG    1       31.537 -22.105   9.060  0.00  0.00    +0.020 C 
ENDBRANCH  15  18
ENDBRANCH  14  15
ENDBRANCH  13  14
ENDBRANCH  12  13
ENDBRANCH   1  12
TORSDOF 8
ENDMDL
MODEL 2
REMARK VINA RESULT:      -6.9      2.056      2.740
REMARK  Name = *****
REMARK                            x       y       z     vdW  Elec       q    Type
REMARK                         _______ _______ _______ _____ _____    ______ ____
ROOT
ATOM      1  C   LIG    1       26.035 -20.884   8.320  0.00  0.00    +0.339 C 
ATOM      2  O   LIG    1       25.888 -20.563   9.484  0.00  0.00    -0.245 OA
ENDROOT
BRANCH   1   3
ATOM      3  C   LIG    1       25.398 -22.067   7.697  0.00  0.00    +0.059 A 
ATOM      4  C   LIG    1       26.188 -23.178   7.388  0.00  0.00    +0.017 A 
ATOM      5  C   LIG    1       25.606 -24.295   6.776  0.00  0.00    +0.023 A 
ATOM      6  C   LIG    1       24.235 -24.325   6.500  0.00  0.00    +0.025 A 
ATOM      7  C   LIG    1       23.471 -23.185   6.758  0.00  0.00    +0.023 A 
ATOM      8  C   LIG    1       24.039 -22.069   7.373  0.00  0.00    +0.017 A 
BRANCH   6   9
ATOM      9  N   LIG    1       23.689 -25.379   5.759  0.00  0.00    -0.358 N 
ATOM     10  H   LIG    1       23.680 -25.218   4.758  0.00  0.00    +0.142 HD
ATOM     11  H   LIG    1       24.071 -26.289   5.998  0.00  0.00    +0.142 HD
ENDBRANCH   6   9
ENDBRANCH   1   3
BRANCH   1  12
ATOM     12  O   LIG    1       26.764 -20.226   7.380  0.00  0.00    -0.460 OA
BRANCH  12  13
ATOM     13  C   LIG    1       28.138 -20.637   7.286  0.00  0.00    +0.247 C 
BRANCH  13  14
ATOM     14  C   LIG    1       29.071 -19.444   7.556  0.00  0.00    +0.125 C 
BRANCH  14  15
ATOM     15  N   LIG    1       29.959 -19.612   8.726  0.00  0.00    -0.300 NA
BRANCH  15  17
ATOM     16  C   LIG    1       31.038 -21.883   9.180  0.00  0.00    +0.020 C 
ATOM     17  C   LIG    1       31.072 -20.539   8.456  0.00  0.00    +0.081 C 
ENDBRANCH  15  17
BRANCH  15  18
ATOM     18  C   LIG    1       30.392 -18.292   9.221  0.00  0.00    +0.081 C 
ATOM     19  C   LIG    1       31.785 -17.880   8.753  0.00  0.00    +0.020 C 
ENDBRANCH  15  18
ENDBRANCH  14  15
ENDBRANCH  13  14
ENDBRANCH  12  13
ENDBRANCH   1  12
TORSDOF 8
ENDMDL
MODEL 3
REMARK VINA RESULT:      -6.8      1.131      2.165
REMARK  Name = *****
REMARK                            x       y       z     vdW  Elec       q    Type
REMARK                         _______ _______ _______ _____ _____    ______ ____
ROOT
ATOM      1  C   LIG    1       26.262 -20.570   8.436  0.00  0.00    +0.339 C 
ATOM      2  O   LIG    1       25.856 -20.722   9.572  0.00  0.00    -0.245 OA
ENDROOT
BRANCH   1   3
ATOM      3  C   LIG    1       25.409 -20.666   7.229  0.00  0.00    +0.059 A 
ATOM      4  C   LIG    1       24.048 -20.950   7.381  0.00  0.00    +0.017 A 
ATOM      5  C   LIG    1       23.234 -21.069   6.248  0.00  0.00    +0.023 A 
ATOM      6  C   LIG    1       23.760 -20.876   4.967  0.00  0.00    +0.025 A 
ATOM      7  C   LIG    1       25.131 -20.653   4.827  0.00  0.00    +0.023 A 
ATOM      8  C   LIG    1       25.952 -20.526   5.949  0.00  0.00    +0.017 A 
BRANCH   6   9
ATOM      9  N   LIG    1       22.976 -21.139   3.837  0.00  0.00    -0.358 N 
ATOM     10  H   LIG    1       22.414 -20.352   3.533  0.00  0.00    +0.142 HD
ATOM     11  H   LIG    1       23.490 -21.562   3.071  0.00  0.00    +0.142 HD
ENDBRANCH   6   9
ENDBRANCH   1   3
BRANCH   1  12
ATOM     12  O   LIG    1       27.531 -20.262   8.059  0.00  0.00    -0.460 OA
BRANCH  12  13
ATOM     13  C   LIG    1       28.447 -21.368   8.063  0.00  0.00    +0.247 C 
BRANCH  13  14
ATOM     14  C   LIG    1       29.899 -20.859   8.032  0.00  0.00    +0.125 C 
BRANCH  14  15
ATOM     15  N   LIG    1       30.032 -19.392   7.912  0.00  0.00    -0.300 NA
BRANCH  15  17
ATOM     16  C   LIG    1       30.305 -17.542   9.654  0.00  0.00    +0.020 C 
ATOM     17  C   LIG    1       30.842 -18.813   8.999  0.00  0.00    +0.081 C 
ENDBRANCH  15  17
BRANCH  15  18
ATOM     18  C   LIG    1       30.510 -19.040   6.563  0.00  0.00    +0.081 C 
ATOM     19  C   LIG    1       29.423 -18.488   5.644  0.00  0.00    +0.020 C 
ENDBRANCH  15  18
ENDBRANCH  14  15
ENDBRANCH  13  14
ENDBRANCH  12  13
ENDBRANCH   1  12
TORSDOF 8
ENDMDL
MODEL 4
REMARK VINA RESULT:      -6.8      0.644      2.119
REMARK  Name = *****
REMARK                            x       y       z     vdW  Elec       q    Type
REMARK                         _______ _______ _______ _____ _____    ______ ____
ROOT
ATOM      1  C   LIG    1       26.912 -20.759   7.655  0.00  0.00    +0.339 C 
ATOM      2  O   LIG    1       27.152 -21.335   8.699  0.00  0.00    -0.245 OA
ENDROOT
BRANCH   1   3
ATOM      3  C   LIG    1       25.617 -20.836   6.943  0.00  0.00    +0.059 A 
ATOM      4  C   LIG    1       24.465 -21.170   7.662  0.00  0.00    +0.017 A 
ATOM      5  C   LIG    1       23.237 -21.272   6.998  0.00  0.00    +0.023 A 
ATOM      6  C   LIG    1       23.142 -21.010   5.628  0.00  0.00    +0.025 A 
ATOM      7  C   LIG    1       24.309 -20.737   4.911  0.00  0.00    +0.023 A 
ATOM      8  C   LIG    1       25.538 -20.627   5.563  0.00  0.00    +0.017 A 
BRANCH   6   9
ATOM      9  N   LIG    1       21.945 -21.255   4.946  0.00  0.00    -0.358 N 
ATOM     10  H   LIG    1       21.691 -22.236   4.897  0.00  0.00    +0.142 HD
ATOM     11  H   LIG    1       21.171 -20.674   5.253  0.00  0.00    +0.142 HD
ENDBRANCH   6   9
ENDBRANCH   1   3
BRANCH   1  12
ATOM     12  O   LIG    1       27.747 -19.933   6.971  0.00  0.00    -0.460 OA
BRANCH  12  13
ATOM     13  C   LIG    1       28.961 -20.548   6.511  0.00  0.00    +0.247 C 
BRANCH  13  14
ATOM     14  C   LIG    1       30.182 -19.744   6.995  0.00  0.00    +0.125 C 
BRANCH  14  15
ATOM     15  N   LIG    1       30.236 -19.530   8.456  0.00  0.00    -0.300 NA
BRANCH  15  17
ATOM     16  C   LIG    1       31.143 -21.814   9.156  0.00  0.00    +0.020 C 
ATOM     17  C   LIG    1       31.318 -20.298   9.095  0.00  0.00    +0.081 C 
ENDBRANCH  15  17
BRANCH  15  18
ATOM     18  C   LIG    1       30.279 -18.086   8.750  0.00  0.00    +0.081 C 
ATOM     19  C   LIG    1       30.333 -17.757  10.239  0.00  0.00    +0.020 C 
ENDBRANCH  15  18
ENDBRANCH  14  15
ENDBRANCH  13  14
ENDBRANCH  12  13
ENDBRANCH   1  12
TORSDOF 8
ENDMDL
MODEL 5
REMARK VINA RESULT:      -6.8      1.634      6.892
REMARK  Name = *****
REMARK                            x       y       z     vdW  Elec       q    Type
REMARK                         _______ _______ _______ _____ _____    ______ ____
ROOT
ATOM      1  C   LIG    1       26.577 -20.488   5.854  0.00  0.00    +0.339 C 
ATOM      2  O   LIG    1       26.082 -19.963   4.876  0.00  0.00    -0.245 OA
ENDROOT
BRANCH   1   3
ATOM      3  C   LIG    1       27.937 -20.191   6.357  0.00  0.00    +0.059 A 
ATOM      4  C   LIG    1       28.655 -19.134   5.789  0.00  0.00    +0.017 A 
ATOM      5  C   LIG    1       29.952 -18.856   6.237  0.00  0.00    +0.023 A 
ATOM      6  C   LIG    1       30.528 -19.604   7.269  0.00  0.00    +0.025 A 
ATOM      7  C   LIG    1       29.824 -20.694   7.785  0.00  0.00    +0.023 A 
ATOM      8  C   LIG    1       28.528 -20.977   7.352  0.00  0.00    +0.017 A 
BRANCH   6   9
ATOM      9  N   LIG    1       31.872 -19.416   7.610  0.00  0.00    -0.358 N 
ATOM     10  H   LIG    1       32.490 -19.319   6.811  0.00  0.00    +0.142 HD
ATOM     11  H   LIG    1       32.022 -18.690   8.302  0.00  0.00    +0.142 HD
ENDBRANCH   6   9
ENDBRANCH   1   3
BRANCH   1  12
ATOM     12  O   LIG    1       25.991 -21.402   6.672  0.00  0.00    -0.460 OA
BRANCH  12  13
ATOM     13  C   LIG    1       25.178 -20.843   7.717  0.00  0.00    +0.247 C 
BRANCH  13  14
ATOM     14  C   LIG    1       23.703 -20.805   7.281  0.00  0.00    +0.125 C 
BRANCH  14  15
ATOM     15  N   LIG    1       23.345 -21.788   6.238  0.00  0.00    -0.300 NA
BRANCH  15  17
ATOM     16  C   LIG    1       23.592 -24.305   6.604  0.00  0.00    +0.020 C 
ATOM     17  C   LIG    1       22.781 -23.026   6.803  0.00  0.00    +0.081 C 
ENDBRANCH  15  17
BRANCH  15  18
ATOM     18  C   LIG    1       22.484 -21.153   5.224  0.00  0.00    +0.081 C 
ATOM     19  C   LIG    1       22.549 -19.628   5.221  0.00  0.00    +0.020 C 
ENDBRANCH  15  18
ENDBRANCH  14  15
ENDBRANCH  13  14
ENDBRANCH  12  13
ENDBRANCH   1  12
TORSDOF 8
ENDMDL
MODEL 6
REMARK VINA RESULT:      -6.8      2.449      2.837
REMARK  Name = *****
REMARK                            x       y       z     vdW  Elec       q    Type
REMARK                         _______ _______ _______ _____ _____    ______ ____
ROOT
ATOM      1  C   LIG    1       25.563 -21.470   8.184  0.00  0.00    +0.339 C 
ATOM      2  O   LIG    1       24.823 -20.527   8.384  0.00  0.00    -0.245 OA
ENDROOT
BRANCH   1   3
ATOM      3  C   LIG    1       25.161 -22.706   7.475  0.00  0.00    +0.059 A 
ATOM      4  C   LIG    1       23.806 -22.923   7.205  0.00  0.00    +0.017 A 
ATOM      5  C   LIG    1       23.408 -24.098   6.557  0.00  0.00    +0.023 A 
ATOM      6  C   LIG    1       24.352 -25.044   6.148  0.00  0.00    +0.025 A 
ATOM      7  C   LIG    1       25.694 -24.844   6.478  0.00  0.00    +0.023 A 
ATOM      8  C   LIG    1       26.105 -23.673   7.117  0.00  0.00    +0.017 A 
BRANCH   6   9
ATOM      9  N   LIG    1       23.937 -26.278   5.635  0.00  0.00    -0.358 N 
ATOM     10  H   LIG    1       24.573 -27.043   5.833  0.00  0.00    +0.142 HD
ATOM     11  H   LIG    1       22.974 -26.512   5.857  0.00  0.00    +0.142 HD
ENDBRANCH   6   9
ENDBRANCH   1   3
BRANCH   1  12
ATOM     12  O   LIG    1       26.873 -21.566   8.534  0.00  0.00    -0.460 OA
BRANCH  12  13
ATOM     13  C   LIG    1       27.721 -20.546   7.981  0.00  0.00    +0.247 C 
BRANCH  13  14
ATOM     14  C   LIG    1       29.070 -21.150   7.551  0.00  0.00    +0.125 C 
BRANCH  14  15
ATOM     15  N   LIG    1       30.215 -20.220   7.637  0.00  0.00    -0.300 NA
BRANCH  15  17
ATOM     16  C   LIG    1       30.389 -17.875   8.638  0.00  0.00    +0.020 C 
ATOM     17  C   LIG    1       29.794 -18.808   7.586  0.00  0.00    +0.081 C 
ENDBRANCH  15  17
BRANCH  15  18
ATOM     18  C   LIG    1       31.043 -20.550   8.811  0.00  0.00    +0.081 C 
ATOM     19  C   LIG    1       31.061 -22.036   9.160  0.00  0.00    +0.020 C 
ENDBRANCH  15  18
ENDBRANCH  14  15
ENDBRANCH  13  14
ENDBRANCH  12  13
ENDBRANCH   1  12
TORSDOF 8
ENDMDL
MODEL 7
REMARK VINA RESULT:      -6.6      2.565      7.330
REMARK  Name = *****
REMARK                            x       y       z     vdW  Elec       q    Type
REMARK                         _______ _______ _______ _____ _____    ______ ____
ROOT
ATOM      1  C   LIG    1       30.246 -18.575   7.918  0.00  0.00    +0.339 C 
ATOM      2  O   LIG    1       30.449 -18.345   6.741  0.00  0.00    -0.245 OA
ENDROOT
BRANCH   1   3
ATOM      3  C   LIG    1       30.882 -17.834   9.031  0.00  0.00    +0.059 A 
ATOM      4  C   LIG    1       30.186 -17.687  10.235  0.00  0.00    +0.017 A 
ATOM      5  C   LIG    1       30.764 -16.968  11.287  0.00  0.00    +0.023 A 
ATOM      6  C   LIG    1       32.045 -16.421  11.161  0.00  0.00    +0.025 A 
ATOM      7  C   LIG    1       32.703 -16.523   9.934  0.00  0.00    +0.023 A 
ATOM      8  C   LIG    1       32.140 -17.243   8.879  0.00  0.00    +0.017 A 
BRANCH   6   9
ATOM      9  N   LIG    1       32.554 -15.583  12.159  0.00  0.00    -0.358 N 
ATOM     10  H   LIG    1       32.667 -14.617  11.868  0.00  0.00    +0.142 HD
ATOM     11  H   LIG    1       32.069 -15.661  13.048  0.00  0.00    +0.142 HD
ENDBRANCH   6   9
ENDBRANCH   1   3
BRANCH   1  12
ATOM     12  O   LIG    1       29.401 -19.508   8.432  0.00  0.00    -0.460 OA
BRANCH  12  13
ATOM     13  C   LIG    1       29.571 -20.833   7.902  0.00  0.00    +0.247 C 
BRANCH  13  14
ATOM     14  C   LIG    1       28.251 -21.336   7.291  0.00  0.00    +0.125 C 
BRANCH  14  15
ATOM     15  N   LIG    1       27.252 -20.278   7.032  0.00  0.00    -0.300 NA
BRANCH  15  17
ATOM     16  C   LIG    1       25.601 -20.377   5.084  0.00  0.00    +0.020 C 
ATOM     17  C   LIG    1       27.009 -20.077   5.592  0.00  0.00    +0.081 C 
ENDBRANCH  15  17
BRANCH  15  18
ATOM     18  C   LIG    1       26.028 -20.542   7.810  0.00  0.00    +0.081 C 
ATOM     19  C   LIG    1       26.000 -21.916   8.475  0.00  0.00    +0.020 C 
ENDBRANCH  15  18
ENDBRANCH  14  15
ENDBRANCH  13  14
ENDBRANCH  12  13
ENDBRANCH   1  12
TORSDOF 8
ENDMDL
MODEL 8
REMARK VINA RESULT:      -6.5      1.263      1.888
REMARK  Name = *****
REMARK                            x       y       z     vdW  Elec       q    Type
REMARK                         _______ _______ _______ _____ _____    ______ ____
ROOT
ATOM      1  C   LIG    1       26.084 -21.066   8.344  0.00  0.00    +0.339 C 
ATOM      2  O   LIG    1       25.710 -21.769   9.263  0.00  0.00    -0.245 OA
ENDROOT
BRANCH   1   3
ATOM      3  C   LIG    1       25.263 -20.749   7.154  0.00  0.00    +0.059 A 
ATOM      4  C   LIG    1       25.903 -20.484   5.939  0.00  0.00    +0.017 A 
ATOM      5  C   LIG    1       25.143 -20.158   4.810  0.00  0.00    +0.023 A 
ATOM      6  C   LIG    1       23.746 -20.125   4.875  0.00  0.00    +0.025 A 
ATOM      7  C   LIG    1       23.123 -20.331   6.107  0.00  0.00    +0.023 A 
ATOM      8  C   LIG    1       23.871 -20.663   7.238  0.00  0.00    +0.017 A 
BRANCH   6   9
ATOM      9  N   LIG    1       23.002 -19.657   3.786  0.00  0.00    -0.358 N 
ATOM     10  H   LIG    1       23.174 -18.684   3.557  0.00  0.00    +0.142 HD
ATOM     11  H   LIG    1       23.048 -20.258   2.969  0.00  0.00    +0.142 HD
ENDBRANCH   6   9
ENDBRANCH   1   3
BRANCH   1  12
ATOM     12  O   LIG    1       27.280 -20.428   8.242  0.00  0.00    -0.460 OA
BRANCH  12  13
ATOM     13  C   LIG    1       28.422 -21.295   8.165  0.00  0.00    +0.247 C 
BRANCH  13  14
ATOM     14  C   LIG    1       29.254 -20.971   6.912  0.00  0.00    +0.125 C 
BRANCH  14  15
ATOM     15  N   LIG    1       30.363 -20.021   7.140  0.00  0.00    -0.300 NA
BRANCH  15  17
ATOM     16  C   LIG    1       29.134 -18.484   5.510  0.00  0.00    +0.020 C 
ATOM     17  C   LIG    1       30.010 -18.644   6.750  0.00  0.00    +0.081 C 
ENDBRANCH  15  17
BRANCH  15  18
ATOM     18  C   LIG    1       30.848 -20.140   8.527  0.00  0.00    +0.081 C 
ATOM     19  C   LIG    1       31.192 -18.804   9.180  0.00  0.00    +0.020 C 
ENDBRANCH  15  18
ENDBRANCH  14  15
ENDBRANCH  13  14
ENDBRANCH  12  13
ENDBRANCH   1  12
TORSDOF 8
ENDMDL
MODEL 9
REMARK VINA RESULT:      -6.5      1.569      6.739
REMARK  Name = *****
REMARK                            x       y       z     vdW  Elec       q    Type
REMARK                         _______ _______ _______ _____ _____    ______ ____
ROOT
ATOM      1  C   LIG    1       26.513 -20.369   6.238  0.00  0.00    +0.339 C 
ATOM      2  O   LIG    1       26.090 -20.621   5.127  0.00  0.00    -0.245 OA
ENDROOT
BRANCH   1   3
ATOM      3  C   LIG    1       27.939 -20.119   6.546  0.00  0.00    +0.059 A 
ATOM      4  C   LIG    1       28.540 -20.818   7.598  0.00  0.00    +0.017 A 
ATOM      5  C   LIG    1       29.881 -20.574   7.917  0.00  0.00    +0.023 A 
ATOM      6  C   LIG    1       30.637 -19.660   7.176  0.00  0.00    +0.025 A 
ATOM      7  C   LIG    1       30.009 -18.925   6.169  0.00  0.00    +0.023 A 
ATOM      8  C   LIG    1       28.675 -19.165   5.837  0.00  0.00    +0.017 A 
BRANCH   6   9
ATOM      9  N   LIG    1       31.928 -19.315   7.591  0.00  0.00    -0.358 N 
ATOM     10  H   LIG    1       32.253 -19.831   8.402  0.00  0.00    +0.142 HD
ATOM     11  H   LIG    1       32.612 -19.307   6.841  0.00  0.00    +0.142 HD
ENDBRANCH   6   9
ENDBRANCH   1   3
BRANCH   1  12
ATOM     12  O   LIG    1       25.784 -20.242   7.378  0.00  0.00    -0.460 OA
BRANCH  12  13
ATOM     13  C   LIG    1       25.043 -21.415   7.754  0.00  0.00    +0.247 C 
BRANCH  13  14
ATOM     14  C   LIG    1       23.543 -21.209   7.478  0.00  0.00    +0.125 C 
BRANCH  14  15
ATOM     15  N   LIG    1       23.004 -22.030   6.374  0.00  0.00    -0.300 NA
BRANCH  15  17
ATOM     16  C   LIG    1       22.641 -19.701   5.384  0.00  0.00    +0.020 C 
ATOM     17  C   LIG    1       22.629 -21.217   5.202  0.00  0.00    +0.081 C 
ENDBRANCH  15  17
BRANCH  15  18
ATOM     18  C   LIG    1       23.938 -23.126   6.061  0.00  0.00    +0.081 C 
ATOM     19  C   LIG    1       23.491 -24.490   6.581  0.00  0.00    +0.020 C 
ENDBRANCH  15  18
ENDBRANCH  14  15
ENDBRANCH  13  14
ENDBRANCH  12  13
ENDBRANCH   1  12
TORSDOF 8
ENDMDL
