MODEL 1
REMARK VINA RESULT:      -9.6      0.000      0.000
REMARK  Name = *****
REMARK                            x       y       z     vdW  Elec       q    Type
REMARK                         _______ _______ _______ _____ _____    ______ ____
ROOT
ATOM      1  C   LIG    1       25.843 -25.797   5.827  0.00  0.00    -0.000 C 
ENDROOT
BRANCH   1   2
ATOM      2  C   LIG    1       25.061 -27.178   5.474  0.00  0.00    -0.000 C 
BRANCH   2   3
ATOM      3  C   LIG    1       24.665 -28.422   6.641  0.00  0.00    +0.000 C 
BRANCH   3   4
ATOM      4  C   LIG    1       25.475 -28.920   8.115  0.00  0.00    +0.002 C 
BRANCH   4   5
ATOM      5  C   LIG    1       24.843 -30.151   9.209  0.00  0.00    +0.019 C 
BRANCH   5   6
ATOM      6  C   LIG    1       23.271 -30.799   9.513  0.00  0.00    +0.111 C 
BRANCH   6   7
ATOM      7  N   LIG    1       22.831 -31.480  10.796  0.00  0.00    -0.270 N 
ATOM      8  C   LIG    1       22.370 -30.844  12.009  0.00  0.00    +0.408 C 
ATOM      9  O   LIG    1       22.177 -31.364  13.132  0.00  0.00    -0.226 OA
ATOM     10  C   LIG    1       23.065 -32.910  10.965  0.00  0.00    +0.135 C 
BRANCH   8  11
ATOM     11  O   LIG    1       21.880 -29.522  11.810  0.00  0.00    -0.411 OA
BRANCH  11  12
ATOM     12  C   LIG    1       22.547 -28.503  12.558  0.00  0.00    +0.139 A 
ATOM     13  C   LIG    1       23.957 -28.495  12.624  0.00  0.00    +0.118 A 
ATOM     14  C   LIG    1       24.663 -27.385  13.187  0.00  0.00    +0.149 A 
ATOM     15  C   LIG    1       23.918 -26.337  13.724  0.00  0.00    +0.072 A 
ATOM     16  C   LIG    1       22.526 -26.351  13.654  0.00  0.00    +0.010 A 
ATOM     17  C   LIG    1       21.846 -27.406  13.048  0.00  0.00    +0.047 A 
BRANCH  14  18
ATOM     18  N   LIG    1       26.204 -27.234  13.081  0.00  0.00    -0.383 NA
ATOM     19  C   LIG    1       26.828 -27.694  14.391  0.00  0.00    +0.361 C 
ATOM     20  C   LIG    1       26.562 -25.797  12.960  0.00  0.00    +0.361 C 
ATOM     21  C   LIG    1       26.810 -27.813  11.731  0.00  0.00    +0.361 C 
ENDBRANCH  14  18
ENDBRANCH  11  12
ENDBRANCH   8  11
ENDBRANCH   6   7
ENDBRANCH   5   6
ENDBRANCH   4   5
ENDBRANCH   3   4
ENDBRANCH   2   3
ENDBRANCH   1   2
BRANCH   1  22
ATOM     22  C   LIG    1       25.121 -24.550   6.548  0.00  0.00    +0.000 C 
BRANCH  22  23
ATOM     23  C   LIG    1       23.532 -24.509   6.572  0.00  0.00    +0.002 C 
BRANCH  23  24
ATOM     24  C   LIG    1       22.883 -23.168   6.968  0.00  0.00    +0.019 C 
BRANCH  24  25
ATOM     25  C   LIG    1       23.433 -21.722   6.750  0.00  0.00    +0.111 C 
BRANCH  25  27
ATOM     26  C   LIG    1       24.999 -20.951   4.713  0.00  0.00    +0.135 C 
ATOM     27  N   LIG    1       24.599 -21.021   6.139  0.00  0.00    -0.270 N 
ATOM     28  C   LIG    1       25.660 -20.887   7.020  0.00  0.00    +0.408 C 
ATOM     29  O   LIG    1       25.518 -20.598   8.298  0.00  0.00    -0.226 OA
BRANCH  28  30
ATOM     30  O   LIG    1       26.880 -21.245   6.501  0.00  0.00    -0.411 OA
BRANCH  30  31
ATOM     31  C   LIG    1       27.939 -20.362   6.348  0.00  0.00    +0.139 A 
ATOM     32  C   LIG    1       28.948 -20.367   7.279  0.00  0.00    +0.118 A 
ATOM     33  C   LIG    1       29.795 -19.302   7.357  0.00  0.00    +0.149 A 
ATOM     34  C   LIG    1       29.792 -18.368   6.315  0.00  0.00    +0.072 A 
ATOM     35  C   LIG    1       28.888 -18.470   5.281  0.00  0.00    +0.010 A 
ATOM     36  C   LIG    1       27.881 -19.402   5.353  0.00  0.00    +0.047 A 
BRANCH  33  37
ATOM     37  N   LIG    1       30.658 -19.194   8.563  0.00  0.00    -0.383 NA
ATOM     38  C   LIG    1       29.940 -18.353   9.493  0.00  0.00    +0.361 C 
ATOM     39  C   LIG    1       31.141 -20.597   8.950  0.00  0.00    +0.361 C 
ATOM     40  C   LIG    1       31.898 -18.316   8.423  0.00  0.00    +0.361 C 
ENDBRANCH  33  37
ENDBRANCH  30  31
ENDBRANCH  28  30
ENDBRANCH  25  27
ENDBRANCH  24  25
ENDBRANCH  23  24
ENDBRANCH  22  23
ENDBRANCH   1  22
TORSDOF 17
ENDMDL
MODEL 2
REMARK VINA RESULT:      -9.4      1.920      2.816
REMARK  Name = *****
REMARK                            x       y       z     vdW  Elec       q    Type
REMARK                         _______ _______ _______ _____ _____    ______ ____
ROOT
ATOM      1  C   LIG    1       25.756 -25.490   5.846  0.00  0.00    -0.000 C 
ENDROOT
BRANCH   1   2
ATOM      2  C   LIG    1       25.865 -27.021   6.381  0.00  0.00    -0.000 C 
BRANCH   2   3
ATOM      3  C   LIG    1       24.517 -28.133   6.492  0.00  0.00    +0.000 C 
BRANCH   3   4
ATOM      4  C   LIG    1       24.287 -29.738   5.821  0.00  0.00    +0.002 C 
BRANCH   4   5
ATOM      5  C   LIG    1       25.460 -31.044   5.989  0.00  0.00    +0.019 C 
BRANCH   5   6
ATOM      6  C   LIG    1       25.689 -32.317   7.134  0.00  0.00    +0.111 C 
BRANCH   6   7
ATOM      7  N   LIG    1       26.527 -32.227   8.396  0.00  0.00    -0.270 N 
ATOM      8  C   LIG    1       26.784 -31.048   9.192  0.00  0.00    +0.408 C 
ATOM      9  O   LIG    1       27.610 -30.905  10.123  0.00  0.00    -0.226 OA
ATOM     10  C   LIG    1       27.354 -33.362   8.790  0.00  0.00    +0.135 C 
BRANCH   8  11
ATOM     11  O   LIG    1       25.817 -30.017   9.015  0.00  0.00    -0.411 OA
BRANCH  11  12
ATOM     12  C   LIG    1       24.716 -30.047   9.926  0.00  0.00    +0.139 A 
ATOM     13  C   LIG    1       24.833 -29.418  11.183  0.00  0.00    +0.118 A 
ATOM     14  C   LIG    1       23.695 -29.250  12.033  0.00  0.00    +0.149 A 
ATOM     15  C   LIG    1       22.477 -29.781  11.612  0.00  0.00    +0.072 A 
ATOM     16  C   LIG    1       22.369 -30.400  10.368  0.00  0.00    +0.010 A 
ATOM     17  C   LIG    1       23.468 -30.504   9.517  0.00  0.00    +0.047 A 
BRANCH  14  18
ATOM     18  N   LIG    1       23.731 -28.375  13.315  0.00  0.00    -0.383 NA
ATOM     19  C   LIG    1       25.184 -28.143  13.704  0.00  0.00    +0.361 C 
ATOM     20  C   LIG    1       23.136 -29.125  14.453  0.00  0.00    +0.361 C 
ATOM     21  C   LIG    1       22.772 -27.111  13.250  0.00  0.00    +0.361 C 
ENDBRANCH  14  18
ENDBRANCH  11  12
ENDBRANCH   8  11
ENDBRANCH   6   7
ENDBRANCH   5   6
ENDBRANCH   4   5
ENDBRANCH   3   4
ENDBRANCH   2   3
ENDBRANCH   1   2
BRANCH   1  22
ATOM     22  C   LIG    1       25.047 -24.321   6.698  0.00  0.00    +0.000 C 
BRANCH  22  23
ATOM     23  C   LIG    1       23.461 -24.219   6.666  0.00  0.00    +0.002 C 
BRANCH  23  24
ATOM     24  C   LIG    1       22.851 -22.852   7.034  0.00  0.00    +0.019 C 
BRANCH  24  25
ATOM     25  C   LIG    1       23.489 -21.434   6.891  0.00  0.00    +0.111 C 
BRANCH  25  27
ATOM     26  C   LIG    1       24.957 -20.670   4.779  0.00  0.00    +0.135 C 
ATOM     27  N   LIG    1       24.640 -20.759   6.225  0.00  0.00    -0.270 N 
ATOM     28  C   LIG    1       25.755 -20.680   7.043  0.00  0.00    +0.408 C 
ATOM     29  O   LIG    1       25.700 -20.415   8.333  0.00  0.00    -0.226 OA
BRANCH  28  30
ATOM     30  O   LIG    1       26.929 -21.068   6.445  0.00  0.00    -0.411 OA
BRANCH  30  31
ATOM     31  C   LIG    1       28.037 -20.241   6.319  0.00  0.00    +0.139 A 
ATOM     32  C   LIG    1       29.006 -20.278   7.291  0.00  0.00    +0.118 A 
ATOM     33  C   LIG    1       29.902 -19.255   7.384  0.00  0.00    +0.149 A 
ATOM     34  C   LIG    1       29.988 -18.343   6.326  0.00  0.00    +0.072 A 
ATOM     35  C   LIG    1       29.122 -18.421   5.258  0.00  0.00    +0.010 A 
ATOM     36  C   LIG    1       28.067 -19.300   5.305  0.00  0.00    +0.047 A 
BRANCH  33  37
ATOM     37  N   LIG    1       30.720 -19.166   8.622  0.00  0.00    -0.383 NA
ATOM     38  C   LIG    1       29.991 -18.301   9.521  0.00  0.00    +0.361 C 
ATOM     39  C   LIG    1       31.149 -20.580   9.031  0.00  0.00    +0.361 C 
ATOM     40  C   LIG    1       31.989 -18.322   8.527  0.00  0.00    +0.361 C 
ENDBRANCH  33  37
ENDBRANCH  30  31
ENDBRANCH  28  30
ENDBRANCH  25  27
ENDBRANCH  24  25
ENDBRANCH  23  24
ENDBRANCH  22  23
ENDBRANCH   1  22
TORSDOF 17
ENDMDL
MODEL 3
REMARK VINA RESULT:      -9.0      1.141     10.118
REMARK  Name = *****
REMARK                            x       y       z     vdW  Elec       q    Type
REMARK                         _______ _______ _______ _____ _____    ______ ____
ROOT
ATOM      1  C   LIG    1       24.956 -29.554   7.829  0.00  0.00    -0.000 C 
ENDROOT
BRANCH   1   2
ATOM      2  C   LIG    1       24.487 -28.452   6.729  0.00  0.00    -0.000 C 
BRANCH   2   3
ATOM      3  C   LIG    1       25.480 -27.891   5.400  0.00  0.00    +0.000 C 
BRANCH   3   4
ATOM      4  C   LIG    1       25.614 -26.311   4.648  0.00  0.00    +0.002 C 
BRANCH   4   5
ATOM      5  C   LIG    1       25.334 -24.795   5.504  0.00  0.00    +0.019 C 
BRANCH   5   6
ATOM      6  C   LIG    1       24.165 -24.263   6.659  0.00  0.00    +0.111 C 
BRANCH   6   7
ATOM      7  N   LIG    1       23.694 -22.831   6.841  0.00  0.00    -0.270 N 
ATOM      8  C   LIG    1       24.322 -21.800   7.636  0.00  0.00    +0.408 C 
ATOM      9  O   LIG    1       23.864 -20.677   7.950  0.00  0.00    -0.226 OA
ATOM     10  C   LIG    1       22.373 -22.444   6.360  0.00  0.00    +0.135 C 
BRANCH   8  11
ATOM     11  O   LIG    1       25.702 -22.036   7.891  0.00  0.00    -0.411 OA
BRANCH  11  12
ATOM     12  C   LIG    1       26.603 -21.086   7.316  0.00  0.00    +0.139 A 
ATOM     13  C   LIG    1       27.766 -20.712   8.021  0.00  0.00    +0.118 A 
ATOM     14  C   LIG    1       28.786 -19.927   7.397  0.00  0.00    +0.149 A 
ATOM     15  C   LIG    1       28.572 -19.489   6.092  0.00  0.00    +0.072 A 
ATOM     16  C   LIG    1       27.421 -19.863   5.401  0.00  0.00    +0.010 A 
ATOM     17  C   LIG    1       26.459 -20.681   5.993  0.00  0.00    +0.047 A 
BRANCH  14  18
ATOM     18  N   LIG    1       30.171 -19.681   8.054  0.00  0.00    -0.383 NA
ATOM     19  C   LIG    1       30.078 -18.443   8.935  0.00  0.00    +0.361 C 
ATOM     20  C   LIG    1       31.172 -19.343   7.008  0.00  0.00    +0.361 C 
ATOM     21  C   LIG    1       30.819 -20.988   8.683  0.00  0.00    +0.361 C 
ENDBRANCH  14  18
ENDBRANCH  11  12
ENDBRANCH   8  11
ENDBRANCH   6   7
ENDBRANCH   5   6
ENDBRANCH   4   5
ENDBRANCH   3   4
ENDBRANCH   2   3
ENDBRANCH   1   2
BRANCH   1  22
ATOM     22  C   LIG    1       25.987 -29.210   9.019  0.00  0.00    +0.000 C 
BRANCH  22  23
ATOM     23  C   LIG    1       26.820 -30.400   9.663  0.00  0.00    +0.002 C 
BRANCH  23  24
ATOM     24  C   LIG    1       26.044 -31.696   9.971  0.00  0.00    +0.019 C 
BRANCH  24  25
ATOM     25  C   LIG    1       24.854 -31.903  10.962  0.00  0.00    +0.111 C 
BRANCH  25  27
ATOM     26  C   LIG    1       22.420 -31.357   9.975  0.00  0.00    +0.135 C 
ATOM     27  N   LIG    1       23.388 -31.646  11.060  0.00  0.00    -0.270 N 
ATOM     28  C   LIG    1       23.022 -31.115  12.286  0.00  0.00    +0.408 C 
ATOM     29  O   LIG    1       23.538 -31.502  13.436  0.00  0.00    -0.226 OA
BRANCH  28  30
ATOM     30  O   LIG    1       22.193 -30.023  12.209  0.00  0.00    -0.411 OA
BRANCH  30  31
ATOM     31  C   LIG    1       22.591 -28.732  12.525  0.00  0.00    +0.139 A 
ATOM     32  C   LIG    1       23.933 -28.454  12.614  0.00  0.00    +0.118 A 
ATOM     33  C   LIG    1       24.343 -27.324  13.255  0.00  0.00    +0.149 A 
ATOM     34  C   LIG    1       23.392 -26.343  13.557  0.00  0.00    +0.072 A 
ATOM     35  C   LIG    1       22.056 -26.557  13.298  0.00  0.00    +0.010 A 
ATOM     36  C   LIG    1       21.636 -27.798  12.888  0.00  0.00    +0.047 A 
BRANCH  33  37
ATOM     37  N   LIG    1       25.783 -27.216  13.609  0.00  0.00    -0.383 NA
ATOM     38  C   LIG    1       25.931 -25.953  14.295  0.00  0.00    +0.361 C 
ATOM     39  C   LIG    1       26.234 -28.537  14.243  0.00  0.00    +0.361 C 
ATOM     40  C   LIG    1       26.738 -26.924  12.455  0.00  0.00    +0.361 C 
ENDBRANCH  33  37
ENDBRANCH  30  31
ENDBRANCH  28  30
ENDBRANCH  25  27
ENDBRANCH  24  25
ENDBRANCH  23  24
ENDBRANCH  22  23
ENDBRANCH   1  22
TORSDOF 17
ENDMDL
MODEL 4
REMARK VINA RESULT:      -8.9      1.973     10.269
REMARK  Name = *****
REMARK                            x       y       z     vdW  Elec       q    Type
REMARK                         _______ _______ _______ _____ _____    ______ ____
ROOT
ATOM      1  C   LIG    1       25.621 -26.866   5.050  0.00  0.00    -0.000 C 
ENDROOT
BRANCH   1   2
ATOM      2  C   LIG    1       26.201 -25.843   6.171  0.00  0.00    -0.000 C 
BRANCH   2   3
ATOM      3  C   LIG    1       25.349 -24.434   6.767  0.00  0.00    +0.000 C 
BRANCH   3   4
ATOM      4  C   LIG    1       23.669 -23.953   6.614  0.00  0.00    +0.002 C 
BRANCH   4   5
ATOM      5  C   LIG    1       23.131 -22.273   6.606  0.00  0.00    +0.019 C 
BRANCH   5   6
ATOM      6  C   LIG    1       22.480 -21.223   5.399  0.00  0.00    +0.111 C 
BRANCH   6   7
ATOM      7  N   LIG    1       23.265 -20.182   4.620  0.00  0.00    -0.270 N 
ATOM      8  C   LIG    1       24.692 -19.957   4.657  0.00  0.00    +0.408 C 
ATOM      9  O   LIG    1       25.338 -19.000   4.173  0.00  0.00    -0.226 OA
ATOM     10  C   LIG    1       22.549 -19.136   3.900  0.00  0.00    +0.135 C 
BRANCH   8  11
ATOM     11  O   LIG    1       25.436 -21.082   5.112  0.00  0.00    -0.411 OA
BRANCH  11  12
ATOM     12  C   LIG    1       26.165 -20.885   6.327  0.00  0.00    +0.139 A 
ATOM     13  C   LIG    1       27.531 -20.537   6.272  0.00  0.00    +0.118 A 
ATOM     14  C   LIG    1       28.237 -20.134   7.449  0.00  0.00    +0.149 A 
ATOM     15  C   LIG    1       27.555 -20.155   8.664  0.00  0.00    +0.072 A 
ATOM     16  C   LIG    1       26.205 -20.499   8.710  0.00  0.00    +0.010 A 
ATOM     17  C   LIG    1       25.506 -20.829   7.550  0.00  0.00    +0.047 A 
BRANCH  14  18
ATOM     18  N   LIG    1       29.668 -19.534   7.401  0.00  0.00    -0.383 NA
ATOM     19  C   LIG    1       30.650 -20.578   7.916  0.00  0.00    +0.361 C 
ATOM     20  C   LIG    1       29.770 -18.398   8.355  0.00  0.00    +0.361 C 
ATOM     21  C   LIG    1       30.011 -18.811   6.029  0.00  0.00    +0.361 C 
ENDBRANCH  14  18
ENDBRANCH  11  12
ENDBRANCH   8  11
ENDBRANCH   6   7
ENDBRANCH   5   6
ENDBRANCH   4   5
ENDBRANCH   3   4
ENDBRANCH   2   3
ENDBRANCH   1   2
BRANCH   1  22
ATOM     22  C   LIG    1       24.486 -27.962   5.377  0.00  0.00    +0.000 C 
BRANCH  22  23
ATOM     23  C   LIG    1       24.921 -29.487   5.492  0.00  0.00    +0.002 C 
BRANCH  23  24
ATOM     24  C   LIG    1       24.253 -30.311   6.611  0.00  0.00    +0.019 C 
BRANCH  24  25
ATOM     25  C   LIG    1       24.675 -30.436   8.110  0.00  0.00    +0.111 C 
BRANCH  25  27
ATOM     26  C   LIG    1       26.348 -31.836   9.671  0.00  0.00    +0.135 C 
ATOM     27  N   LIG    1       25.898 -30.626   8.942  0.00  0.00    -0.270 N 
ATOM     28  C   LIG    1       26.351 -29.442   9.500  0.00  0.00    +0.408 C 
ATOM     29  O   LIG    1       26.355 -28.287   8.864  0.00  0.00    -0.226 OA
BRANCH  28  30
ATOM     30  O   LIG    1       26.645 -29.518  10.839  0.00  0.00    -0.411 OA
BRANCH  30  31
ATOM     31  C   LIG    1       26.193 -28.602  11.778  0.00  0.00    +0.139 A 
ATOM     32  C   LIG    1       24.942 -28.769  12.320  0.00  0.00    +0.118 A 
ATOM     33  C   LIG    1       24.341 -27.724  12.955  0.00  0.00    +0.149 A 
ATOM     34  C   LIG    1       25.115 -26.606  13.283  0.00  0.00    +0.072 A 
ATOM     35  C   LIG    1       26.433 -26.523  12.889  0.00  0.00    +0.010 A 
ATOM     36  C   LIG    1       26.945 -27.468  12.035  0.00  0.00    +0.047 A 
BRANCH  33  37
ATOM     37  N   LIG    1       22.886 -27.836  13.242  0.00  0.00    -0.383 NA
ATOM     38  C   LIG    1       22.378 -26.483  13.256  0.00  0.00    +0.361 C 
ATOM     39  C   LIG    1       22.287 -28.915  12.332  0.00  0.00    +0.361 C 
ATOM     40  C   LIG    1       22.512 -28.200  14.676  0.00  0.00    +0.361 C 
ENDBRANCH  33  37
ENDBRANCH  30  31
ENDBRANCH  28  30
ENDBRANCH  25  27
ENDBRANCH  24  25
ENDBRANCH  23  24
ENDBRANCH  22  23
ENDBRANCH   1  22
TORSDOF 17
ENDMDL
MODEL 5
REMARK VINA RESULT:      -8.7      1.883     10.355
REMARK  Name = *****
REMARK                            x       y       z     vdW  Elec       q    Type
REMARK                         _______ _______ _______ _____ _____    ______ ____
ROOT
ATOM      1  C   LIG    1       25.756 -25.932   5.408  0.00  0.00    -0.000 C 
ENDROOT
BRANCH   1   2
ATOM      2  C   LIG    1       24.327 -25.262   5.796  0.00  0.00    -0.000 C 
BRANCH   2   3
ATOM      3  C   LIG    1       24.122 -23.960   6.949  0.00  0.00    +0.000 C 
BRANCH   3   4
ATOM      4  C   LIG    1       22.890 -22.717   7.077  0.00  0.00    +0.002 C 
BRANCH   4   5
ATOM      5  C   LIG    1       22.702 -21.404   5.915  0.00  0.00    +0.019 C 
BRANCH   5   6
ATOM      6  C   LIG    1       23.361 -21.075   4.353  0.00  0.00    +0.111 C 
BRANCH   6   7
ATOM      7  N   LIG    1       23.965 -19.755   3.911  0.00  0.00    -0.270 N 
ATOM      8  C   LIG    1       25.318 -19.296   4.131  0.00  0.00    +0.408 C 
ATOM      9  O   LIG    1       25.789 -18.151   3.943  0.00  0.00    -0.226 OA
ATOM     10  C   LIG    1       23.095 -18.708   3.388  0.00  0.00    +0.135 C 
BRANCH   8  11
ATOM     11  O   LIG    1       26.244 -20.348   4.382  0.00  0.00    -0.411 OA
BRANCH  11  12
ATOM     12  C   LIG    1       26.710 -20.447   5.730  0.00  0.00    +0.139 A 
ATOM     13  C   LIG    1       28.079 -20.255   6.012  0.00  0.00    +0.118 A 
ATOM     14  C   LIG    1       28.546 -20.144   7.359  0.00  0.00    +0.149 A 
ATOM     15  C   LIG    1       27.620 -20.293   8.390  0.00  0.00    +0.072 A 
ATOM     16  C   LIG    1       26.269 -20.482   8.104  0.00  0.00    +0.010 A 
ATOM     17  C   LIG    1       25.811 -20.526   6.788  0.00  0.00    +0.047 A 
BRANCH  14  18
ATOM     18  N   LIG    1       29.996 -19.714   7.708  0.00  0.00    -0.383 NA
ATOM     19  C   LIG    1       30.650 -20.825   8.518  0.00  0.00    +0.361 C 
ATOM     20  C   LIG    1       29.968 -18.535   8.612  0.00  0.00    +0.361 C 
ATOM     21  C   LIG    1       30.803 -19.130   6.471  0.00  0.00    +0.361 C 
ENDBRANCH  14  18
ENDBRANCH  11  12
ENDBRANCH   8  11
ENDBRANCH   6   7
ENDBRANCH   5   6
ENDBRANCH   4   5
ENDBRANCH   3   4
ENDBRANCH   2   3
ENDBRANCH   1   2
BRANCH   1  22
ATOM     22  C   LIG    1       25.946 -27.521   5.213  0.00  0.00    +0.000 C 
BRANCH  22  23
ATOM     23  C   LIG    1       24.662 -28.453   5.316  0.00  0.00    +0.002 C 
BRANCH  23  24
ATOM     24  C   LIG    1       24.750 -29.640   6.296  0.00  0.00    +0.019 C 
BRANCH  24  25
ATOM     25  C   LIG    1       24.744 -29.613   7.858  0.00  0.00    +0.111 C 
BRANCH  25  27
ATOM     26  C   LIG    1       24.402 -31.583   9.646  0.00  0.00    +0.135 C 
ATOM     27  N   LIG    1       25.140 -30.461   9.018  0.00  0.00    -0.270 N 
ATOM     28  C   LIG    1       25.998 -29.806   9.887  0.00  0.00    +0.408 C 
ATOM     29  O   LIG    1       26.973 -29.012   9.494  0.00  0.00    -0.226 OA
BRANCH  28  30
ATOM     30  O   LIG    1       25.654 -29.909  11.213  0.00  0.00    -0.411 OA
BRANCH  30  31
ATOM     31  C   LIG    1       24.941 -28.935  11.899  0.00  0.00    +0.139 A 
ATOM     32  C   LIG    1       25.625 -27.889  12.466  0.00  0.00    +0.118 A 
ATOM     33  C   LIG    1       25.019 -27.131  13.424  0.00  0.00    +0.149 A 
ATOM     34  C   LIG    1       23.637 -27.258  13.601  0.00  0.00    +0.072 A 
ATOM     35  C   LIG    1       22.920 -28.196  12.891  0.00  0.00    +0.010 A 
ATOM     36  C   LIG    1       23.587 -29.118  12.122  0.00  0.00    +0.047 A 
BRANCH  33  37
ATOM     37  N   LIG    1       25.877 -26.227  14.234  0.00  0.00    -0.383 NA
ATOM     38  C   LIG    1       26.418 -27.039  15.300  0.00  0.00    +0.361 C 
ATOM     39  C   LIG    1       26.783 -25.430  13.287  0.00  0.00    +0.361 C 
ATOM     40  C   LIG    1       25.145 -25.216  15.111  0.00  0.00    +0.361 C 
ENDBRANCH  33  37
ENDBRANCH  30  31
ENDBRANCH  28  30
ENDBRANCH  25  27
ENDBRANCH  24  25
ENDBRANCH  23  24
ENDBRANCH  22  23
ENDBRANCH   1  22
TORSDOF 17
ENDMDL
MODEL 6
REMARK VINA RESULT:      -8.6      2.366      4.034
REMARK  Name = *****
REMARK                            x       y       z     vdW  Elec       q    Type
REMARK                         _______ _______ _______ _____ _____    ______ ____
ROOT
ATOM      1  C   LIG    1       22.955 -22.471   6.957  0.00  0.00    -0.000 C 
ENDROOT
BRANCH   1   2
ATOM      2  C   LIG    1       23.311 -24.041   6.731  0.00  0.00    -0.000 C 
BRANCH   2   3
ATOM      3  C   LIG    1       24.885 -24.644   6.254  0.00  0.00    +0.000 C 
BRANCH   3   4
ATOM      4  C   LIG    1       25.655 -26.197   6.525  0.00  0.00    +0.002 C 
BRANCH   4   5
ATOM      5  C   LIG    1       25.397 -27.608   5.497  0.00  0.00    +0.019 C 
BRANCH   5   6
ATOM      6  C   LIG    1       24.488 -29.067   5.663  0.00  0.00    +0.111 C 
BRANCH   6   7
ATOM      7  N   LIG    1       25.060 -30.424   6.031  0.00  0.00    -0.270 N 
ATOM      8  C   LIG    1       25.191 -30.986   7.357  0.00  0.00    +0.408 C 
ATOM      9  O   LIG    1       25.819 -32.012   7.705  0.00  0.00    -0.226 OA
ATOM     10  C   LIG    1       25.755 -31.209   5.017  0.00  0.00    +0.135 C 
BRANCH   8  11
ATOM     11  O   LIG    1       24.314 -30.403   8.314  0.00  0.00    -0.411 OA
BRANCH  11  12
ATOM     12  C   LIG    1       24.950 -29.668   9.362  0.00  0.00    +0.139 A 
ATOM     13  C   LIG    1       24.542 -29.863  10.698  0.00  0.00    +0.118 A 
ATOM     14  C   LIG    1       25.284 -29.304  11.785  0.00  0.00    +0.149 A 
ATOM     15  C   LIG    1       26.390 -28.510  11.486  0.00  0.00    +0.072 A 
ATOM     16  C   LIG    1       26.788 -28.322  10.164  0.00  0.00    +0.010 A 
ATOM     17  C   LIG    1       26.096 -28.921   9.112  0.00  0.00    +0.047 A 
BRANCH  14  18
ATOM     18  N   LIG    1       25.004 -29.674  13.267  0.00  0.00    -0.383 NA
ATOM     19  C   LIG    1       26.264 -29.412  14.080  0.00  0.00    +0.361 C 
ATOM     20  C   LIG    1       24.760 -31.136  13.384  0.00  0.00    +0.361 C 
ATOM     21  C   LIG    1       23.633 -29.092  13.820  0.00  0.00    +0.361 C 
ENDBRANCH  14  18
ENDBRANCH  11  12
ENDBRANCH   8  11
ENDBRANCH   6   7
ENDBRANCH   5   6
ENDBRANCH   4   5
ENDBRANCH   3   4
ENDBRANCH   2   3
ENDBRANCH   1   2
BRANCH   1  22
ATOM     22  C   LIG    1       22.738 -21.444   5.734  0.00  0.00    +0.000 C 
BRANCH  22  23
ATOM     23  C   LIG    1       22.432 -19.922   6.073  0.00  0.00    +0.002 C 
BRANCH  23  24
ATOM     24  C   LIG    1       22.430 -18.939   4.885  0.00  0.00    +0.019 C 
BRANCH  24  25
ATOM     25  C   LIG    1       23.436 -18.854   3.693  0.00  0.00    +0.111 C 
BRANCH  25  27
ATOM     26  C   LIG    1       24.873 -20.950   2.834  0.00  0.00    +0.135 C 
ATOM     27  N   LIG    1       24.667 -19.524   3.186  0.00  0.00    -0.270 N 
ATOM     28  C   LIG    1       25.827 -18.879   3.585  0.00  0.00    +0.408 C 
ATOM     29  O   LIG    1       25.956 -17.568   3.632  0.00  0.00    -0.226 OA
BRANCH  28  30
ATOM     30  O   LIG    1       26.794 -19.710   4.096  0.00  0.00    -0.411 OA
BRANCH  30  31
ATOM     31  C   LIG    1       27.006 -19.896   5.455  0.00  0.00    +0.139 A 
ATOM     32  C   LIG    1       28.197 -19.488   6.003  0.00  0.00    +0.118 A 
ATOM     33  C   LIG    1       28.574 -19.967   7.222  0.00  0.00    +0.149 A 
ATOM     34  C   LIG    1       27.622 -20.632   8.002  0.00  0.00    +0.072 A 
ATOM     35  C   LIG    1       26.360 -20.883   7.510  0.00  0.00    +0.010 A 
ATOM     36  C   LIG    1       26.083 -20.619   6.191  0.00  0.00    +0.047 A 
BRANCH  33  37
ATOM     37  N   LIG    1       29.987 -19.763   7.636  0.00  0.00    -0.383 NA
ATOM     38  C   LIG    1       30.365 -20.955   8.361  0.00  0.00    +0.361 C 
ATOM     39  C   LIG    1       30.787 -19.265   6.427  0.00  0.00    +0.361 C 
ATOM     40  C   LIG    1       30.216 -18.765   8.768  0.00  0.00    +0.361 C 
ENDBRANCH  33  37
ENDBRANCH  30  31
ENDBRANCH  28  30
ENDBRANCH  25  27
ENDBRANCH  24  25
ENDBRANCH  23  24
ENDBRANCH  22  23
ENDBRANCH   1  22
TORSDOF 17
ENDMDL
MODEL 7
REMARK VINA RESULT:      -8.5      2.165      3.468
REMARK  Name = *****
REMARK                            x       y       z     vdW  Elec       q    Type
REMARK                         _______ _______ _______ _____ _____    ______ ____
ROOT
ATOM      1  C   LIG    1       23.432 -24.256   6.524  0.00  0.00    -0.000 C 
ENDROOT
BRANCH   1   2
ATOM      2  C   LIG    1       24.974 -24.482   6.062  0.00  0.00    -0.000 C 
BRANCH   2   3
ATOM      3  C   LIG    1       25.880 -25.960   6.313  0.00  0.00    +0.000 C 
BRANCH   3   4
ATOM      4  C   LIG    1       25.361 -27.559   6.813  0.00  0.00    +0.002 C 
BRANCH   4   5
ATOM      5  C   LIG    1       24.948 -28.850   5.684  0.00  0.00    +0.019 C 
BRANCH   5   6
ATOM      6  C   LIG    1       25.491 -30.475   5.462  0.00  0.00    +0.111 C 
BRANCH   6   7
ATOM      7  N   LIG    1       24.844 -31.710   6.062  0.00  0.00    -0.270 N 
ATOM      8  C   LIG    1       24.129 -31.799   7.315  0.00  0.00    +0.408 C 
ATOM      9  O   LIG    1       23.748 -32.829   7.918  0.00  0.00    -0.226 OA
ATOM     10  C   LIG    1       25.107 -33.016   5.470  0.00  0.00    +0.135 C 
BRANCH   8  11
ATOM     11  O   LIG    1       23.627 -30.550   7.777  0.00  0.00    -0.411 OA
BRANCH  11  12
ATOM     12  C   LIG    1       23.689 -30.349   9.191  0.00  0.00    +0.139 A 
ATOM     13  C   LIG    1       24.884 -29.882   9.778  0.00  0.00    +0.118 A 
ATOM     14  C   LIG    1       24.924 -29.477  11.149  0.00  0.00    +0.149 A 
ATOM     15  C   LIG    1       23.763 -29.615  11.908  0.00  0.00    +0.072 A 
ATOM     16  C   LIG    1       22.586 -30.077  11.322  0.00  0.00    +0.010 A 
ATOM     17  C   LIG    1       22.538 -30.410   9.969  0.00  0.00    +0.047 A 
BRANCH  14  18
ATOM     18  N   LIG    1       26.148 -28.754  11.772  0.00  0.00    -0.383 NA
ATOM     19  C   LIG    1       27.017 -28.213  10.646  0.00  0.00    +0.361 C 
ATOM     20  C   LIG    1       27.003 -29.737  12.488  0.00  0.00    +0.361 C 
ATOM     21  C   LIG    1       25.769 -27.763  12.954  0.00  0.00    +0.361 C 
ENDBRANCH  14  18
ENDBRANCH  11  12
ENDBRANCH   8  11
ENDBRANCH   6   7
ENDBRANCH   5   6
ENDBRANCH   4   5
ENDBRANCH   3   4
ENDBRANCH   2   3
ENDBRANCH   1   2
BRANCH   1  22
ATOM     22  C   LIG    1       22.833 -22.800   6.867  0.00  0.00    +0.000 C 
BRANCH  22  23
ATOM     23  C   LIG    1       22.725 -21.733   5.693  0.00  0.00    +0.002 C 
BRANCH  23  24
ATOM     24  C   LIG    1       24.013 -20.962   5.343  0.00  0.00    +0.019 C 
BRANCH  24  25
ATOM     25  C   LIG    1       25.147 -20.478   6.303  0.00  0.00    +0.111 C 
BRANCH  25  27
ATOM     26  C   LIG    1       26.263 -21.788   8.361  0.00  0.00    +0.135 C 
ATOM     27  N   LIG    1       26.289 -21.024   7.091  0.00  0.00    -0.270 N 
ATOM     28  C   LIG    1       27.458 -20.304   6.902  0.00  0.00    +0.408 C 
ATOM     29  O   LIG    1       27.841 -19.822   5.736  0.00  0.00    -0.226 OA
BRANCH  28  30
ATOM     30  O   LIG    1       28.119 -19.975   8.060  0.00  0.00    -0.411 OA
BRANCH  30  31
ATOM     31  C   LIG    1       29.454 -19.600   8.102  0.00  0.00    +0.139 A 
ATOM     32  C   LIG    1       29.909 -18.884   9.181  0.00  0.00    +0.118 A 
ATOM     33  C   LIG    1       31.089 -18.209   9.090  0.00  0.00    +0.149 A 
ATOM     34  C   LIG    1       31.938 -18.488   8.013  0.00  0.00    +0.072 A 
ATOM     35  C   LIG    1       31.546 -19.355   7.016  0.00  0.00    +0.010 A 
ATOM     36  C   LIG    1       30.256 -19.825   6.996  0.00  0.00    +0.047 A 
BRANCH  33  37
ATOM     37  N   LIG    1       31.391 -17.201  10.140  0.00  0.00    -0.383 NA
ATOM     38  C   LIG    1       31.157 -15.910   9.532  0.00  0.00    +0.361 C 
ATOM     39  C   LIG    1       30.693 -17.620  11.440  0.00  0.00    +0.361 C 
ATOM     40  C   LIG    1       32.867 -16.997  10.469  0.00  0.00    +0.361 C 
ENDBRANCH  33  37
ENDBRANCH  30  31
ENDBRANCH  28  30
ENDBRANCH  25  27
ENDBRANCH  24  25
ENDBRANCH  23  24
ENDBRANCH  22  23
ENDBRANCH   1  22
TORSDOF 17
ENDMDL
MODEL 8
REMARK VINA RESULT:      -8.5      2.881      4.793
REMARK  Name = *****
REMARK                            x       y       z     vdW  Elec       q    Type
REMARK                         _______ _______ _______ _____ _____    ______ ____
ROOT
ATOM      1  C   LIG    1       26.314 -29.818   9.398  0.00  0.00    -0.000 C 
ENDROOT
BRANCH   1   2
ATOM      2  C   LIG    1       26.921 -28.666  10.371  0.00  0.00    -0.000 C 
BRANCH   2   3
ATOM      3  C   LIG    1       28.061 -28.960  11.667  0.00  0.00    +0.000 C 
BRANCH   3   4
ATOM      4  C   LIG    1       27.842 -29.664  13.259  0.00  0.00    +0.002 C 
BRANCH   4   5
ATOM      5  C   LIG    1       26.512 -30.746  13.673  0.00  0.00    +0.019 C 
BRANCH   5   6
ATOM      6  C   LIG    1       25.410 -31.707  12.754  0.00  0.00    +0.111 C 
BRANCH   6   7
ATOM      7  N   LIG    1       23.982 -32.033  13.150  0.00  0.00    -0.270 N 
ATOM      8  C   LIG    1       22.840 -31.146  13.110  0.00  0.00    +0.408 C 
ATOM      9  O   LIG    1       21.701 -31.327  13.597  0.00  0.00    -0.226 OA
ATOM     10  C   LIG    1       23.698 -33.284  13.844  0.00  0.00    +0.135 C 
BRANCH   8  11
ATOM     11  O   LIG    1       23.001 -30.048  12.218  0.00  0.00    -0.411 OA
BRANCH  11  12
ATOM     12  C   LIG    1       22.963 -28.754  12.826  0.00  0.00    +0.139 A 
ATOM     13  C   LIG    1       24.150 -28.186  13.334  0.00  0.00    +0.118 A 
ATOM     14  C   LIG    1       24.191 -26.822  13.761  0.00  0.00    +0.149 A 
ATOM     15  C   LIG    1       23.009 -26.085  13.719  0.00  0.00    +0.072 A 
ATOM     16  C   LIG    1       21.840 -26.652  13.214  0.00  0.00    +0.010 A 
ATOM     17  C   LIG    1       21.822 -27.963  12.741  0.00  0.00    +0.047 A 
BRANCH  14  18
ATOM     18  N   LIG    1       25.517 -26.097  14.116  0.00  0.00    -0.383 NA
ATOM     19  C   LIG    1       26.114 -26.754  15.352  0.00  0.00    +0.361 C 
ATOM     20  C   LIG    1       25.232 -24.694  14.517  0.00  0.00    +0.361 C 
ATOM     21  C   LIG    1       26.472 -25.868  12.867  0.00  0.00    +0.361 C 
ENDBRANCH  14  18
ENDBRANCH  11  12
ENDBRANCH   8  11
ENDBRANCH   6   7
ENDBRANCH   5   6
ENDBRANCH   4   5
ENDBRANCH   3   4
ENDBRANCH   2   3
ENDBRANCH   1   2
BRANCH   1  22
ATOM     22  C   LIG    1       24.745 -30.188   9.363  0.00  0.00    +0.000 C 
BRANCH  22  23
ATOM     23  C   LIG    1       24.040 -30.350   7.948  0.00  0.00    +0.002 C 
BRANCH  23  24
ATOM     24  C   LIG    1       24.625 -29.521   6.788  0.00  0.00    +0.019 C 
BRANCH  24  25
ATOM     25  C   LIG    1       24.420 -28.004   6.477  0.00  0.00    +0.111 C 
BRANCH  25  27
ATOM     26  C   LIG    1       26.347 -26.889   4.980  0.00  0.00    +0.135 C 
ATOM     27  N   LIG    1       25.044 -26.903   5.688  0.00  0.00    -0.270 N 
ATOM     28  C   LIG    1       24.623 -25.649   6.100  0.00  0.00    +0.408 C 
ATOM     29  O   LIG    1       23.382 -25.371   6.449  0.00  0.00    -0.226 OA
BRANCH  28  30
ATOM     30  O   LIG    1       25.635 -24.739   6.283  0.00  0.00    -0.411 OA
BRANCH  30  31
ATOM     31  C   LIG    1       25.421 -23.408   6.612  0.00  0.00    +0.139 A 
ATOM     32  C   LIG    1       24.822 -22.584   5.692  0.00  0.00    +0.118 A 
ATOM     33  C   LIG    1       24.920 -21.233   5.837  0.00  0.00    +0.149 A 
ATOM     34  C   LIG    1       25.380 -20.723   7.056  0.00  0.00    +0.072 A 
ATOM     35  C   LIG    1       25.815 -21.568   8.053  0.00  0.00    +0.010 A 
ATOM     36  C   LIG    1       25.946 -22.910   7.793  0.00  0.00    +0.047 A 
BRANCH  33  37
ATOM     37  N   LIG    1       24.545 -20.385   4.674  0.00  0.00    -0.383 NA
ATOM     38  C   LIG    1       23.299 -19.748   5.031  0.00  0.00    +0.361 C 
ATOM     39  C   LIG    1       25.772 -19.574   4.240  0.00  0.00    +0.361 C 
ATOM     40  C   LIG    1       24.039 -21.127   3.440  0.00  0.00    +0.361 C 
ENDBRANCH  33  37
ENDBRANCH  30  31
ENDBRANCH  28  30
ENDBRANCH  25  27
ENDBRANCH  24  25
ENDBRANCH  23  24
ENDBRANCH  22  23
ENDBRANCH   1  22
TORSDOF 17
ENDMDL
MODEL 9
REMARK VINA RESULT:      -8.4      2.160      3.780
REMARK  Name = *****
REMARK                            x       y       z     vdW  Elec       q    Type
REMARK                         _______ _______ _______ _____ _____    ______ ____
ROOT
ATOM      1  C   LIG    1       23.064 -23.199   6.858  0.00  0.00    -0.000 C 
ENDROOT
BRANCH   1   2
ATOM      2  C   LIG    1       24.308 -24.184   6.504  0.00  0.00    -0.000 C 
BRANCH   2   3
ATOM      3  C   LIG    1       24.158 -25.902   6.199  0.00  0.00    +0.000 C 
BRANCH   3   4
ATOM      4  C   LIG    1       25.230 -27.238   6.578  0.00  0.00    +0.002 C 
BRANCH   4   5
ATOM      5  C   LIG    1       24.665 -28.861   6.976  0.00  0.00    +0.019 C 
BRANCH   5   6
ATOM      6  C   LIG    1       25.368 -30.436   6.886  0.00  0.00    +0.111 C 
BRANCH   6   7
ATOM      7  N   LIG    1       25.828 -31.265   8.071  0.00  0.00    -0.270 N 
ATOM      8  C   LIG    1       26.796 -30.889   9.076  0.00  0.00    +0.408 C 
ATOM      9  O   LIG    1       27.326 -31.613   9.951  0.00  0.00    -0.226 OA
ATOM     10  C   LIG    1       25.451 -32.672   8.151  0.00  0.00    +0.135 C 
BRANCH   8  11
ATOM     11  O   LIG    1       26.979 -29.483   9.196  0.00  0.00    -0.411 OA
BRANCH  11  12
ATOM     12  C   LIG    1       26.389 -28.884  10.352  0.00  0.00    +0.139 A 
ATOM     13  C   LIG    1       25.127 -29.327  10.801  0.00  0.00    +0.118 A 
ATOM     14  C   LIG    1       24.600 -28.900  12.060  0.00  0.00    +0.149 A 
ATOM     15  C   LIG    1       25.340 -27.984  12.805  0.00  0.00    +0.072 A 
ATOM     16  C   LIG    1       26.587 -27.552  12.356  0.00  0.00    +0.010 A 
ATOM     17  C   LIG    1       27.123 -28.021  11.158  0.00  0.00    +0.047 A 
BRANCH  14  18
ATOM     18  N   LIG    1       23.328 -29.528  12.690  0.00  0.00    -0.383 NA
ATOM     19  C   LIG    1       22.197 -28.512  12.617  0.00  0.00    +0.361 C 
ATOM     20  C   LIG    1       23.550 -29.764  14.141  0.00  0.00    +0.361 C 
ATOM     21  C   LIG    1       23.029 -31.004  12.185  0.00  0.00    +0.361 C 
ENDBRANCH  14  18
ENDBRANCH  11  12
ENDBRANCH   8  11
ENDBRANCH   6   7
ENDBRANCH   5   6
ENDBRANCH   4   5
ENDBRANCH   3   4
ENDBRANCH   2   3
ENDBRANCH   1   2
BRANCH   1  22
ATOM     22  C   LIG    1       23.271 -21.665   7.305  0.00  0.00    +0.000 C 
BRANCH  22  23
ATOM     23  C   LIG    1       23.160 -20.533   6.193  0.00  0.00    +0.002 C 
BRANCH  23  24
ATOM     24  C   LIG    1       24.321 -20.445   5.183  0.00  0.00    +0.019 C 
BRANCH  24  25
ATOM     25  C   LIG    1       25.831 -20.776   5.407  0.00  0.00    +0.111 C 
BRANCH  25  27
ATOM     26  C   LIG    1       26.569 -21.662   7.829  0.00  0.00    +0.135 C 
ATOM     27  N   LIG    1       26.798 -21.011   6.517  0.00  0.00    -0.270 N 
ATOM     28  C   LIG    1       27.826 -20.081   6.532  0.00  0.00    +0.408 C 
ATOM     29  O   LIG    1       28.415 -19.624   5.445  0.00  0.00    -0.226 OA
BRANCH  28  30
ATOM     30  O   LIG    1       28.081 -19.533   7.765  0.00  0.00    -0.411 OA
BRANCH  30  31
ATOM     31  C   LIG    1       29.314 -19.608   8.398  0.00  0.00    +0.139 A 
ATOM     32  C   LIG    1       29.719 -18.560   9.187  0.00  0.00    +0.118 A 
ATOM     33  C   LIG    1       31.035 -18.444   9.524  0.00  0.00    +0.149 A 
ATOM     34  C   LIG    1       31.882 -19.534   9.298  0.00  0.00    +0.072 A 
ATOM     35  C   LIG    1       31.419 -20.664   8.660  0.00  0.00    +0.010 A 
ATOM     36  C   LIG    1       30.163 -20.661   8.104  0.00  0.00    +0.047 A 
BRANCH  33  37
ATOM     37  N   LIG    1       31.488 -17.149  10.098  0.00  0.00    -0.383 NA
ATOM     38  C   LIG    1       31.754 -16.285   8.970  0.00  0.00    +0.361 C 
ATOM     39  C   LIG    1       30.523 -16.743  11.218  0.00  0.00    +0.361 C 
ATOM     40  C   LIG    1       32.894 -17.135  10.690  0.00  0.00    +0.361 C 
ENDBRANCH  33  37
ENDBRANCH  30  31
ENDBRANCH  28  30
ENDBRANCH  25  27
ENDBRANCH  24  25
ENDBRANCH  23  24
ENDBRANCH  22  23
ENDBRANCH   1  22
TORSDOF 17
ENDMDL
