MODEL 1
REMARK VINA RESULT:      -7.6      0.000      0.000
REMARK  Name = *****
REMARK                            x       y       z     vdW  Elec       q    Type
REMARK                         _______ _______ _______ _____ _____    ______ ____
ROOT
ATOM      1  CA  LIG    1       25.194 -30.602   7.953  0.00  0.00    +0.190 C 
ATOM      2  C   LIG    1       26.085 -31.200   9.077  0.00  0.00    +0.165 C 
ATOM      3  S   LIG    1       26.907 -30.043  10.226  0.00  0.00    -0.127 S 
ATOM      4  C   LIG    1       25.677 -30.218  11.590  0.00  0.00    +0.042 C 
ATOM      5  CA  LIG    1       24.783 -31.433  11.231  0.00  0.00    +0.201 C 
ATOM      6  C   LIG    1       24.846 -28.926  11.662  0.00  0.00    +0.025 C 
ATOM      7  C   LIG    1       26.494 -30.334  12.883  0.00  0.00    +0.025 C 
ATOM      8  N   LIG    1       24.849 -31.626   9.770  0.00  0.00    -0.271 N 
ATOM      9  C   LIG    1       24.052 -30.852   8.961  0.00  0.00    +0.240 C 
ATOM     10  O   LIG    1       22.924 -30.424   9.132  0.00  0.00    -0.273 OA
ENDROOT
BRANCH   1  12
ATOM     11  C   LIG    1       24.679 -28.576   6.564  0.00  0.00    +0.254 C 
ATOM     12  N   LIG    1       25.449 -29.193   7.544  0.00  0.00    -0.299 N 
ATOM     13  H   LIG    1       26.168 -28.658   8.019  0.00  0.00    +0.150 HD
ATOM     14  O   LIG    1       23.714 -29.146   6.060  0.00  0.00    -0.272 OA
BRANCH  11  16
ATOM     15  C   LIG    1       25.942 -27.160   4.921  0.00  0.00    +0.062 C 
ATOM     16  C   LIG    1       25.128 -27.137   6.221  0.00  0.00    +0.255 C 
BRANCH  16  17
ATOM     17  O   LIG    1       24.024 -26.231   6.112  0.00  0.00    -0.480 OA
BRANCH  17  18
ATOM     18  C   LIG    1       24.267 -24.942   6.525  0.00  0.00    +0.122 A 
ATOM     19  C   LIG    1       25.534 -24.448   6.850  0.00  0.00    +0.045 A 
ATOM     20  C   LIG    1       25.706 -23.129   7.269  0.00  0.00    +0.004 A 
ATOM     21  C   LIG    1       24.608 -22.284   7.362  0.00  0.00    +0.000 A 
ATOM     22  C   LIG    1       23.340 -22.758   7.026  0.00  0.00    +0.004 A 
ATOM     23  C   LIG    1       23.170 -24.082   6.600  0.00  0.00    +0.045 A 
ENDBRANCH  17  18
ENDBRANCH  16  17
ENDBRANCH  11  16
ENDBRANCH   1  12
BRANCH   5  24
ATOM     24  C   LIG    1       25.148 -32.715  11.994  0.00  0.00    +0.327 C 
ATOM     25  O   LIG    1       25.987 -33.517  11.609  0.00  0.00    -0.249 OA
BRANCH  24  26
ATOM     26  OXT LIG    1       24.460 -32.908  13.141  0.00  0.00    -0.479 OA
ATOM     27  HXT LIG    1       23.539 -33.183  12.967  0.00  0.00    +0.295 HD
ENDBRANCH  24  26
ENDBRANCH   5  24
TORSDOF 6
ENDMDL
MODEL 2
REMARK VINA RESULT:      -6.5      6.915     10.021
REMARK  Name = *****
REMARK                            x       y       z     vdW  Elec       q    Type
REMARK                         _______ _______ _______ _____ _____    ______ ____
ROOT
ATOM      1  CA  LIG    1       26.880 -21.774   8.369  0.00  0.00    +0.190 C 
ATOM      2  C   LIG    1       25.333 -21.636   8.322  0.00  0.00    +0.165 C 
ATOM      3  S   LIG    1       24.620 -20.339   7.253  0.00  0.00    -0.127 S 
ATOM      4  C   LIG    1       24.214 -21.452   5.841  0.00  0.00    +0.042 C 
ATOM      5  CA  LIG    1       24.374 -22.905   6.358  0.00  0.00    +0.201 C 
ATOM      6  C   LIG    1       25.200 -21.164   4.696  0.00  0.00    +0.025 C 
ATOM      7  C   LIG    1       22.809 -21.049   5.374  0.00  0.00    +0.025 C 
ATOM      8  N   LIG    1       25.291 -22.875   7.513  0.00  0.00    -0.271 N 
ATOM      9  C   LIG    1       26.646 -22.848   7.286  0.00  0.00    +0.240 C 
ATOM     10  O   LIG    1       27.316 -23.378   6.417  0.00  0.00    -0.273 OA
ENDROOT
BRANCH   1  12
ATOM     11  C   LIG    1       29.078 -20.590   8.111  0.00  0.00    +0.254 C 
ATOM     12  N   LIG    1       27.693 -20.585   7.989  0.00  0.00    -0.299 N 
ATOM     13  H   LIG    1       27.233 -19.773   7.592  0.00  0.00    +0.150 HD
ATOM     14  O   LIG    1       29.683 -21.600   8.462  0.00  0.00    -0.272 OA
BRANCH  11  16
ATOM     15  C   LIG    1       29.371 -18.883   6.293  0.00  0.00    +0.062 C 
ATOM     16  C   LIG    1       29.749 -19.249   7.734  0.00  0.00    +0.255 C 
BRANCH  16  17
ATOM     17  O   LIG    1       29.398 -18.191   8.634  0.00  0.00    -0.480 OA
BRANCH  17  18
ATOM     18  C   LIG    1       30.434 -17.667   9.371  0.00  0.00    +0.122 A 
ATOM     19  C   LIG    1       31.682 -17.327   8.841  0.00  0.00    +0.045 A 
ATOM     20  C   LIG    1       32.689 -16.805   9.650  0.00  0.00    +0.004 A 
ATOM     21  C   LIG    1       32.458 -16.612  11.005  0.00  0.00    +0.000 A 
ATOM     22  C   LIG    1       31.213 -16.931  11.547  0.00  0.00    +0.004 A 
ATOM     23  C   LIG    1       30.199 -17.449  10.730  0.00  0.00    +0.045 A 
ENDBRANCH  17  18
ENDBRANCH  16  17
ENDBRANCH  11  16
ENDBRANCH   1  12
BRANCH   5  24
ATOM     24  C   LIG    1       23.043 -23.589   6.703  0.00  0.00    +0.327 C 
ATOM     25  O   LIG    1       22.099 -23.011   7.224  0.00  0.00    -0.249 OA
BRANCH  24  26
ATOM     26  OXT LIG    1       22.984 -24.904   6.394  0.00  0.00    -0.479 OA
ATOM     27  HXT LIG    1       22.989 -25.463   7.194  0.00  0.00    +0.295 HD
ENDBRANCH  24  26
ENDBRANCH   5  24
TORSDOF 6
ENDMDL
MODEL 3
REMARK VINA RESULT:      -6.5      1.415      1.849
REMARK  Name = *****
REMARK                            x       y       z     vdW  Elec       q    Type
REMARK                         _______ _______ _______ _____ _____    ______ ____
ROOT
ATOM      1  CA  LIG    1       25.741 -30.000   9.260  0.00  0.00    +0.190 C 
ATOM      2  C   LIG    1       26.684 -30.183  10.481  0.00  0.00    +0.165 C 
ATOM      3  S   LIG    1       27.402 -28.687  11.243  0.00  0.00    -0.127 S 
ATOM      4  C   LIG    1       26.196 -28.579  12.633  0.00  0.00    +0.042 C 
ATOM      5  CA  LIG    1       25.413 -29.917  12.649  0.00  0.00    +0.201 C 
ATOM      6  C   LIG    1       25.253 -27.393  12.367  0.00  0.00    +0.025 C 
ATOM      7  C   LIG    1       27.022 -28.260  13.886  0.00  0.00    +0.025 C 
ATOM      8  N   LIG    1       25.492 -30.503  11.298  0.00  0.00    -0.271 N 
ATOM      9  C   LIG    1       24.628 -30.055  10.327  0.00  0.00    +0.240 C 
ATOM     10  O   LIG    1       23.467 -29.694  10.403  0.00  0.00    -0.273 OA
ENDROOT
BRANCH   1  12
ATOM     11  C   LIG    1       25.176 -28.569   7.277  0.00  0.00    +0.254 C 
ATOM     12  N   LIG    1       25.869 -28.744   8.469  0.00  0.00    -0.299 N 
ATOM     13  H   LIG    1       26.436 -27.984   8.829  0.00  0.00    +0.150 HD
ATOM     14  O   LIG    1       24.377 -29.411   6.875  0.00  0.00    -0.272 OA
BRANCH  11  16
ATOM     15  C   LIG    1       26.203 -27.526   5.238  0.00  0.00    +0.062 C 
ATOM     16  C   LIG    1       25.482 -27.234   6.559  0.00  0.00    +0.255 C 
BRANCH  16  17
ATOM     17  O   LIG    1       24.302 -26.454   6.331  0.00  0.00    -0.480 OA
BRANCH  17  18
ATOM     18  C   LIG    1       24.414 -25.110   6.604  0.00  0.00    +0.122 A 
ATOM     19  C   LIG    1       23.330 -24.230   6.672  0.00  0.00    +0.045 A 
ATOM     20  C   LIG    1       23.519 -22.877   6.948  0.00  0.00    +0.004 A 
ATOM     21  C   LIG    1       24.800 -22.387   7.166  0.00  0.00    +0.000 A 
ATOM     22  C   LIG    1       25.890 -23.255   7.118  0.00  0.00    +0.004 A 
ATOM     23  C   LIG    1       25.698 -24.617   6.847  0.00  0.00    +0.045 A 
ENDBRANCH  17  18
ENDBRANCH  16  17
ENDBRANCH  11  16
ENDBRANCH   1  12
BRANCH   5  24
ATOM     24  C   LIG    1       25.891 -30.900  13.727  0.00  0.00    +0.327 C 
ATOM     25  O   LIG    1       26.802 -31.699  13.560  0.00  0.00    -0.249 OA
BRANCH  24  26
ATOM     26  OXT LIG    1       25.219 -30.829  14.899  0.00  0.00    -0.479 OA
ATOM     27  HXT LIG    1       24.339 -30.424  14.785  0.00  0.00    +0.295 HD
ENDBRANCH  24  26
ENDBRANCH   5  24
TORSDOF 6
ENDMDL
MODEL 4
REMARK VINA RESULT:      -6.0      6.824      9.964
REMARK  Name = *****
REMARK                            x       y       z     vdW  Elec       q    Type
REMARK                         _______ _______ _______ _____ _____    ______ ____
ROOT
ATOM      1  CA  LIG    1       26.306 -20.249   8.112  0.00  0.00    +0.190 C 
ATOM      2  C   LIG    1       25.550 -20.614   6.804  0.00  0.00    +0.165 C 
ATOM      3  S   LIG    1       26.286 -21.880   5.713  0.00  0.00    -0.127 S 
ATOM      4  C   LIG    1       25.232 -23.276   6.298  0.00  0.00    +0.042 C 
ATOM      5  CA  LIG    1       24.092 -22.650   7.143  0.00  0.00    +0.201 C 
ATOM      6  C   LIG    1       26.099 -24.215   7.153  0.00  0.00    +0.025 C 
ATOM      7  C   LIG    1       24.802 -24.038   5.037  0.00  0.00    +0.025 C 
ATOM      8  N   LIG    1       24.560 -21.339   7.631  0.00  0.00    -0.271 N 
ATOM      9  C   LIG    1       25.360 -21.291   8.746  0.00  0.00    +0.240 C 
ATOM     10  O   LIG    1       25.359 -21.975   9.755  0.00  0.00    -0.273 OA
ENDROOT
BRANCH   1  12
ATOM     11  C   LIG    1       28.674 -19.785   7.420  0.00  0.00    +0.254 C 
ATOM     12  N   LIG    1       27.768 -20.530   8.168  0.00  0.00    -0.299 N 
ATOM     13  H   LIG    1       28.115 -21.246   8.796  0.00  0.00    +0.150 HD
ATOM     14  O   LIG    1       28.307 -18.823   6.749  0.00  0.00    -0.272 OA
BRANCH  11  16
ATOM     15  C   LIG    1       31.015 -19.462   6.576  0.00  0.00    +0.062 C 
ATOM     16  C   LIG    1       30.140 -20.259   7.550  0.00  0.00    +0.255 C 
BRANCH  16  17
ATOM     17  O   LIG    1       30.634 -20.142   8.889  0.00  0.00    -0.480 OA
BRANCH  17  18
ATOM     18  C   LIG    1       30.968 -18.869   9.292  0.00  0.00    +0.122 A 
ATOM     19  C   LIG    1       32.049 -18.143   8.784  0.00  0.00    +0.045 A 
ATOM     20  C   LIG    1       32.331 -16.858   9.244  0.00  0.00    +0.004 A 
ATOM     21  C   LIG    1       31.529 -16.280  10.219  0.00  0.00    +0.000 A 
ATOM     22  C   LIG    1       30.438 -16.985  10.724  0.00  0.00    +0.004 A 
ATOM     23  C   LIG    1       30.151 -18.274  10.256  0.00  0.00    +0.045 A 
ENDBRANCH  17  18
ENDBRANCH  16  17
ENDBRANCH  11  16
ENDBRANCH   1  12
BRANCH   5  24
ATOM     24  C   LIG    1       22.757 -22.539   6.395  0.00  0.00    +0.327 C 
ATOM     25  O   LIG    1       22.437 -21.572   5.717  0.00  0.00    -0.249 OA
BRANCH  24  26
ATOM     26  OXT LIG    1       21.933 -23.601   6.543  0.00  0.00    -0.479 OA
ATOM     27  HXT LIG    1       21.030 -23.404   6.226  0.00  0.00    +0.295 HD
ENDBRANCH  24  26
ENDBRANCH   5  24
TORSDOF 6
ENDMDL
MODEL 5
REMARK VINA RESULT:      -6.0      4.102      6.646
REMARK  Name = *****
REMARK                            x       y       z     vdW  Elec       q    Type
REMARK                         _______ _______ _______ _____ _____    ______ ____
ROOT
ATOM      1  CA  LIG    1       24.870 -24.285   5.151  0.00  0.00    +0.190 C 
ATOM      2  C   LIG    1       25.407 -25.704   4.818  0.00  0.00    +0.165 C 
ATOM      3  S   LIG    1       26.759 -26.373   5.847  0.00  0.00    -0.127 S 
ATOM      4  C   LIG    1       25.686 -27.414   6.926  0.00  0.00    +0.042 C 
ATOM      5  CA  LIG    1       24.287 -27.453   6.258  0.00  0.00    +0.201 C 
ATOM      6  C   LIG    1       25.613 -26.758   8.316  0.00  0.00    +0.025 C 
ATOM      7  C   LIG    1       26.408 -28.760   7.070  0.00  0.00    +0.025 C 
ATOM      8  N   LIG    1       24.165 -26.262   5.396  0.00  0.00    -0.271 N 
ATOM      9  C   LIG    1       23.815 -25.062   5.966  0.00  0.00    +0.240 C 
ATOM     10  O   LIG    1       23.061 -24.811   6.890  0.00  0.00    -0.273 OA
ENDROOT
BRANCH   1  12
ATOM     11  C   LIG    1       25.361 -22.079   6.243  0.00  0.00    +0.254 C 
ATOM     12  N   LIG    1       25.769 -23.362   5.900  0.00  0.00    -0.299 N 
ATOM     13  H   LIG    1       26.679 -23.692   6.205  0.00  0.00    +0.150 HD
ATOM     14  O   LIG    1       24.219 -21.689   6.008  0.00  0.00    -0.272 OA
BRANCH  11  16
ATOM     15  C   LIG    1       25.979 -20.919   8.382  0.00  0.00    +0.062 C 
ATOM     16  C   LIG    1       26.447 -21.241   6.957  0.00  0.00    +0.255 C 
BRANCH  16  17
ATOM     17  O   LIG    1       27.719 -21.899   6.977  0.00  0.00    -0.480 OA
BRANCH  17  18
ATOM     18  C   LIG    1       28.811 -21.081   7.148  0.00  0.00    +0.122 A 
ATOM     19  C   LIG    1       29.800 -21.283   8.114  0.00  0.00    +0.045 A 
ATOM     20  C   LIG    1       30.879 -20.408   8.233  0.00  0.00    +0.004 A 
ATOM     21  C   LIG    1       30.982 -19.317   7.380  0.00  0.00    +0.000 A 
ATOM     22  C   LIG    1       30.012 -19.111   6.400  0.00  0.00    +0.004 A 
ATOM     23  C   LIG    1       28.932 -19.996   6.278  0.00  0.00    +0.045 A 
ENDBRANCH  17  18
ENDBRANCH  16  17
ENDBRANCH  11  16
ENDBRANCH   1  12
BRANCH   5  24
ATOM     24  C   LIG    1       24.008 -28.750   5.485  0.00  0.00    +0.327 C 
ATOM     25  O   LIG    1       23.314 -29.660   5.915  0.00  0.00    -0.249 OA
BRANCH  24  26
ATOM     26  OXT LIG    1       24.600 -28.826   4.271  0.00  0.00    -0.479 OA
ATOM     27  HXT LIG    1       24.451 -28.017   3.746  0.00  0.00    +0.295 HD
ENDBRANCH  24  26
ENDBRANCH   5  24
TORSDOF 6
ENDMDL
MODEL 6
REMARK VINA RESULT:      -5.9      2.000      2.959
REMARK  Name = *****
REMARK                            x       y       z     vdW  Elec       q    Type
REMARK                         _______ _______ _______ _____ _____    ______ ____
ROOT
ATOM      1  CA  LIG    1       25.434 -28.882   5.900  0.00  0.00    +0.190 C 
ATOM      2  C   LIG    1       26.261 -29.652   6.967  0.00  0.00    +0.165 C 
ATOM      3  S   LIG    1       26.095 -29.144   8.713  0.00  0.00    -0.127 S 
ATOM      4  C   LIG    1       24.904 -30.468   9.188  0.00  0.00    +0.042 C 
ATOM      5  CA  LIG    1       24.884 -31.490   8.021  0.00  0.00    +0.201 C 
ATOM      6  C   LIG    1       23.519 -29.828   9.382  0.00  0.00    +0.025 C 
ATOM      7  C   LIG    1       25.380 -30.998  10.547  0.00  0.00    +0.025 C 
ATOM      8  N   LIG    1       25.331 -30.791   6.802  0.00  0.00    -0.271 N 
ATOM      9  C   LIG    1       24.425 -30.032   6.100  0.00  0.00    +0.240 C 
ATOM     10  O   LIG    1       23.235 -30.199   5.901  0.00  0.00    -0.273 OA
ENDROOT
BRANCH   1  12
ATOM     11  C   LIG    1       25.544 -26.388   5.637  0.00  0.00    +0.254 C 
ATOM     12  N   LIG    1       24.978 -27.505   6.240  0.00  0.00    -0.299 N 
ATOM     13  H   LIG    1       24.209 -27.381   6.890  0.00  0.00    +0.150 HD
ATOM     14  O   LIG    1       26.385 -26.502   4.748  0.00  0.00    -0.272 OA
BRANCH  11  16
ATOM     15  C   LIG    1       25.923 -24.511   7.260  0.00  0.00    +0.062 C 
ATOM     16  C   LIG    1       24.994 -25.041   6.160  0.00  0.00    +0.255 C 
BRANCH  16  17
ATOM     17  O   LIG    1       24.840 -24.072   5.117  0.00  0.00    -0.480 OA
BRANCH  17  18
ATOM     18  C   LIG    1       24.369 -22.841   5.511  0.00  0.00    +0.122 A 
ATOM     19  C   LIG    1       24.568 -21.658   4.794  0.00  0.00    +0.045 A 
ATOM     20  C   LIG    1       24.066 -20.443   5.258  0.00  0.00    +0.004 A 
ATOM     21  C   LIG    1       23.350 -20.399   6.447  0.00  0.00    +0.000 A 
ATOM     22  C   LIG    1       23.129 -21.573   7.166  0.00  0.00    +0.004 A 
ATOM     23  C   LIG    1       23.629 -22.794   6.695  0.00  0.00    +0.045 A 
ENDBRANCH  17  18
ENDBRANCH  16  17
ENDBRANCH  11  16
ENDBRANCH   1  12
BRANCH   5  24
ATOM     24  C   LIG    1       25.712 -32.753   8.293  0.00  0.00    +0.327 C 
ATOM     25  O   LIG    1       26.926 -32.812   8.150  0.00  0.00    -0.249 OA
BRANCH  24  26
ATOM     26  OXT LIG    1       24.996 -33.825   8.702  0.00  0.00    -0.479 OA
ATOM     27  HXT LIG    1       25.313 -34.650   8.287  0.00  0.00    +0.295 HD
ENDBRANCH  24  26
ENDBRANCH   5  24
TORSDOF 6
ENDMDL
MODEL 7
REMARK VINA RESULT:      -5.7      4.166      6.043
REMARK  Name = *****
REMARK                            x       y       z     vdW  Elec       q    Type
REMARK                         _______ _______ _______ _____ _____    ______ ____
ROOT
ATOM      1  CA  LIG    1       26.992 -30.317   9.656  0.00  0.00    +0.190 C 
ATOM      2  C   LIG    1       26.314 -31.638   9.198  0.00  0.00    +0.165 C 
ATOM      3  S   LIG    1       24.902 -32.261  10.175  0.00  0.00    -0.127 S 
ATOM      4  C   LIG    1       23.590 -31.609   9.056  0.00  0.00    +0.042 C 
ATOM      5  CA  LIG    1       24.299 -31.162   7.750  0.00  0.00    +0.201 C 
ATOM      6  C   LIG    1       22.910 -30.416   9.748  0.00  0.00    +0.025 C 
ATOM      7  C   LIG    1       22.556 -32.734   8.916  0.00  0.00    +0.025 C 
ATOM      8  N   LIG    1       25.711 -30.887   8.075  0.00  0.00    -0.271 N 
ATOM      9  C   LIG    1       26.043 -29.673   8.624  0.00  0.00    +0.240 C 
ATOM     10  O   LIG    1       25.585 -28.560   8.429  0.00  0.00    -0.273 OA
ENDROOT
BRANCH   1  12
ATOM     11  C   LIG    1       27.913 -29.480  11.836  0.00  0.00    +0.254 C 
ATOM     12  N   LIG    1       26.829 -29.913  11.081  0.00  0.00    -0.299 N 
ATOM     13  H   LIG    1       25.903 -29.909  11.495  0.00  0.00    +0.150 HD
ATOM     14  O   LIG    1       29.026 -29.343  11.333  0.00  0.00    -0.272 OA
BRANCH  11  16
ATOM     15  C   LIG    1       28.667 -29.741  14.216  0.00  0.00    +0.062 C 
ATOM     16  C   LIG    1       27.570 -29.167  13.311  0.00  0.00    +0.255 C 
BRANCH  16  17
ATOM     17  O   LIG    1       27.401 -27.764  13.546  0.00  0.00    -0.480 OA
BRANCH  17  18
ATOM     18  C   LIG    1       26.102 -27.314  13.555  0.00  0.00    +0.122 A 
ATOM     19  C   LIG    1       24.983 -28.143  13.436  0.00  0.00    +0.045 A 
ATOM     20  C   LIG    1       23.692 -27.616  13.448  0.00  0.00    +0.004 A 
ATOM     21  C   LIG    1       23.506 -26.246  13.584  0.00  0.00    +0.000 A 
ATOM     22  C   LIG    1       24.611 -25.407  13.720  0.00  0.00    +0.004 A 
ATOM     23  C   LIG    1       25.907 -25.940  13.715  0.00  0.00    +0.045 A 
ENDBRANCH  17  18
ENDBRANCH  16  17
ENDBRANCH  11  16
ENDBRANCH   1  12
BRANCH   5  24
ATOM     24  C   LIG    1       24.162 -32.167   6.598  0.00  0.00    +0.327 C 
ATOM     25  O   LIG    1       24.809 -33.202   6.520  0.00  0.00    -0.249 OA
BRANCH  24  26
ATOM     26  OXT LIG    1       23.263 -31.822   5.648  0.00  0.00    -0.479 OA
ATOM     27  HXT LIG    1       23.488 -30.968   5.233  0.00  0.00    +0.295 HD
ENDBRANCH  24  26
ENDBRANCH   5  24
TORSDOF 6
ENDMDL
MODEL 8
REMARK VINA RESULT:      -5.6      4.147      6.104
REMARK  Name = *****
REMARK                            x       y       z     vdW  Elec       q    Type
REMARK                         _______ _______ _______ _____ _____    ______ ____
ROOT
ATOM      1  CA  LIG    1       27.235 -28.623  11.157  0.00  0.00    +0.190 C 
ATOM      2  C   LIG    1       27.163 -30.174  11.096  0.00  0.00    +0.165 C 
ATOM      3  S   LIG    1       25.597 -30.980  11.577  0.00  0.00    -0.127 S 
ATOM      4  C   LIG    1       24.973 -31.232   9.861  0.00  0.00    +0.042 C 
ATOM      5  CA  LIG    1       26.162 -30.945   8.907  0.00  0.00    +0.201 C 
ATOM      6  C   LIG    1       23.819 -30.246   9.614  0.00  0.00    +0.025 C 
ATOM      7  C   LIG    1       24.401 -32.656   9.823  0.00  0.00    +0.025 C 
ATOM      8  N   LIG    1       27.111 -30.070   9.621  0.00  0.00    -0.271 N 
ATOM      9  C   LIG    1       26.868 -28.718   9.661  0.00  0.00    +0.240 C 
ATOM     10  O   LIG    1       26.380 -27.973   8.829  0.00  0.00    -0.273 OA
ENDROOT
BRANCH   1  12
ATOM     11  C   LIG    1       26.524 -27.788  13.415  0.00  0.00    +0.254 C 
ATOM     12  N   LIG    1       26.275 -27.921  12.054  0.00  0.00    -0.299 N 
ATOM     13  H   LIG    1       25.446 -27.491  11.658  0.00  0.00    +0.150 HD
ATOM     14  O   LIG    1       27.580 -28.178  13.910  0.00  0.00    -0.272 OA
BRANCH  11  16
ATOM     15  C   LIG    1       26.001 -26.087  15.185  0.00  0.00    +0.062 C 
ATOM     16  C   LIG    1       25.389 -27.091  14.200  0.00  0.00    +0.255 C 
BRANCH  16  17
ATOM     17  O   LIG    1       24.446 -26.445  13.337  0.00  0.00    -0.480 OA
BRANCH  17  18
ATOM     18  C   LIG    1       23.232 -27.077  13.201  0.00  0.00    +0.122 A 
ATOM     19  C   LIG    1       23.083 -28.448  12.974  0.00  0.00    +0.045 A 
ATOM     20  C   LIG    1       21.820 -29.022  12.839  0.00  0.00    +0.004 A 
ATOM     21  C   LIG    1       20.685 -28.226  12.936  0.00  0.00    +0.000 A 
ATOM     22  C   LIG    1       20.817 -26.860  13.178  0.00  0.00    +0.004 A 
ATOM     23  C   LIG    1       22.088 -26.286  13.319  0.00  0.00    +0.045 A 
ENDBRANCH  17  18
ENDBRANCH  16  17
ENDBRANCH  11  16
ENDBRANCH   1  12
BRANCH   5  24
ATOM     24  C   LIG    1       26.844 -32.211   8.371  0.00  0.00    +0.327 C 
ATOM     25  O   LIG    1       27.548 -32.943   9.053  0.00  0.00    -0.249 OA
BRANCH  24  26
ATOM     26  OXT LIG    1       26.617 -32.467   7.063  0.00  0.00    -0.479 OA
ATOM     27  HXT LIG    1       26.283 -31.679   6.594  0.00  0.00    +0.295 HD
ENDBRANCH  24  26
ENDBRANCH   5  24
TORSDOF 6
ENDMDL
MODEL 9
REMARK VINA RESULT:      -5.6      3.403      6.436
REMARK  Name = *****
REMARK                            x       y       z     vdW  Elec       q    Type
REMARK                         _______ _______ _______ _____ _____    ______ ____
ROOT
ATOM      1  CA  LIG    1       24.965 -32.160  10.241  0.00  0.00    +0.190 C 
ATOM      2  C   LIG    1       24.132 -31.845   8.968  0.00  0.00    +0.165 C 
ATOM      3  S   LIG    1       23.589 -30.122   8.703  0.00  0.00    -0.127 S 
ATOM      4  C   LIG    1       24.926 -29.679   7.512  0.00  0.00    +0.042 C 
ATOM      5  CA  LIG    1       25.616 -31.006   7.103  0.00  0.00    +0.201 C 
ATOM      6  C   LIG    1       25.916 -28.740   8.221  0.00  0.00    +0.025 C 
ATOM      7  C   LIG    1       24.244 -28.893   6.384  0.00  0.00    +0.025 C 
ATOM      8  N   LIG    1       25.371 -31.991   8.174  0.00  0.00    -0.271 N 
ATOM      9  C   LIG    1       26.167 -31.968   9.293  0.00  0.00    +0.240 C 
ATOM     10  O   LIG    1       27.352 -31.712   9.421  0.00  0.00    -0.273 OA
ENDROOT
BRANCH   1  12
ATOM     11  C   LIG    1       25.339 -31.562  12.650  0.00  0.00    +0.254 C 
ATOM     12  N   LIG    1       24.847 -31.225  11.395  0.00  0.00    -0.299 N 
ATOM     13  H   LIG    1       24.441 -30.306  11.252  0.00  0.00    +0.150 HD
ATOM     14  O   LIG    1       25.955 -32.610  12.832  0.00  0.00    -0.272 OA
BRANCH  11  16
ATOM     15  C   LIG    1       25.927 -30.813  14.973  0.00  0.00    +0.062 C 
ATOM     16  C   LIG    1       25.069 -30.501  13.741  0.00  0.00    +0.255 C 
BRANCH  16  17
ATOM     17  O   LIG    1       25.313 -29.168  13.277  0.00  0.00    -0.480 OA
BRANCH  17  18
ATOM     18  C   LIG    1       24.221 -28.331  13.265  0.00  0.00    +0.122 A 
ATOM     19  C   LIG    1       22.929 -28.732  12.913  0.00  0.00    +0.045 A 
ATOM     20  C   LIG    1       21.869 -27.827  12.916  0.00  0.00    +0.004 A 
ATOM     21  C   LIG    1       22.090 -26.505  13.279  0.00  0.00    +0.000 A 
ATOM     22  C   LIG    1       23.369 -26.093  13.648  0.00  0.00    +0.004 A 
ATOM     23  C   LIG    1       24.433 -27.006  13.650  0.00  0.00    +0.045 A 
ENDBRANCH  17  18
ENDBRANCH  16  17
ENDBRANCH  11  16
ENDBRANCH   1  12
BRANCH   5  24
ATOM     24  C   LIG    1       25.177 -31.534   5.730  0.00  0.00    +0.327 C 
ATOM     25  O   LIG    1       25.878 -31.485   4.729  0.00  0.00    -0.249 OA
BRANCH  24  26
ATOM     26  OXT LIG    1       23.932 -32.060   5.696  0.00  0.00    -0.479 OA
ATOM     27  HXT LIG    1       23.250 -31.367   5.606  0.00  0.00    +0.295 HD
ENDBRANCH  24  26
ENDBRANCH   5  24
TORSDOF 6
ENDMDL
