MODEL 1
REMARK VINA RESULT:      -6.9      0.000      0.000
REMARK  Name = *****
REMARK                            x       y       z     vdW  Elec       q    Type
REMARK                         _______ _______ _______ _____ _____    ______ ____
ROOT
ATOM      1  C   LIG    1       25.507 -24.442   6.742  0.00  0.00    +0.121 A 
ATOM      2  C   LIG    1       26.115 -23.261   7.168  0.00  0.00    +0.055 A 
ATOM      3  C   LIG    1       25.368 -22.086   7.388  0.00  0.00    +0.027 A 
ATOM      4  C   LIG    1       23.970 -22.137   7.212  0.00  0.00    +0.126 A 
ATOM      5  C   LIG    1       23.362 -23.318   6.782  0.00  0.00    +0.049 A 
ATOM      6  C   LIG    1       24.127 -24.461   6.542  0.00  0.00    +0.049 A 
ENDROOT
BRANCH   1   8
ATOM      7  C   LIG    1       25.752 -26.303   5.292  0.00  0.00    +0.277 C 
ATOM      8  O   LIG    1       26.143 -25.625   6.480  0.00  0.00    -0.495 OA
ENDBRANCH   1   8
BRANCH   4   9
ATOM      9  O   LIG    1       23.282 -20.968   7.419  0.00  0.00    -0.495 OA
ATOM     10  C   LIG    1       22.920 -20.253   6.242  0.00  0.00    +0.277 C 
ENDBRANCH   4   9
BRANCH   3  11
ATOM     11  C   LIG    1       26.055 -20.801   7.806  0.00  0.00    +0.165 C 
BRANCH  11  12
ATOM     12  C   LIG    1       27.563 -20.701   7.415  0.00  0.00    +0.081 C 
ATOM     13  C   LIG    1       27.829 -20.107   6.035  0.00  0.00    +0.027 C 
BRANCH  12  14
ATOM     14  N   LIG    1       28.264 -19.880   8.439  0.00  0.00    -0.325 NA
ATOM     15  H   LIG    1       27.610 -19.185   8.802  0.00  0.00    +0.118 HD
ATOM     16  H   LIG    1       28.484 -20.478   9.239  0.00  0.00    +0.118 HD
ENDBRANCH  12  14
ENDBRANCH  11  12
BRANCH  11  17
ATOM     17  O   LIG    1       25.983 -20.663   9.241  0.00  0.00    -0.386 OA
ATOM     18  H   LIG    1       26.916 -20.762   9.525  0.00  0.00    +0.210 HD
ENDBRANCH  11  17
ENDBRANCH   3  11
TORSDOF 6
ENDMDL
MODEL 2
REMARK VINA RESULT:      -6.7      2.591      4.649
REMARK  Name = *****
REMARK                            x       y       z     vdW  Elec       q    Type
REMARK                         _______ _______ _______ _____ _____    ______ ____
ROOT
ATOM      1  C   LIG    1       27.043 -20.724   7.596  0.00  0.00    +0.121 A 
ATOM      2  C   LIG    1       26.219 -20.364   6.531  0.00  0.00    +0.055 A 
ATOM      3  C   LIG    1       25.104 -21.146   6.167  0.00  0.00    +0.027 A 
ATOM      4  C   LIG    1       24.804 -22.289   6.937  0.00  0.00    +0.126 A 
ATOM      5  C   LIG    1       25.633 -22.650   8.001  0.00  0.00    +0.049 A 
ATOM      6  C   LIG    1       26.749 -21.877   8.324  0.00  0.00    +0.049 A 
ENDROOT
BRANCH   1   8
ATOM      7  C   LIG    1       29.412 -20.610   7.646  0.00  0.00    +0.277 C 
ATOM      8  O   LIG    1       28.158 -20.049   8.015  0.00  0.00    -0.495 OA
ENDBRANCH   1   8
BRANCH   4   9
ATOM      9  O   LIG    1       23.722 -23.032   6.538  0.00  0.00    -0.495 OA
ATOM     10  C   LIG    1       23.909 -24.444   6.550  0.00  0.00    +0.277 C 
ENDBRANCH   4   9
BRANCH   3  11
ATOM     11  C   LIG    1       24.247 -20.762   4.976  0.00  0.00    +0.165 C 
BRANCH  11  12
ATOM     12  C   LIG    1       22.799 -20.295   5.326  0.00  0.00    +0.081 C 
ATOM     13  C   LIG    1       22.382 -18.972   4.691  0.00  0.00    +0.027 C 
BRANCH  12  14
ATOM     14  N   LIG    1       21.845 -21.356   4.906  0.00  0.00    -0.325 NA
ATOM     15  H   LIG    1       21.045 -21.344   5.541  0.00  0.00    +0.118 HD
ATOM     16  H   LIG    1       21.460 -21.101   3.993  0.00  0.00    +0.118 HD
ENDBRANCH  12  14
ENDBRANCH  11  12
BRANCH  11  17
ATOM     17  O   LIG    1       24.120 -21.895   4.091  0.00  0.00    -0.386 OA
ATOM     18  H   LIG    1       24.925 -22.422   4.280  0.00  0.00    +0.210 HD
ENDBRANCH  11  17
ENDBRANCH   3  11
TORSDOF 6
ENDMDL
MODEL 3
REMARK VINA RESULT:      -6.5      2.735      4.547
REMARK  Name = *****
REMARK                            x       y       z     vdW  Elec       q    Type
REMARK                         _______ _______ _______ _____ _____    ______ ____
ROOT
ATOM      1  C   LIG    1       27.922 -21.260   7.701  0.00  0.00    +0.121 A 
ATOM      2  C   LIG    1       26.711 -21.899   7.960  0.00  0.00    +0.055 A 
ATOM      3  C   LIG    1       25.566 -21.654   7.174  0.00  0.00    +0.027 A 
ATOM      4  C   LIG    1       25.680 -20.776   6.077  0.00  0.00    +0.126 A 
ATOM      5  C   LIG    1       26.893 -20.133   5.820  0.00  0.00    +0.049 A 
ATOM      6  C   LIG    1       28.004 -20.368   6.631  0.00  0.00    +0.049 A 
ENDROOT
BRANCH   1   8
ATOM      7  C   LIG    1       30.155 -20.547   8.063  0.00  0.00    +0.277 C 
ATOM      8  O   LIG    1       29.081 -21.410   8.414  0.00  0.00    -0.495 OA
ENDBRANCH   1   8
BRANCH   4   9
ATOM      9  O   LIG    1       24.540 -20.551   5.349  0.00  0.00    -0.495 OA
ATOM     10  C   LIG    1       24.733 -20.341   3.953  0.00  0.00    +0.277 C 
ENDBRANCH   4   9
BRANCH   3  11
ATOM     11  C   LIG    1       24.246 -22.324   7.502  0.00  0.00    +0.165 C 
BRANCH  11  12
ATOM     12  C   LIG    1       23.778 -23.401   6.474  0.00  0.00    +0.081 C 
ATOM     13  C   LIG    1       24.562 -24.710   6.516  0.00  0.00    +0.027 C 
BRANCH  12  14
ATOM     14  N   LIG    1       22.339 -23.691   6.713  0.00  0.00    -0.325 NA
ATOM     15  H   LIG    1       22.157 -24.665   6.464  0.00  0.00    +0.118 HD
ATOM     16  H   LIG    1       22.162 -23.640   7.719  0.00  0.00    +0.118 HD
ENDBRANCH  12  14
ENDBRANCH  11  12
BRANCH  11  17
ATOM     17  O   LIG    1       23.205 -21.327   7.568  0.00  0.00    -0.386 OA
ATOM     18  H   LIG    1       23.458 -20.688   6.869  0.00  0.00    +0.210 HD
ENDBRANCH  11  17
ENDBRANCH   3  11
TORSDOF 6
ENDMDL
MODEL 4
REMARK VINA RESULT:      -6.3      2.314      4.460
REMARK  Name = *****
REMARK                            x       y       z     vdW  Elec       q    Type
REMARK                         _______ _______ _______ _____ _____    ______ ____
ROOT
ATOM      1  C   LIG    1       26.645 -21.840   8.010  0.00  0.00    +0.121 A 
ATOM      2  C   LIG    1       26.264 -22.978   7.301  0.00  0.00    +0.055 A 
ATOM      3  C   LIG    1       24.993 -23.078   6.698  0.00  0.00    +0.027 A 
ATOM      4  C   LIG    1       24.119 -21.975   6.786  0.00  0.00    +0.126 A 
ATOM      5  C   LIG    1       24.501 -20.837   7.500  0.00  0.00    +0.049 A 
ATOM      6  C   LIG    1       25.752 -20.773   8.114  0.00  0.00    +0.049 A 
ENDROOT
BRANCH   1   8
ATOM      7  C   LIG    1       28.913 -21.162   7.852  0.00  0.00    +0.277 C 
ATOM      8  O   LIG    1       27.841 -21.653   8.649  0.00  0.00    -0.495 OA
ENDBRANCH   1   8
BRANCH   4   9
ATOM      9  O   LIG    1       22.887 -22.120   6.201  0.00  0.00    -0.495 OA
ATOM     10  C   LIG    1       22.474 -21.044   5.364  0.00  0.00    +0.277 C 
ENDBRANCH   4   9
BRANCH   3  11
ATOM     11  C   LIG    1       24.581 -24.343   5.970  0.00  0.00    +0.165 C 
BRANCH  11  12
ATOM     12  C   LIG    1       25.314 -25.641   6.435  0.00  0.00    +0.081 C 
ATOM     13  C   LIG    1       24.451 -26.899   6.435  0.00  0.00    +0.027 C 
BRANCH  12  14
ATOM     14  N   LIG    1       26.491 -25.862   5.553  0.00  0.00    -0.325 NA
ATOM     15  H   LIG    1       26.335 -26.712   5.008  0.00  0.00    +0.118 HD
ATOM     16  H   LIG    1       26.523 -25.109   4.861  0.00  0.00    +0.118 HD
ENDBRANCH  12  14
ENDBRANCH  11  12
BRANCH  11  17
ATOM     17  O   LIG    1       24.846 -24.194   4.560  0.00  0.00    -0.386 OA
ATOM     18  H   LIG    1       25.622 -23.594   4.537  0.00  0.00    +0.210 HD
ENDBRANCH  11  17
ENDBRANCH   3  11
TORSDOF 6
ENDMDL
MODEL 5
REMARK VINA RESULT:      -6.2      2.063      3.445
REMARK  Name = *****
REMARK                            x       y       z     vdW  Elec       q    Type
REMARK                         _______ _______ _______ _____ _____    ______ ____
ROOT
ATOM      1  C   LIG    1       24.288 -25.371   6.433  0.00  0.00    +0.121 A 
ATOM      2  C   LIG    1       23.413 -24.285   6.431  0.00  0.00    +0.055 A 
ATOM      3  C   LIG    1       23.872 -22.969   6.641  0.00  0.00    +0.027 A 
ATOM      4  C   LIG    1       25.256 -22.760   6.809  0.00  0.00    +0.126 A 
ATOM      5  C   LIG    1       26.131 -23.848   6.816  0.00  0.00    +0.049 A 
ATOM      6  C   LIG    1       25.649 -25.145   6.636  0.00  0.00    +0.049 A 
ENDROOT
BRANCH   1   8
ATOM      7  C   LIG    1       24.856 -27.488   5.526  0.00  0.00    +0.277 C 
ATOM      8  O   LIG    1       23.941 -26.684   6.262  0.00  0.00    -0.495 OA
ENDBRANCH   1   8
BRANCH   4   9
ATOM      9  O   LIG    1       25.660 -21.467   7.029  0.00  0.00    -0.495 OA
ATOM     10  C   LIG    1       27.054 -21.224   6.869  0.00  0.00    +0.277 C 
ENDBRANCH   4   9
BRANCH   3  11
ATOM     11  C   LIG    1       22.897 -21.808   6.681  0.00  0.00    +0.165 C 
BRANCH  11  12
ATOM     12  C   LIG    1       22.671 -21.088   5.314  0.00  0.00    +0.081 C 
ATOM     13  C   LIG    1       22.621 -19.565   5.394  0.00  0.00    +0.027 C 
BRANCH  12  14
ATOM     14  N   LIG    1       23.759 -21.489   4.382  0.00  0.00    -0.325 NA
ATOM     15  H   LIG    1       23.337 -21.883   3.540  0.00  0.00    +0.118 HD
ATOM     16  H   LIG    1       24.240 -20.644   4.064  0.00  0.00    +0.118 HD
ENDBRANCH  12  14
ENDBRANCH  11  12
BRANCH  11  17
ATOM     17  O   LIG    1       23.377 -20.810   7.606  0.00  0.00    -0.386 OA
ATOM     18  H   LIG    1       23.678 -20.084   7.021  0.00  0.00    +0.210 HD
ENDBRANCH  11  17
ENDBRANCH   3  11
TORSDOF 6
ENDMDL
MODEL 6
REMARK VINA RESULT:      -6.2      2.534      3.634
REMARK  Name = *****
REMARK                            x       y       z     vdW  Elec       q    Type
REMARK                         _______ _______ _______ _____ _____    ______ ____
ROOT
ATOM      1  C   LIG    1       24.959 -24.043   5.736  0.00  0.00    +0.121 A 
ATOM      2  C   LIG    1       24.854 -22.800   5.113  0.00  0.00    +0.055 A 
ATOM      3  C   LIG    1       25.287 -21.619   5.749  0.00  0.00    +0.027 A 
ATOM      4  C   LIG    1       25.879 -21.721   7.024  0.00  0.00    +0.126 A 
ATOM      5  C   LIG    1       25.980 -22.965   7.649  0.00  0.00    +0.049 A 
ATOM      6  C   LIG    1       25.517 -24.117   7.013  0.00  0.00    +0.049 A 
ENDROOT
BRANCH   1   8
ATOM      7  C   LIG    1       24.412 -26.316   6.139  0.00  0.00    +0.277 C 
ATOM      8  O   LIG    1       24.549 -25.241   5.217  0.00  0.00    -0.495 OA
ENDBRANCH   1   8
BRANCH   4   9
ATOM      9  O   LIG    1       26.271 -20.547   7.616  0.00  0.00    -0.495 OA
ATOM     10  C   LIG    1       27.677 -20.356   7.730  0.00  0.00    +0.277 C 
ENDBRANCH   4   9
BRANCH   3  11
ATOM     11  C   LIG    1       25.121 -20.272   5.072  0.00  0.00    +0.165 C 
BRANCH  11  12
ATOM     12  C   LIG    1       23.713 -20.016   4.448  0.00  0.00    +0.081 C 
ATOM     13  C   LIG    1       22.585 -19.842   5.461  0.00  0.00    +0.027 C 
BRANCH  12  14
ATOM     14  N   LIG    1       23.788 -18.799   3.594  0.00  0.00    -0.325 NA
ATOM     15  H   LIG    1       23.710 -17.976   4.194  0.00  0.00    +0.118 HD
ATOM     16  H   LIG    1       24.726 -18.744   3.192  0.00  0.00    +0.118 HD
ENDBRANCH  12  14
ENDBRANCH  11  12
BRANCH  11  17
ATOM     17  O   LIG    1       26.082 -20.150   4.003  0.00  0.00    -0.386 OA
ATOM     18  H   LIG    1       26.904 -19.883   4.465  0.00  0.00    +0.210 HD
ENDBRANCH  11  17
ENDBRANCH   3  11
TORSDOF 6
ENDMDL
MODEL 7
REMARK VINA RESULT:      -6.0      2.679      4.682
REMARK  Name = *****
REMARK                            x       y       z     vdW  Elec       q    Type
REMARK                         _______ _______ _______ _____ _____    ______ ____
ROOT
ATOM      1  C   LIG    1       27.822 -21.333   7.444  0.00  0.00    +0.121 A 
ATOM      2  C   LIG    1       26.800 -22.253   7.217  0.00  0.00    +0.055 A 
ATOM      3  C   LIG    1       25.839 -22.052   6.205  0.00  0.00    +0.027 A 
ATOM      4  C   LIG    1       25.957 -20.912   5.384  0.00  0.00    +0.126 A 
ATOM      5  C   LIG    1       26.979 -19.988   5.615  0.00  0.00    +0.049 A 
ATOM      6  C   LIG    1       27.901 -20.194   6.642  0.00  0.00    +0.049 A 
ENDROOT
BRANCH   1   8
ATOM      7  C   LIG    1       30.028 -20.790   8.126  0.00  0.00    +0.277 C 
ATOM      8  O   LIG    1       28.787 -21.424   8.411  0.00  0.00    -0.495 OA
ENDBRANCH   1   8
BRANCH   4   9
ATOM      9  O   LIG    1       24.992 -20.743   4.424  0.00  0.00    -0.495 OA
ATOM     10  C   LIG    1       25.035 -19.505   3.722  0.00  0.00    +0.277 C 
ENDBRANCH   4   9
BRANCH   3  11
ATOM     11  C   LIG    1       24.708 -23.043   6.006  0.00  0.00    +0.165 C 
BRANCH  11  12
ATOM     12  C   LIG    1       23.571 -22.971   7.073  0.00  0.00    +0.081 C 
ATOM     13  C   LIG    1       23.101 -21.560   7.414  0.00  0.00    +0.027 C 
BRANCH  12  14
ATOM     14  N   LIG    1       22.411 -23.763   6.584  0.00  0.00    -0.325 NA
ATOM     15  H   LIG    1       21.683 -23.116   6.275  0.00  0.00    +0.118 HD
ATOM     16  H   LIG    1       22.695 -24.263   5.737  0.00  0.00    +0.118 HD
ENDBRANCH  12  14
ENDBRANCH  11  12
BRANCH  11  17
ATOM     17  O   LIG    1       25.235 -24.385   6.043  0.00  0.00    -0.386 OA
ATOM     18  H   LIG    1       26.202 -24.248   6.128  0.00  0.00    +0.210 HD
ENDBRANCH  11  17
ENDBRANCH   3  11
TORSDOF 6
ENDMDL
MODEL 8
REMARK VINA RESULT:      -6.0      1.820      3.966
REMARK  Name = *****
REMARK                            x       y       z     vdW  Elec       q    Type
REMARK                         _______ _______ _______ _____ _____    ______ ____
ROOT
ATOM      1  C   LIG    1       23.075 -20.824   5.599  0.00  0.00    +0.121 A 
ATOM      2  C   LIG    1       24.440 -20.550   5.676  0.00  0.00    +0.055 A 
ATOM      3  C   LIG    1       25.344 -21.469   6.247  0.00  0.00    +0.027 A 
ATOM      4  C   LIG    1       24.846 -22.706   6.703  0.00  0.00    +0.126 A 
ATOM      5  C   LIG    1       23.478 -22.979   6.629  0.00  0.00    +0.049 A 
ATOM      6  C   LIG    1       22.598 -22.041   6.087  0.00  0.00    +0.049 A 
ENDROOT
BRANCH   1   8
ATOM      7  C   LIG    1       22.579 -18.822   4.427  0.00  0.00    +0.277 C 
ATOM      8  O   LIG    1       22.115 -19.994   5.086  0.00  0.00    -0.495 OA
ENDBRANCH   1   8
BRANCH   4   9
ATOM      9  O   LIG    1       25.755 -23.564   7.268  0.00  0.00    -0.495 OA
ATOM     10  C   LIG    1       25.842 -24.851   6.664  0.00  0.00    +0.277 C 
ENDBRANCH   4   9
BRANCH   3  11
ATOM     11  C   LIG    1       26.818 -21.131   6.363  0.00  0.00    +0.165 C 
BRANCH  11  12
ATOM     12  C   LIG    1       27.223 -20.384   7.673  0.00  0.00    +0.081 C 
ATOM     13  C   LIG    1       26.183 -20.440   8.789  0.00  0.00    +0.027 C 
BRANCH  12  14
ATOM     14  N   LIG    1       28.500 -20.962   8.172  0.00  0.00    -0.325 NA
ATOM     15  H   LIG    1       29.241 -20.270   8.046  0.00  0.00    +0.118 HD
ATOM     16  H   LIG    1       28.425 -21.085   9.185  0.00  0.00    +0.118 HD
ENDBRANCH  12  14
ENDBRANCH  11  12
BRANCH  11  17
ATOM     17  O   LIG    1       27.204 -20.284   5.261  0.00  0.00    -0.386 OA
ATOM     18  H   LIG    1       27.675 -20.896   4.658  0.00  0.00    +0.210 HD
ENDBRANCH  11  17
ENDBRANCH   3  11
TORSDOF 6
ENDMDL
MODEL 9
REMARK VINA RESULT:      -5.9      2.919      5.243
REMARK  Name = *****
REMARK                            x       y       z     vdW  Elec       q    Type
REMARK                         _______ _______ _______ _____ _____    ______ ____
ROOT
ATOM      1  C   LIG    1       23.967 -20.497   4.730  0.00  0.00    +0.121 A 
ATOM      2  C   LIG    1       23.634 -21.736   5.276  0.00  0.00    +0.055 A 
ATOM      3  C   LIG    1       24.517 -22.425   6.133  0.00  0.00    +0.027 A 
ATOM      4  C   LIG    1       25.740 -21.810   6.471  0.00  0.00    +0.126 A 
ATOM      5  C   LIG    1       26.074 -20.572   5.921  0.00  0.00    +0.049 A 
ATOM      6  C   LIG    1       25.197 -19.923   5.051  0.00  0.00    +0.049 A 
ENDROOT
BRANCH   1   8
ATOM      7  C   LIG    1       22.338 -18.793   4.470  0.00  0.00    +0.277 C 
ATOM      8  O   LIG    1       23.193 -19.761   3.874  0.00  0.00    -0.495 OA
ENDBRANCH   1   8
BRANCH   4   9
ATOM      9  O   LIG    1       26.578 -22.521   7.292  0.00  0.00    -0.495 OA
ATOM     10  C   LIG    1       27.605 -21.764   7.925  0.00  0.00    +0.277 C 
ENDBRANCH   4   9
BRANCH   3  11
ATOM     11  C   LIG    1       24.154 -23.793   6.679  0.00  0.00    +0.165 C 
BRANCH  11  12
ATOM     12  C   LIG    1       24.783 -24.998   5.911  0.00  0.00    +0.081 C 
ATOM     13  C   LIG    1       25.820 -25.790   6.703  0.00  0.00    +0.027 C 
BRANCH  12  14
ATOM     14  N   LIG    1       23.690 -25.916   5.493  0.00  0.00    -0.325 NA
ATOM     15  H   LIG    1       23.830 -26.163   4.512  0.00  0.00    +0.118 HD
ATOM     16  H   LIG    1       23.794 -26.796   6.003  0.00  0.00    +0.118 HD
ENDBRANCH  12  14
ENDBRANCH  11  12
BRANCH  11  17
ATOM     17  O   LIG    1       22.722 -23.965   6.629  0.00  0.00    -0.386 OA
ATOM     18  H   LIG    1       22.379 -23.133   7.018  0.00  0.00    +0.210 HD
ENDBRANCH  11  17
ENDBRANCH   3  11
TORSDOF 6
ENDMDL
