MODEL 1
REMARK VINA RESULT:      -6.4      0.000      0.000
REMARK  Name = *****
REMARK                            x       y       z     vdW  Elec       q    Type
REMARK                         _______ _______ _______ _____ _____    ______ ____
ROOT
ATOM      1  C   LIG    1       24.000 -29.899   6.404  0.00  0.00    +0.112 C 
ATOM      2  C   LIG    1       24.591 -31.236   5.918  0.00  0.00    +0.101 C 
ATOM      3  N   LIG    1       25.929 -31.471   6.493  0.00  0.00    -0.297 NA
ATOM      4  C   LIG    1       26.588 -32.607   5.856  0.00  0.00    +0.105 C 
ATOM      5  C   LIG    1       25.889 -31.554   7.982  0.00  0.00    +0.091 C 
ATOM      6  C   LIG    1       24.952 -30.485   8.618  0.00  0.00    -0.025 C 
ATOM      7  C   LIG    1       24.929 -30.443  10.097  0.00  0.00    -0.011 C 
ATOM      8  C   LIG    1       25.227 -31.679  10.692  0.00  0.00    +0.011 C 
ATOM      9  C   LIG    1       25.566 -32.909  10.078  0.00  0.00    -0.020 C 
ATOM     10  C   LIG    1       25.763 -33.824  11.085  0.00  0.00    +0.090 C 
ATOM     11  N   LIG    1       25.540 -33.177  12.284  0.00  0.00    -0.349 NA
ATOM     12  C   LIG    1       25.624 -33.806  13.582  0.00  0.00    +0.149 C 
ATOM     13  C   LIG    1       25.218 -31.852  12.067  0.00  0.00    +0.050 C 
ATOM     14  C   LIG    1       24.911 -30.786  12.923  0.00  0.00    +0.026 C 
ATOM     15  C   LIG    1       24.613 -29.548  12.329  0.00  0.00    +0.003 C 
ATOM     16  C   LIG    1       24.617 -29.373  10.938  0.00  0.00    +0.009 C 
ATOM     17  C   LIG    1       25.649 -32.989   8.589  0.00  0.00    +0.060 C 
ATOM     18  C   LIG    1       24.121 -29.718   7.889  0.00  0.00    -0.007 C 
ENDROOT
BRANCH   1  21
ATOM     19  N   LIG    1       24.276 -27.462   6.194  0.00  0.00    -0.310 N 
ATOM     20  H   LIG    1       23.621 -27.454   6.977  0.00  0.00    +0.149 HD
ATOM     21  C   LIG    1       24.608 -28.694   5.677  0.00  0.00    +0.221 C 
ATOM     22  O   LIG    1       25.352 -28.822   4.715  0.00  0.00    -0.275 OA
BRANCH  19  23
ATOM     23  CA  LIG    1       24.833 -26.204   5.705  0.00  0.00    +0.098 C 
BRANCH  23  25
ATOM     24  C   LIG    1       24.778 -23.884   6.780  0.00  0.00    +0.005 C 
ATOM     25  C   LIG    1       23.968 -25.023   6.173  0.00  0.00    +0.021 C 
ENDBRANCH  23  25
BRANCH  23  26
ATOM     26  C   LIG    1       26.286 -26.009   6.207  0.00  0.00    +0.177 C 
BRANCH  26  27
ATOM     27  O   LIG    1       27.267 -26.655   5.400  0.00  0.00    -0.393 OA
ATOM     28  H   LIG    1       28.125 -26.579   5.856  0.00  0.00    +0.209 HD
ENDBRANCH  26  27
ENDBRANCH  23  26
ENDBRANCH  19  23
ENDBRANCH   1  21
TORSDOF 5
ENDMDL
MODEL 2
REMARK VINA RESULT:      -6.4      9.398     11.900
REMARK  Name = *****
REMARK                            x       y       z     vdW  Elec       q    Type
REMARK                         _______ _______ _______ _____ _____    ______ ____
ROOT
ATOM      1  C   LIG    1       29.094 -20.376   6.055  0.00  0.00    +0.112 C 
ATOM      2  C   LIG    1       28.709 -21.365   7.171  0.00  0.00    +0.101 C 
ATOM      3  N   LIG    1       27.598 -20.844   7.989  0.00  0.00    -0.297 NA
ATOM      4  C   LIG    1       27.390 -21.658   9.183  0.00  0.00    +0.105 C 
ATOM      5  C   LIG    1       26.362 -20.632   7.181  0.00  0.00    +0.091 C 
ATOM      6  C   LIG    1       26.656 -20.002   5.788  0.00  0.00    -0.025 C 
ATOM      7  C   LIG    1       25.473 -19.676   4.962  0.00  0.00    -0.011 C 
ATOM      8  C   LIG    1       24.363 -20.491   5.237  0.00  0.00    +0.011 C 
ATOM      9  C   LIG    1       24.229 -21.528   6.190  0.00  0.00    -0.020 C 
ATOM     10  C   LIG    1       22.954 -22.028   6.070  0.00  0.00    +0.090 C 
ATOM     11  N   LIG    1       22.326 -21.325   5.062  0.00  0.00    -0.349 NA
ATOM     12  C   LIG    1       20.974 -21.568   4.613  0.00  0.00    +0.149 C 
ATOM     13  C   LIG    1       23.172 -20.366   4.540  0.00  0.00    +0.050 C 
ATOM     14  C   LIG    1       23.028 -19.408   3.528  0.00  0.00    +0.026 C 
ATOM     15  C   LIG    1       24.137 -18.589   3.253  0.00  0.00    +0.003 C 
ATOM     16  C   LIG    1       25.345 -18.719   3.954  0.00  0.00    +0.009 C 
ATOM     17  C   LIG    1       25.381 -21.862   7.081  0.00  0.00    +0.060 C 
ATOM     18  C   LIG    1       27.902 -19.862   5.300  0.00  0.00    -0.007 C 
ENDROOT
BRANCH   1  21
ATOM     19  N   LIG    1       29.825 -18.957   7.929  0.00  0.00    -0.310 N 
ATOM     20  H   LIG    1       29.169 -19.539   8.451  0.00  0.00    +0.149 HD
ATOM     21  C   LIG    1       29.930 -19.203   6.578  0.00  0.00    +0.221 C 
ATOM     22  O   LIG    1       30.655 -18.543   5.847  0.00  0.00    -0.275 OA
BRANCH  19  23
ATOM     23  CA  LIG    1       30.617 -17.951   8.631  0.00  0.00    +0.098 C 
BRANCH  23  25
ATOM     24  C   LIG    1       30.821 -16.713  10.859  0.00  0.00    +0.005 C 
ATOM     25  C   LIG    1       29.947 -17.585   9.965  0.00  0.00    +0.021 C 
ENDBRANCH  23  25
BRANCH  23  26
ATOM     26  C   LIG    1       32.053 -18.465   8.899  0.00  0.00    +0.177 C 
BRANCH  26  27
ATOM     27  O   LIG    1       32.113 -19.836   9.282  0.00  0.00    -0.393 OA
ATOM     28  H   LIG    1       32.505 -20.336   8.542  0.00  0.00    +0.209 HD
ENDBRANCH  26  27
ENDBRANCH  23  26
ENDBRANCH  19  23
ENDBRANCH   1  21
TORSDOF 5
ENDMDL
MODEL 3
REMARK VINA RESULT:      -6.3      3.386      6.320
REMARK  Name = *****
REMARK                            x       y       z     vdW  Elec       q    Type
REMARK                         _______ _______ _______ _____ _____    ______ ____
ROOT
ATOM      1  C   LIG    1       27.138 -28.284  11.629  0.00  0.00    +0.112 C 
ATOM      2  C   LIG    1       26.990 -29.692  12.237  0.00  0.00    +0.101 C 
ATOM      3  N   LIG    1       25.646 -30.245  11.984  0.00  0.00    -0.297 NA
ATOM      4  C   LIG    1       25.420 -31.464  12.755  0.00  0.00    +0.105 C 
ATOM      5  C   LIG    1       25.368 -30.393  10.526  0.00  0.00    +0.091 C 
ATOM      6  C   LIG    1       25.873 -29.178   9.692  0.00  0.00    -0.025 C 
ATOM      7  C   LIG    1       25.554 -29.208   8.248  0.00  0.00    -0.011 C 
ATOM      8  C   LIG    1       25.417 -30.509   7.736  0.00  0.00    +0.011 C 
ATOM      9  C   LIG    1       25.512 -31.749   8.411  0.00  0.00    -0.020 C 
ATOM     10  C   LIG    1       25.306 -32.736   7.475  0.00  0.00    +0.090 C 
ATOM     11  N   LIG    1       25.103 -32.119   6.258  0.00  0.00    -0.349 NA
ATOM     12  C   LIG    1       24.875 -32.816   5.014  0.00  0.00    +0.149 C 
ATOM     13  C   LIG    1       25.158 -30.746   6.396  0.00  0.00    +0.050 C 
ATOM     14  C   LIG    1       25.016 -29.684   5.493  0.00  0.00    +0.026 C 
ATOM     15  C   LIG    1       25.151 -28.381   6.003  0.00  0.00    +0.003 C 
ATOM     16  C   LIG    1       25.419 -28.141   7.358  0.00  0.00    +0.009 C 
ATOM     17  C   LIG    1       25.785 -31.770   9.879  0.00  0.00    +0.060 C 
ATOM     18  C   LIG    1       26.650 -28.211  10.211  0.00  0.00    -0.007 C 
ENDROOT
BRANCH   1  21
ATOM     19  N   LIG    1       25.164 -27.492  12.866  0.00  0.00    -0.310 N 
ATOM     20  H   LIG    1       24.761 -28.363  12.519  0.00  0.00    +0.149 HD
ATOM     21  C   LIG    1       26.453 -27.207  12.477  0.00  0.00    +0.221 C 
ATOM     22  O   LIG    1       27.022 -26.174  12.802  0.00  0.00    -0.275 OA
BRANCH  19  23
ATOM     23  CA  LIG    1       24.382 -26.640  13.758  0.00  0.00    +0.098 C 
BRANCH  23  25
ATOM     24  C   LIG    1       22.451 -28.051  12.853  0.00  0.00    +0.005 C 
ATOM     25  C   LIG    1       22.895 -26.689  13.371  0.00  0.00    +0.021 C 
ENDBRANCH  23  25
BRANCH  23  26
ATOM     26  C   LIG    1       24.546 -27.084  15.233  0.00  0.00    +0.177 C 
BRANCH  26  27
ATOM     27  O   LIG    1       24.976 -28.435  15.384  0.00  0.00    -0.393 OA
ATOM     28  H   LIG    1       24.302 -29.009  14.977  0.00  0.00    +0.209 HD
ENDBRANCH  26  27
ENDBRANCH  23  26
ENDBRANCH  19  23
ENDBRANCH   1  21
TORSDOF 5
ENDMDL
MODEL 4
REMARK VINA RESULT:      -5.9      5.681      8.079
REMARK  Name = *****
REMARK                            x       y       z     vdW  Elec       q    Type
REMARK                         _______ _______ _______ _____ _____    ______ ____
ROOT
ATOM      1  C   LIG    1       21.162 -26.728  13.259  0.00  0.00    +0.112 C 
ATOM      2  C   LIG    1       22.539 -26.301  13.802  0.00  0.00    +0.101 C 
ATOM      3  N   LIG    1       23.249 -27.438  14.417  0.00  0.00    -0.297 NA
ATOM      4  C   LIG    1       24.437 -26.995  15.139  0.00  0.00    +0.105 C 
ATOM      5  C   LIG    1       23.513 -28.529  13.433  0.00  0.00    +0.091 C 
ATOM      6  C   LIG    1       22.302 -28.793  12.490  0.00  0.00    -0.025 C 
ATOM      7  C   LIG    1       22.452 -29.921  11.546  0.00  0.00    -0.011 C 
ATOM      8  C   LIG    1       23.788 -30.183  11.200  0.00  0.00    +0.011 C 
ATOM      9  C   LIG    1       24.969 -29.545  11.649  0.00  0.00    -0.020 C 
ATOM     10  C   LIG    1       26.026 -30.157  11.018  0.00  0.00    +0.090 C 
ATOM     11  N   LIG    1       25.507 -31.136  10.195  0.00  0.00    -0.349 NA
ATOM     12  C   LIG    1       26.298 -31.990   9.340  0.00  0.00    +0.149 C 
ATOM     13  C   LIG    1       24.131 -31.176  10.298  0.00  0.00    +0.050 C 
ATOM     14  C   LIG    1       23.146 -31.969   9.693  0.00  0.00    +0.026 C 
ATOM     15  C   LIG    1       21.809 -31.710  10.039  0.00  0.00    +0.003 C 
ATOM     16  C   LIG    1       21.460 -30.702  10.948  0.00  0.00    +0.009 C 
ATOM     17  C   LIG    1       24.872 -28.431  12.640  0.00  0.00    +0.060 C 
ATOM     18  C   LIG    1       21.226 -27.986  12.441  0.00  0.00    -0.007 C 
ENDROOT
BRANCH   1  21
ATOM     19  N   LIG    1       18.968 -27.547  14.015  0.00  0.00    -0.310 N 
ATOM     20  H   LIG    1       18.889 -27.840  13.041  0.00  0.00    +0.149 HD
ATOM     21  C   LIG    1       20.117 -26.877  14.370  0.00  0.00    +0.221 C 
ATOM     22  O   LIG    1       20.302 -26.447  15.499  0.00  0.00    -0.275 OA
BRANCH  19  23
ATOM     23  CA  LIG    1       17.902 -27.878  14.958  0.00  0.00    +0.098 C 
BRANCH  23  25
ATOM     24  C   LIG    1       15.775 -26.803  14.030  0.00  0.00    +0.005 C 
ATOM     25  C   LIG    1       16.900 -26.715  15.054  0.00  0.00    +0.021 C 
ENDBRANCH  23  25
BRANCH  23  26
ATOM     26  C   LIG    1       17.159 -29.165  14.524  0.00  0.00    +0.177 C 
BRANCH  26  27
ATOM     27  O   LIG    1       17.627 -29.716  13.295  0.00  0.00    -0.393 OA
ATOM     28  H   LIG    1       17.938 -30.622  13.475  0.00  0.00    +0.209 HD
ENDBRANCH  26  27
ENDBRANCH  23  26
ENDBRANCH  19  23
ENDBRANCH   1  21
TORSDOF 5
ENDMDL
MODEL 5
REMARK VINA RESULT:      -5.7      2.976      5.106
REMARK  Name = *****
REMARK                            x       y       z     vdW  Elec       q    Type
REMARK                         _______ _______ _______ _____ _____    ______ ____
ROOT
ATOM      1  C   LIG    1       26.004 -31.724   9.493  0.00  0.00    +0.112 C 
ATOM      2  C   LIG    1       26.740 -30.609  10.260  0.00  0.00    +0.101 C 
ATOM      3  N   LIG    1       26.051 -29.312  10.112  0.00  0.00    -0.297 NA
ATOM      4  C   LIG    1       26.865 -28.217  10.631  0.00  0.00    +0.105 C 
ATOM      5  C   LIG    1       24.666 -29.350  10.665  0.00  0.00    +0.091 C 
ATOM      6  C   LIG    1       23.915 -30.668  10.314  0.00  0.00    -0.025 C 
ATOM      7  C   LIG    1       22.503 -30.744  10.750  0.00  0.00    -0.011 C 
ATOM      8  C   LIG    1       22.230 -29.962  11.884  0.00  0.00    +0.011 C 
ATOM      9  C   LIG    1       23.096 -29.118  12.619  0.00  0.00    -0.020 C 
ATOM     10  C   LIG    1       22.360 -28.575  13.645  0.00  0.00    +0.090 C 
ATOM     11  N   LIG    1       21.080 -29.081  13.551  0.00  0.00    -0.349 NA
ATOM     12  C   LIG    1       20.006 -28.770  14.466  0.00  0.00    +0.149 C 
ATOM     13  C   LIG    1       20.974 -29.931  12.468  0.00  0.00    +0.050 C 
ATOM     14  C   LIG    1       19.917 -30.683  11.938  0.00  0.00    +0.026 C 
ATOM     15  C   LIG    1       20.187 -31.465  10.801  0.00  0.00    +0.003 C 
ATOM     16  C   LIG    1       21.460 -31.501  10.214  0.00  0.00    +0.009 C 
ATOM     17  C   LIG    1       24.520 -28.972  12.189  0.00  0.00    +0.060 C 
ATOM     18  C   LIG    1       24.525 -31.728   9.754  0.00  0.00    -0.007 C 
ENDROOT
BRANCH   1  21
ATOM     19  N   LIG    1       25.380 -30.916   7.254  0.00  0.00    -0.310 N 
ATOM     20  H   LIG    1       24.599 -30.504   7.765  0.00  0.00    +0.149 HD
ATOM     21  C   LIG    1       26.271 -31.669   7.985  0.00  0.00    +0.221 C 
ATOM     22  O   LIG    1       27.222 -32.239   7.471  0.00  0.00    -0.275 OA
BRANCH  19  23
ATOM     23  CA  LIG    1       25.523 -30.659   5.823  0.00  0.00    +0.098 C 
BRANCH  23  25
ATOM     24  C   LIG    1       26.100 -32.410   4.051  0.00  0.00    +0.005 C 
ATOM     25  C   LIG    1       25.047 -31.877   5.015  0.00  0.00    +0.021 C 
ENDBRANCH  23  25
BRANCH  23  26
ATOM     26  C   LIG    1       24.710 -29.410   5.400  0.00  0.00    +0.177 C 
BRANCH  26  27
ATOM     27  O   LIG    1       23.298 -29.602   5.436  0.00  0.00    -0.393 OA
ATOM     28  H   LIG    1       22.990 -29.377   6.333  0.00  0.00    +0.209 HD
ENDBRANCH  26  27
ENDBRANCH  23  26
ENDBRANCH  19  23
ENDBRANCH   1  21
TORSDOF 5
ENDMDL
MODEL 6
REMARK VINA RESULT:      -5.6      3.126      6.429
REMARK  Name = *****
REMARK                            x       y       z     vdW  Elec       q    Type
REMARK                         _______ _______ _______ _____ _____    ______ ____
ROOT
ATOM      1  C   LIG    1       25.988 -29.275  11.620  0.00  0.00    +0.112 C 
ATOM      2  C   LIG    1       26.079 -30.791  11.877  0.00  0.00    +0.101 C 
ATOM      3  N   LIG    1       24.951 -31.509  11.254  0.00  0.00    -0.297 NA
ATOM      4  C   LIG    1       24.901 -32.900  11.691  0.00  0.00    +0.105 C 
ATOM      5  C   LIG    1       24.936 -31.342   9.771  0.00  0.00    +0.091 C 
ATOM      6  C   LIG    1       25.265 -29.885   9.327  0.00  0.00    -0.025 C 
ATOM      7  C   LIG    1       25.180 -29.617   7.875  0.00  0.00    -0.011 C 
ATOM      8  C   LIG    1       25.423 -30.753   7.086  0.00  0.00    +0.011 C 
ATOM      9  C   LIG    1       25.701 -32.080   7.490  0.00  0.00    -0.020 C 
ATOM     10  C   LIG    1       25.869 -32.826   6.347  0.00  0.00    +0.090 C 
ATOM     11  N   LIG    1       25.712 -31.977   5.270  0.00  0.00    -0.349 NA
ATOM     12  C   LIG    1       25.838 -32.375   3.887  0.00  0.00    +0.149 C 
ATOM     13  C   LIG    1       25.428 -30.696   5.701  0.00  0.00    +0.050 C 
ATOM     14  C   LIG    1       25.181 -29.490   5.031  0.00  0.00    +0.026 C 
ATOM     15  C   LIG    1       24.935 -28.353   5.819  0.00  0.00    +0.003 C 
ATOM     16  C   LIG    1       24.936 -28.408   7.220  0.00  0.00    +0.009 C 
ATOM     17  C   LIG    1       25.749 -32.411   8.946  0.00  0.00    +0.060 C 
ATOM     18  C   LIG    1       25.712 -28.947  10.181  0.00  0.00    -0.007 C 
ENDROOT
BRANCH   1  21
ATOM     19  N   LIG    1       23.783 -29.288  12.713  0.00  0.00    -0.310 N 
ATOM     20  H   LIG    1       23.683 -30.167  12.204  0.00  0.00    +0.149 HD
ATOM     21  C   LIG    1       24.955 -28.591  12.522  0.00  0.00    +0.221 C 
ATOM     22  O   LIG    1       25.167 -27.509  13.050  0.00  0.00    -0.275 OA
BRANCH  19  23
ATOM     23  CA  LIG    1       22.722 -28.851  13.617  0.00  0.00    +0.098 C 
BRANCH  23  25
ATOM     24  C   LIG    1       21.734 -26.519  13.258  0.00  0.00    +0.005 C 
ATOM     25  C   LIG    1       21.700 -27.989  12.857  0.00  0.00    +0.021 C 
ENDBRANCH  23  25
BRANCH  23  26
ATOM     26  C   LIG    1       22.000 -30.065  14.252  0.00  0.00    +0.177 C 
BRANCH  26  27
ATOM     27  O   LIG    1       22.331 -31.313  13.649  0.00  0.00    -0.393 OA
ATOM     28  H   LIG    1       22.836 -31.127  12.837  0.00  0.00    +0.209 HD
ENDBRANCH  26  27
ENDBRANCH  23  26
ENDBRANCH  19  23
ENDBRANCH   1  21
TORSDOF 5
ENDMDL
MODEL 7
REMARK VINA RESULT:      -5.6      3.356      5.652
REMARK  Name = *****
REMARK                            x       y       z     vdW  Elec       q    Type
REMARK                         _______ _______ _______ _____ _____    ______ ____
ROOT
ATOM      1  C   LIG    1       24.254 -31.679  11.001  0.00  0.00    +0.112 C 
ATOM      2  C   LIG    1       25.770 -31.407  10.964  0.00  0.00    +0.101 C 
ATOM      3  N   LIG    1       26.061 -30.061  10.437  0.00  0.00    -0.297 NA
ATOM      4  C   LIG    1       27.487 -29.889  10.176  0.00  0.00    +0.105 C 
ATOM      5  C   LIG    1       25.470 -28.988  11.290  0.00  0.00    +0.091 C 
ATOM      6  C   LIG    1       24.032 -29.333  11.778  0.00  0.00    -0.025 C 
ATOM      7  C   LIG    1       23.342 -28.279  12.554  0.00  0.00    -0.011 C 
ATOM      8  C   LIG    1       24.224 -27.432  13.245  0.00  0.00    +0.011 C 
ATOM      9  C   LIG    1       25.639 -27.440  13.267  0.00  0.00    -0.020 C 
ATOM     10  C   LIG    1       26.038 -26.417  14.094  0.00  0.00    +0.090 C 
ATOM     11  N   LIG    1       24.899 -25.805  14.576  0.00  0.00    -0.349 NA
ATOM     12  C   LIG    1       24.894 -24.694  15.500  0.00  0.00    +0.149 C 
ATOM     13  C   LIG    1       23.769 -26.408  14.059  0.00  0.00    +0.050 C 
ATOM     14  C   LIG    1       22.397 -26.174  14.220  0.00  0.00    +0.026 C 
ATOM     15  C   LIG    1       21.513 -27.019  13.528  0.00  0.00    +0.003 C 
ATOM     16  C   LIG    1       21.972 -28.060  12.709  0.00  0.00    +0.009 C 
ATOM     17  C   LIG    1       26.382 -28.455  12.461  0.00  0.00    +0.060 C 
ATOM     18  C   LIG    1       23.478 -30.548  11.614  0.00  0.00    -0.007 C 
ENDROOT
BRANCH   1  21
ATOM     19  N   LIG    1       24.349 -31.446   8.553  0.00  0.00    -0.310 N 
ATOM     20  H   LIG    1       25.121 -30.816   8.775  0.00  0.00    +0.149 HD
ATOM     21  C   LIG    1       23.688 -32.015   9.618  0.00  0.00    +0.221 C 
ATOM     22  O   LIG    1       22.725 -32.755   9.471  0.00  0.00    -0.275 OA
BRANCH  19  23
ATOM     23  CA  LIG    1       24.025 -31.727   7.157  0.00  0.00    +0.098 C 
BRANCH  23  25
ATOM     24  C   LIG    1       24.421 -29.201   7.134  0.00  0.00    +0.005 C 
ATOM     25  C   LIG    1       24.210 -30.461   6.304  0.00  0.00    +0.021 C 
ENDBRANCH  23  25
BRANCH  23  26
ATOM     26  C   LIG    1       24.919 -32.861   6.597  0.00  0.00    +0.177 C 
BRANCH  26  27
ATOM     27  O   LIG    1       26.238 -32.441   6.257  0.00  0.00    -0.393 OA
ATOM     28  H   LIG    1       26.840 -32.750   6.959  0.00  0.00    +0.209 HD
ENDBRANCH  26  27
ENDBRANCH  23  26
ENDBRANCH  19  23
ENDBRANCH   1  21
TORSDOF 5
ENDMDL
MODEL 8
REMARK VINA RESULT:      -5.5      7.861     11.143
REMARK  Name = *****
REMARK                            x       y       z     vdW  Elec       q    Type
REMARK                         _______ _______ _______ _____ _____    ______ ____
ROOT
ATOM      1  C   LIG    1       29.281 -19.772   6.151  0.00  0.00    +0.112 C 
ATOM      2  C   LIG    1       29.711 -20.969   7.021  0.00  0.00    +0.101 C 
ATOM      3  N   LIG    1       28.828 -21.125   8.192  0.00  0.00    -0.297 NA
ATOM      4  C   LIG    1       29.368 -22.096   9.138  0.00  0.00    +0.105 C 
ATOM      5  C   LIG    1       27.415 -21.391   7.794  0.00  0.00    +0.091 C 
ATOM      6  C   LIG    1       26.955 -20.515   6.591  0.00  0.00    -0.025 C 
ATOM      7  C   LIG    1       25.537 -20.654   6.194  0.00  0.00    -0.011 C 
ATOM      8  C   LIG    1       24.996 -21.913   6.501  0.00  0.00    +0.011 C 
ATOM      9  C   LIG    1       25.606 -23.016   7.146  0.00  0.00    -0.020 C 
ATOM     10  C   LIG    1       24.668 -24.019   7.209  0.00  0.00    +0.090 C 
ATOM     11  N   LIG    1       23.518 -23.550   6.608  0.00  0.00    -0.349 NA
ATOM     12  C   LIG    1       22.304 -24.318   6.451  0.00  0.00    +0.149 C 
ATOM     13  C   LIG    1       23.693 -22.252   6.173  0.00  0.00    +0.050 C 
ATOM     14  C   LIG    1       22.857 -21.336   5.519  0.00  0.00    +0.026 C 
ATOM     15  C   LIG    1       23.395 -20.075   5.213  0.00  0.00    +0.003 C 
ATOM     16  C   LIG    1       24.716 -19.734   5.540  0.00  0.00    +0.009 C 
ATOM     17  C   LIG    1       27.023 -22.906   7.608  0.00  0.00    +0.060 C 
ATOM     18  C   LIG    1       27.806 -19.760   5.872  0.00  0.00    -0.007 C 
ENDROOT
BRANCH   1  21
ATOM     19  N   LIG    1       30.068 -18.462   8.080  0.00  0.00    -0.310 N 
ATOM     20  H   LIG    1       29.967 -19.357   8.561  0.00  0.00    +0.149 HD
ATOM     21  C   LIG    1       29.713 -18.430   6.750  0.00  0.00    +0.221 C 
ATOM     22  O   LIG    1       29.758 -17.405   6.086  0.00  0.00    -0.275 OA
BRANCH  19  23
ATOM     23  CA  LIG    1       30.603 -17.311   8.802  0.00  0.00    +0.098 C 
BRANCH  23  25
ATOM     24  C   LIG    1       31.068 -16.761  11.256  0.00  0.00    +0.005 C 
ATOM     25  C   LIG    1       30.061 -17.288  10.241  0.00  0.00    +0.021 C 
ENDBRANCH  23  25
BRANCH  23  26
ATOM     26  C   LIG    1       32.151 -17.347   8.834  0.00  0.00    +0.177 C 
BRANCH  26  27
ATOM     27  O   LIG    1       32.760 -16.065   8.704  0.00  0.00    -0.393 OA
ATOM     28  H   LIG    1       32.052 -15.412   8.557  0.00  0.00    +0.209 HD
ENDBRANCH  26  27
ENDBRANCH  23  26
ENDBRANCH  19  23
ENDBRANCH   1  21
TORSDOF 5
ENDMDL
MODEL 9
REMARK VINA RESULT:      -5.3      3.909      6.728
REMARK  Name = *****
REMARK                            x       y       z     vdW  Elec       q    Type
REMARK                         _______ _______ _______ _____ _____    ______ ____
ROOT
ATOM      1  C   LIG    1       24.026 -30.041  12.088  0.00  0.00    +0.112 C 
ATOM      2  C   LIG    1       23.322 -31.403  12.234  0.00  0.00    +0.101 C 
ATOM      3  N   LIG    1       22.207 -31.534  11.276  0.00  0.00    -0.297 NA
ATOM      4  C   LIG    1       21.393 -32.710  11.568  0.00  0.00    +0.105 C 
ATOM      5  C   LIG    1       22.675 -31.460   9.861  0.00  0.00    +0.091 C 
ATOM      6  C   LIG    1       23.755 -30.359   9.643  0.00  0.00    -0.025 C 
ATOM      7  C   LIG    1       24.204 -30.162   8.248  0.00  0.00    -0.011 C 
ATOM      8  C   LIG    1       24.091 -31.318   7.459  0.00  0.00    +0.011 C 
ATOM      9  C   LIG    1       23.590 -32.595   7.810  0.00  0.00    -0.020 C 
ATOM     10  C   LIG    1       23.693 -33.392   6.694  0.00  0.00    +0.090 C 
ATOM     11  N   LIG    1       24.251 -32.629   5.689  0.00  0.00    -0.349 NA
ATOM     12  C   LIG    1       24.546 -33.113   4.360  0.00  0.00    +0.149 C 
ATOM     13  C   LIG    1       24.497 -31.345   6.135  0.00  0.00    +0.050 C 
ATOM     14  C   LIG    1       25.037 -30.204   5.526  0.00  0.00    +0.026 C 
ATOM     15  C   LIG    1       25.150 -29.045   6.313  0.00  0.00    +0.003 C 
ATOM     16  C   LIG    1       24.744 -29.019   7.655  0.00  0.00    +0.009 C 
ATOM     17  C   LIG    1       23.081 -32.830   9.195  0.00  0.00    +0.060 C 
ATOM     18  C   LIG    1       24.339 -29.700  10.660  0.00  0.00    -0.007 C 
ENDROOT
BRANCH   1  21
ATOM     19  N   LIG    1       21.932 -29.200  13.068  0.00  0.00    -0.310 N 
ATOM     20  H   LIG    1       21.593 -30.127  12.809  0.00  0.00    +0.149 HD
ATOM     21  C   LIG    1       23.235 -28.902  12.739  0.00  0.00    +0.221 C 
ATOM     22  O   LIG    1       23.734 -27.809  12.967  0.00  0.00    -0.275 OA
BRANCH  19  23
ATOM     23  CA  LIG    1       21.050 -28.283  13.786  0.00  0.00    +0.098 C 
BRANCH  23  25
ATOM     24  C   LIG    1       19.499 -26.280  13.429  0.00  0.00    +0.005 C 
ATOM     25  C   LIG    1       20.651 -27.110  12.875  0.00  0.00    +0.021 C 
ENDBRANCH  23  25
BRANCH  23  26
ATOM     26  C   LIG    1       19.774 -29.011  14.277  0.00  0.00    +0.177 C 
BRANCH  26  27
ATOM     27  O   LIG    1       19.080 -29.714  13.250  0.00  0.00    -0.393 OA
ATOM     28  H   LIG    1       19.605 -30.503  13.022  0.00  0.00    +0.209 HD
ENDBRANCH  26  27
ENDBRANCH  23  26
ENDBRANCH  19  23
ENDBRANCH   1  21
TORSDOF 5
ENDMDL
