MODEL 1
REMARK VINA RESULT:      -7.1      0.000      0.000
REMARK  Name = *****
REMARK                            x       y       z     vdW  Elec       q    Type
REMARK                         _______ _______ _______ _____ _____    ______ ____
ROOT
ATOM      1  N   LIG    1       24.454 -23.550   7.089  0.00  0.00    -0.297 N 
ATOM      2  C   LIG    1       23.456 -24.543   6.638  0.00  0.00    +0.127 C 
ATOM      3  C   LIG    1       24.042 -25.431   5.516  0.00  0.00    +0.127 C 
ATOM      4  N   LIG    1       25.283 -26.062   5.988  0.00  0.00    -0.295 N 
ATOM      5  C   LIG    1       25.300 -27.290   6.671  0.00  0.00    +0.260 C 
ATOM      6  O   LIG    1       26.194 -27.549   7.472  0.00  0.00    -0.271 OA
ATOM      7  C   LIG    1       26.297 -25.056   6.364  0.00  0.00    +0.127 C 
ATOM      8  C   LIG    1       25.753 -24.141   7.486  0.00  0.00    +0.127 C 
ENDROOT
BRANCH   1  15
ATOM      9  C   LIG    1       27.206 -18.850   4.669  0.00  0.00    +0.164 A 
ATOM     10  C   LIG    1       26.165 -18.414   3.835  0.00  0.00    +0.162 A 
ATOM     11  C   LIG    1       24.948 -19.098   3.851  0.00  0.00    +0.062 A 
ATOM     12  C   LIG    1       24.775 -20.239   4.662  0.00  0.00    +0.044 A 
ATOM     13  C   LIG    1       25.813 -20.677   5.474  0.00  0.00    +0.082 A 
ATOM     14  N   LIG    1       25.701 -21.745   6.259  0.00  0.00    -0.214 NA
ATOM     15  C   LIG    1       24.544 -22.422   6.279  0.00  0.00    +0.220 A 
ATOM     16  N   LIG    1       23.487 -22.067   5.539  0.00  0.00    -0.199 NA
ATOM     17  C   LIG    1       23.613 -21.007   4.737  0.00  0.00    +0.129 A 
ATOM     18  C   LIG    1       27.013 -19.982   5.468  0.00  0.00    +0.078 A 
BRANCH  17  19
ATOM     19  N   LIG    1       22.478 -20.713   3.970  0.00  0.00    -0.343 N 
ATOM     20  H   LIG    1       22.724 -20.617   2.991  0.00  0.00    +0.144 HD
ATOM     21  H   LIG    1       21.835 -21.491   4.104  0.00  0.00    +0.144 HD
ENDBRANCH  17  19
BRANCH   9  23
ATOM     22  C   LIG    1       29.341 -18.441   5.631  0.00  0.00    +0.277 C 
ATOM     23  O   LIG    1       28.396 -18.168   4.602  0.00  0.00    -0.491 OA
ENDBRANCH   9  23
BRANCH  10  24
ATOM     24  O   LIG    1       26.380 -17.281   3.092  0.00  0.00    -0.491 OA
ATOM     25  C   LIG    1       25.607 -16.142   3.456  0.00  0.00    +0.277 C 
ENDBRANCH  10  24
ENDBRANCH   1  15
BRANCH   5  26
ATOM     26  C   LIG    1       24.237 -28.360   6.266  0.00  0.00    +0.296 C 
ATOM     27  O   LIG    1       23.678 -29.143   7.321  0.00  0.00    -0.472 OA
ATOM     28  C   LIG    1       24.503 -30.166   7.695  0.00  0.00    +0.163 A 
ATOM     29  C   LIG    1       25.500 -30.671   6.864  0.00  0.00    +0.162 A 
ATOM     30  C   LIG    1       26.365 -31.652   7.335  0.00  0.00    +0.049 A 
ATOM     31  C   LIG    1       26.231 -32.132   8.638  0.00  0.00    +0.004 A 
ATOM     32  C   LIG    1       25.202 -31.660   9.454  0.00  0.00    +0.004 A 
ATOM     33  O   LIG    1       25.707 -30.236   5.586  0.00  0.00    -0.484 OA
ATOM     34  C   LIG    1       24.324 -30.687   8.975  0.00  0.00    +0.049 A 
ATOM     35  C   LIG    1       24.721 -29.292   5.150  0.00  0.00    +0.283 C 
ENDBRANCH   5  26
TORSDOF 5
ENDMDL
MODEL 2
REMARK VINA RESULT:      -6.7      3.205      9.797
REMARK  Name = *****
REMARK                            x       y       z     vdW  Elec       q    Type
REMARK                         _______ _______ _______ _____ _____    ______ ____
ROOT
ATOM      1  N   LIG    1       26.278 -21.423   7.989  0.00  0.00    -0.297 N 
ATOM      2  C   LIG    1       27.544 -21.788   8.658  0.00  0.00    +0.127 C 
ATOM      3  C   LIG    1       28.681 -21.942   7.621  0.00  0.00    +0.127 C 
ATOM      4  N   LIG    1       28.801 -20.705   6.837  0.00  0.00    -0.295 N 
ATOM      5  C   LIG    1       29.607 -19.626   7.237  0.00  0.00    +0.260 C 
ATOM      6  O   LIG    1       29.328 -18.478   6.901  0.00  0.00    -0.271 OA
ATOM      7  C   LIG    1       27.551 -20.395   6.115  0.00  0.00    +0.127 C 
ATOM      8  C   LIG    1       26.381 -20.232   7.114  0.00  0.00    +0.127 C 
ENDROOT
BRANCH   1  15
ATOM      9  C   LIG    1       25.789 -26.886   5.658  0.00  0.00    +0.164 A 
ATOM     10  C   LIG    1       24.395 -26.916   5.503  0.00  0.00    +0.162 A 
ATOM     11  C   LIG    1       23.646 -25.791   5.858  0.00  0.00    +0.062 A 
ATOM     12  C   LIG    1       24.274 -24.653   6.406  0.00  0.00    +0.044 A 
ATOM     13  C   LIG    1       25.653 -24.634   6.571  0.00  0.00    +0.082 A 
ATOM     14  N   LIG    1       26.294 -23.585   7.079  0.00  0.00    -0.214 NA
ATOM     15  C   LIG    1       25.592 -22.500   7.437  0.00  0.00    +0.220 A 
ATOM     16  N   LIG    1       24.263 -22.425   7.304  0.00  0.00    -0.199 NA
ATOM     17  C   LIG    1       23.622 -23.489   6.813  0.00  0.00    +0.129 A 
ATOM     18  C   LIG    1       26.393 -25.746   6.199  0.00  0.00    +0.078 A 
BRANCH  17  19
ATOM     19  N   LIG    1       22.230 -23.351   6.730  0.00  0.00    -0.343 N 
ATOM     20  H   LIG    1       21.809 -23.418   7.650  0.00  0.00    +0.144 HD
ATOM     21  H   LIG    1       22.060 -22.433   6.323  0.00  0.00    +0.144 HD
ENDBRANCH  17  19
BRANCH   9  23
ATOM     22  C   LIG    1       27.475 -27.883   4.310  0.00  0.00    +0.277 C 
ATOM     23  O   LIG    1       26.485 -28.022   5.324  0.00  0.00    -0.491 OA
ENDBRANCH   9  23
BRANCH  10  24
ATOM     24  O   LIG    1       23.843 -28.037   4.938  0.00  0.00    -0.491 OA
ATOM     25  C   LIG    1       23.871 -29.215   5.737  0.00  0.00    +0.277 C 
ENDBRANCH  10  24
ENDBRANCH   1  15
BRANCH   5  26
ATOM     26  C   LIG    1       30.936 -19.953   7.990  0.00  0.00    +0.296 C 
ATOM     27  O   LIG    1       30.915 -19.830   9.412  0.00  0.00    -0.472 OA
ATOM     28  C   LIG    1       31.053 -18.533   9.819  0.00  0.00    +0.163 A 
ATOM     29  C   LIG    1       31.615 -17.547   9.012  0.00  0.00    +0.162 A 
ATOM     30  C   LIG    1       31.646 -16.227   9.449  0.00  0.00    +0.049 A 
ATOM     31  C   LIG    1       31.118 -15.894  10.696  0.00  0.00    +0.004 A 
ATOM     32  C   LIG    1       30.599 -16.890  11.524  0.00  0.00    +0.004 A 
ATOM     33  O   LIG    1       32.131 -17.792   7.772  0.00  0.00    -0.484 OA
ATOM     34  C   LIG    1       30.582 -18.216  11.092  0.00  0.00    +0.049 A 
ATOM     35  C   LIG    1       32.141 -19.185   7.436  0.00  0.00    +0.283 C 
ENDBRANCH   5  26
TORSDOF 5
ENDMDL
MODEL 3
REMARK VINA RESULT:      -6.6      2.656     10.211
REMARK  Name = *****
REMARK                            x       y       z     vdW  Elec       q    Type
REMARK                         _______ _______ _______ _____ _____    ______ ____
ROOT
ATOM      1  N   LIG    1       23.911 -26.835   6.064  0.00  0.00    -0.297 N 
ATOM      2  C   LIG    1       24.019 -25.795   7.109  0.00  0.00    +0.127 C 
ATOM      3  C   LIG    1       25.385 -25.077   7.022  0.00  0.00    +0.127 C 
ATOM      4  N   LIG    1       25.567 -24.530   5.670  0.00  0.00    -0.295 N 
ATOM      5  C   LIG    1       25.116 -23.251   5.300  0.00  0.00    +0.260 C 
ATOM      6  O   LIG    1       24.809 -23.008   4.136  0.00  0.00    -0.271 OA
ATOM      7  C   LIG    1       25.532 -25.591   4.644  0.00  0.00    +0.127 C 
ATOM      8  C   LIG    1       24.179 -26.340   4.694  0.00  0.00    +0.127 C 
ENDROOT
BRANCH   1  15
ATOM      9  C   LIG    1       26.854 -30.600   9.626  0.00  0.00    +0.164 A 
ATOM     10  C   LIG    1       26.893 -31.705   8.763  0.00  0.00    +0.162 A 
ATOM     11  C   LIG    1       26.339 -31.592   7.486  0.00  0.00    +0.062 A 
ATOM     12  C   LIG    1       25.709 -30.397   7.078  0.00  0.00    +0.044 A 
ATOM     13  C   LIG    1       25.660 -29.311   7.941  0.00  0.00    +0.082 A 
ATOM     14  N   LIG    1       25.080 -28.161   7.606  0.00  0.00    -0.214 NA
ATOM     15  C   LIG    1       24.533 -28.037   6.388  0.00  0.00    +0.220 A 
ATOM     16  N   LIG    1       24.544 -29.026   5.488  0.00  0.00    -0.199 NA
ATOM     17  C   LIG    1       25.107 -30.185   5.838  0.00  0.00    +0.129 A 
ATOM     18  C   LIG    1       26.227 -29.423   9.202  0.00  0.00    +0.078 A 
BRANCH  17  19
ATOM     19  N   LIG    1       25.055 -31.184   4.858  0.00  0.00    -0.343 N 
ATOM     20  H   LIG    1       24.639 -30.828   4.005  0.00  0.00    +0.144 HD
ATOM     21  H   LIG    1       26.018 -31.473   4.695  0.00  0.00    +0.144 HD
ENDBRANCH  17  19
BRANCH   9  23
ATOM     22  C   LIG    1       28.028 -29.626  11.449  0.00  0.00    +0.277 C 
ATOM     23  O   LIG    1       27.383 -30.762  10.882  0.00  0.00    -0.491 OA
ENDBRANCH   9  23
BRANCH  10  24
ATOM     24  O   LIG    1       27.545 -32.830   9.201  0.00  0.00    -0.491 OA
ATOM     25  C   LIG    1       27.801 -33.825   8.216  0.00  0.00    +0.277 C 
ENDBRANCH  10  24
ENDBRANCH   1  15
BRANCH   5  26
ATOM     26  C   LIG    1       25.165 -22.125   6.381  0.00  0.00    +0.296 C 
ATOM     27  O   LIG    1       23.965 -21.378   6.584  0.00  0.00    -0.472 OA
ATOM     28  C   LIG    1       23.797 -20.406   5.639  0.00  0.00    +0.163 A 
ATOM     29  C   LIG    1       24.854 -19.895   4.889  0.00  0.00    +0.162 A 
ATOM     30  C   LIG    1       24.605 -18.971   3.880  0.00  0.00    +0.049 A 
ATOM     31  C   LIG    1       23.299 -18.554   3.623  0.00  0.00    +0.004 A 
ATOM     32  C   LIG    1       22.247 -19.031   4.406  0.00  0.00    +0.004 A 
ATOM     33  O   LIG    1       26.155 -20.270   5.067  0.00  0.00    -0.484 OA
ATOM     34  C   LIG    1       22.498 -19.945   5.428  0.00  0.00    +0.049 A 
ATOM     35  C   LIG    1       26.334 -21.154   6.181  0.00  0.00    +0.283 C 
ENDBRANCH   5  26
TORSDOF 5
ENDMDL
MODEL 4
REMARK VINA RESULT:      -6.3      2.615     10.345
REMARK  Name = *****
REMARK                            x       y       z     vdW  Elec       q    Type
REMARK                         _______ _______ _______ _____ _____    ______ ____
ROOT
ATOM      1  N   LIG    1       25.173 -26.978   5.185  0.00  0.00    -0.297 N 
ATOM      2  C   LIG    1       24.020 -26.073   5.372  0.00  0.00    +0.127 C 
ATOM      3  C   LIG    1       23.997 -25.512   6.813  0.00  0.00    +0.127 C 
ATOM      4  N   LIG    1       25.279 -24.852   7.102  0.00  0.00    -0.295 N 
ATOM      5  C   LIG    1       25.520 -23.499   6.811  0.00  0.00    +0.260 C 
ATOM      6  O   LIG    1       26.658 -23.102   6.574  0.00  0.00    -0.271 OA
ATOM      7  C   LIG    1       26.413 -25.790   6.985  0.00  0.00    +0.127 C 
ATOM      8  C   LIG    1       26.475 -26.378   5.555  0.00  0.00    +0.127 C 
ENDROOT
BRANCH   1  15
ATOM      9  C   LIG    1       23.615 -31.059   9.241  0.00  0.00    +0.164 A 
ATOM     10  C   LIG    1       23.784 -32.205   8.449  0.00  0.00    +0.162 A 
ATOM     11  C   LIG    1       24.242 -32.065   7.137  0.00  0.00    +0.062 A 
ATOM     12  C   LIG    1       24.493 -30.787   6.595  0.00  0.00    +0.044 A 
ATOM     13  C   LIG    1       24.311 -29.655   7.378  0.00  0.00    +0.082 A 
ATOM     14  N   LIG    1       24.536 -28.427   6.917  0.00  0.00    -0.214 NA
ATOM     15  C   LIG    1       24.965 -28.272   5.656  0.00  0.00    +0.220 A 
ATOM     16  N   LIG    1       25.179 -29.305   4.834  0.00  0.00    -0.199 NA
ATOM     17  C   LIG    1       24.931 -30.533   5.296  0.00  0.00    +0.129 A 
ATOM     18  C   LIG    1       23.873 -29.801   8.686  0.00  0.00    +0.078 A 
BRANCH  17  19
ATOM     19  N   LIG    1       25.147 -31.563   4.371  0.00  0.00    -0.343 N 
ATOM     20  H   LIG    1       26.000 -32.067   4.589  0.00  0.00    +0.144 HD
ATOM     21  H   LIG    1       24.339 -32.180   4.439  0.00  0.00    +0.144 HD
ENDBRANCH  17  19
BRANCH   9  23
ATOM     22  C   LIG    1       21.926 -30.559  10.837  0.00  0.00    +0.277 C 
ATOM     23  O   LIG    1       23.136 -31.238  10.515  0.00  0.00    -0.491 OA
ENDBRANCH   9  23
BRANCH  10  24
ATOM     24  O   LIG    1       23.554 -33.423   9.038  0.00  0.00    -0.491 OA
ATOM     25  C   LIG    1       22.191 -33.825   9.124  0.00  0.00    +0.277 C 
ENDBRANCH  10  24
ENDBRANCH   1  15
BRANCH   5  26
ATOM     26  C   LIG    1       24.324 -22.503   6.948  0.00  0.00    +0.296 C 
ATOM     27  O   LIG    1       23.609 -22.190   5.752  0.00  0.00    -0.472 OA
ATOM     28  C   LIG    1       24.252 -21.249   4.999  0.00  0.00    +0.163 A 
ATOM     29  C   LIG    1       25.194 -20.374   5.533  0.00  0.00    +0.162 A 
ATOM     30  C   LIG    1       25.880 -19.498   4.698  0.00  0.00    +0.049 A 
ATOM     31  C   LIG    1       25.619 -19.495   3.328  0.00  0.00    +0.004 A 
ATOM     32  C   LIG    1       24.640 -20.338   2.800  0.00  0.00    +0.004 A 
ATOM     33  O   LIG    1       25.519 -20.334   6.859  0.00  0.00    -0.484 OA
ATOM     34  C   LIG    1       23.942 -21.206   3.641  0.00  0.00    +0.049 A 
ATOM     35  C   LIG    1       24.708 -21.201   7.659  0.00  0.00    +0.283 C 
ENDBRANCH   5  26
TORSDOF 5
ENDMDL
MODEL 5
REMARK VINA RESULT:      -5.8      1.310      2.491
REMARK  Name = *****
REMARK                            x       y       z     vdW  Elec       q    Type
REMARK                         _______ _______ _______ _____ _____    ______ ____
ROOT
ATOM      1  N   LIG    1       24.666 -23.900   7.198  0.00  0.00    -0.297 N 
ATOM      2  C   LIG    1       23.695 -24.756   6.484  0.00  0.00    +0.127 C 
ATOM      3  C   LIG    1       24.414 -25.638   5.438  0.00  0.00    +0.127 C 
ATOM      4  N   LIG    1       25.468 -26.421   6.098  0.00  0.00    -0.295 N 
ATOM      5  C   LIG    1       25.231 -27.680   6.677  0.00  0.00    +0.260 C 
ATOM      6  O   LIG    1       25.914 -28.075   7.619  0.00  0.00    -0.271 OA
ATOM      7  C   LIG    1       26.471 -25.551   6.743  0.00  0.00    +0.127 C 
ATOM      8  C   LIG    1       25.796 -24.646   7.800  0.00  0.00    +0.127 C 
ENDROOT
BRANCH   1  15
ATOM      9  C   LIG    1       23.652 -19.118   3.788  0.00  0.00    +0.164 A 
ATOM     10  C   LIG    1       24.948 -18.580   3.804  0.00  0.00    +0.162 A 
ATOM     11  C   LIG    1       25.958 -19.258   4.490  0.00  0.00    +0.062 A 
ATOM     12  C   LIG    1       25.676 -20.447   5.195  0.00  0.00    +0.044 A 
ATOM     13  C   LIG    1       24.389 -20.968   5.189  0.00  0.00    +0.082 A 
ATOM     14  N   LIG    1       24.070 -22.086   5.835  0.00  0.00    -0.214 NA
ATOM     15  C   LIG    1       25.024 -22.745   6.509  0.00  0.00    +0.220 A 
ATOM     16  N   LIG    1       26.293 -22.325   6.561  0.00  0.00    -0.199 NA
ATOM     17  C   LIG    1       26.602 -21.190   5.928  0.00  0.00    +0.129 A 
ATOM     18  C   LIG    1       23.394 -20.300   4.491  0.00  0.00    +0.078 A 
BRANCH  17  19
ATOM     19  N   LIG    1       27.940 -20.794   6.050  0.00  0.00    -0.343 N 
ATOM     20  H   LIG    1       28.168 -20.597   7.019  0.00  0.00    +0.144 HD
ATOM     21  H   LIG    1       28.499 -21.570   5.701  0.00  0.00    +0.144 HD
ENDBRANCH  17  19
BRANCH   9  23
ATOM     22  C   LIG    1       21.464 -18.191   3.832  0.00  0.00    +0.277 C 
ATOM     23  O   LIG    1       22.682 -18.405   3.127  0.00  0.00    -0.491 OA
ENDBRANCH   9  23
BRANCH  10  24
ATOM     24  O   LIG    1       25.170 -17.439   3.076  0.00  0.00    -0.491 OA
ATOM     25  C   LIG    1       26.367 -16.730   3.380  0.00  0.00    +0.277 C 
ENDBRANCH  10  24
ENDBRANCH   1  15
BRANCH   5  26
ATOM     26  C   LIG    1       24.179 -28.608   5.990  0.00  0.00    +0.296 C 
ATOM     27  O   LIG    1       23.567 -29.603   6.810  0.00  0.00    -0.472 OA
ATOM     28  C   LIG    1       24.366 -30.699   6.973  0.00  0.00    +0.163 A 
ATOM     29  C   LIG    1       25.396 -31.017   6.091  0.00  0.00    +0.162 A 
ATOM     30  C   LIG    1       26.232 -32.096   6.359  0.00  0.00    +0.049 A 
ATOM     31  C   LIG    1       26.033 -32.861   7.508  0.00  0.00    +0.004 A 
ATOM     32  C   LIG    1       24.971 -32.572   8.366  0.00  0.00    +0.004 A 
ATOM     33  O   LIG    1       25.666 -30.302   4.959  0.00  0.00    -0.484 OA
ATOM     34  C   LIG    1       24.124 -31.499   8.089  0.00  0.00    +0.049 A 
ATOM     35  C   LIG    1       24.708 -29.266   4.711  0.00  0.00    +0.283 C 
ENDBRANCH   5  26
TORSDOF 5
ENDMDL
MODEL 6
REMARK VINA RESULT:      -5.7      1.850      2.764
REMARK  Name = *****
REMARK                            x       y       z     vdW  Elec       q    Type
REMARK                         _______ _______ _______ _____ _____    ______ ____
ROOT
ATOM      1  N   LIG    1       25.627 -26.248   6.797  0.00  0.00    -0.297 N 
ATOM      2  C   LIG    1       24.726 -27.269   7.372  0.00  0.00    +0.127 C 
ATOM      3  C   LIG    1       23.888 -27.941   6.259  0.00  0.00    +0.127 C 
ATOM      4  N   LIG    1       24.786 -28.499   5.238  0.00  0.00    -0.295 N 
ATOM      5  C   LIG    1       25.318 -29.797   5.320  0.00  0.00    +0.260 C 
ATOM      6  O   LIG    1       26.397 -30.066   4.800  0.00  0.00    -0.271 OA
ATOM      7  C   LIG    1       25.626 -27.453   4.621  0.00  0.00    +0.127 C 
ATOM      8  C   LIG    1       26.484 -26.751   5.699  0.00  0.00    +0.127 C 
ENDROOT
BRANCH   1  15
ATOM      9  C   LIG    1       25.497 -20.514   5.176  0.00  0.00    +0.164 A 
ATOM     10  C   LIG    1       24.115 -20.304   5.287  0.00  0.00    +0.162 A 
ATOM     11  C   LIG    1       23.300 -21.351   5.724  0.00  0.00    +0.062 A 
ATOM     12  C   LIG    1       23.849 -22.618   6.010  0.00  0.00    +0.044 A 
ATOM     13  C   LIG    1       25.216 -22.826   5.884  0.00  0.00    +0.082 A 
ATOM     14  N   LIG    1       25.785 -24.000   6.144  0.00  0.00    -0.214 NA
ATOM     15  C   LIG    1       25.017 -25.021   6.553  0.00  0.00    +0.220 A 
ATOM     16  N   LIG    1       23.694 -24.910   6.714  0.00  0.00    -0.199 NA
ATOM     17  C   LIG    1       23.126 -23.734   6.431  0.00  0.00    +0.129 A 
ATOM     18  C   LIG    1       26.022 -21.777   5.467  0.00  0.00    +0.078 A 
BRANCH  17  19
ATOM     19  N   LIG    1       21.735 -23.700   6.592  0.00  0.00    -0.343 N 
ATOM     20  H   LIG    1       21.435 -22.788   6.918  0.00  0.00    +0.144 HD
ATOM     21  H   LIG    1       21.338 -23.901   5.675  0.00  0.00    +0.144 HD
ENDBRANCH  17  19
BRANCH   9  23
ATOM     22  C   LIG    1       27.602 -19.408   5.185  0.00  0.00    +0.277 C 
ATOM     23  O   LIG    1       26.259 -19.468   4.715  0.00  0.00    -0.491 OA
ENDBRANCH   9  23
BRANCH  10  24
ATOM     24  O   LIG    1       23.641 -19.043   5.025  0.00  0.00    -0.491 OA
ATOM     25  C   LIG    1       22.291 -18.965   4.581  0.00  0.00    +0.277 C 
ENDBRANCH  10  24
ENDBRANCH   1  15
BRANCH   5  26
ATOM     26  C   LIG    1       24.425 -30.907   5.961  0.00  0.00    +0.296 C 
ATOM     27  O   LIG    1       23.861 -30.619   7.240  0.00  0.00    -0.472 OA
ATOM     28  C   LIG    1       24.756 -30.812   8.254  0.00  0.00    +0.163 A 
ATOM     29  C   LIG    1       25.878 -31.626   8.121  0.00  0.00    +0.162 A 
ATOM     30  C   LIG    1       26.800 -31.712   9.159  0.00  0.00    +0.049 A 
ATOM     31  C   LIG    1       26.597 -30.987  10.333  0.00  0.00    +0.004 A 
ATOM     32  C   LIG    1       25.447 -30.210  10.484  0.00  0.00    +0.004 A 
ATOM     33  O   LIG    1       26.157 -32.348   6.995  0.00  0.00    -0.484 OA
ATOM     34  C   LIG    1       24.516 -30.136   9.449  0.00  0.00    +0.049 A 
ATOM     35  C   LIG    1       25.117 -32.274   6.013  0.00  0.00    +0.283 C 
ENDBRANCH   5  26
TORSDOF 5
ENDMDL
MODEL 7
REMARK VINA RESULT:      -5.7      1.263      1.501
REMARK  Name = *****
REMARK                            x       y       z     vdW  Elec       q    Type
REMARK                         _______ _______ _______ _____ _____    ______ ____
ROOT
ATOM      1  N   LIG    1       24.552 -24.124   7.063  0.00  0.00    -0.297 N 
ATOM      2  C   LIG    1       23.728 -24.956   6.161  0.00  0.00    +0.127 C 
ATOM      3  C   LIG    1       24.626 -25.827   5.252  0.00  0.00    +0.127 C 
ATOM      4  N   LIG    1       25.531 -26.633   6.084  0.00  0.00    -0.295 N 
ATOM      5  C   LIG    1       25.181 -27.899   6.582  0.00  0.00    +0.260 C 
ATOM      6  O   LIG    1       25.670 -28.319   7.627  0.00  0.00    -0.271 OA
ATOM      7  C   LIG    1       26.400 -25.784   6.923  0.00  0.00    +0.127 C 
ATOM      8  C   LIG    1       25.542 -24.892   7.852  0.00  0.00    +0.127 C 
ENDROOT
BRANCH   1  15
ATOM      9  C   LIG    1       28.542 -19.780   6.204  0.00  0.00    +0.164 A 
ATOM     10  C   LIG    1       27.875 -19.094   5.178  0.00  0.00    +0.162 A 
ATOM     11  C   LIG    1       26.626 -19.552   4.752  0.00  0.00    +0.062 A 
ATOM     12  C   LIG    1       26.057 -20.714   5.313  0.00  0.00    +0.044 A 
ATOM     13  C   LIG    1       26.727 -21.399   6.317  0.00  0.00    +0.082 A 
ATOM     14  N   LIG    1       26.233 -22.498   6.881  0.00  0.00    -0.214 NA
ATOM     15  C   LIG    1       25.041 -22.960   6.477  0.00  0.00    +0.220 A 
ATOM     16  N   LIG    1       24.319 -22.359   5.525  0.00  0.00    -0.199 NA
ATOM     17  C   LIG    1       24.830 -21.269   4.947  0.00  0.00    +0.129 A 
ATOM     18  C   LIG    1       27.958 -20.929   6.749  0.00  0.00    +0.078 A 
BRANCH  17  19
ATOM     19  N   LIG    1       24.035 -20.711   3.938  0.00  0.00    -0.343 N 
ATOM     20  H   LIG    1       23.916 -21.366   3.173  0.00  0.00    +0.144 HD
ATOM     21  H   LIG    1       23.138 -20.497   4.369  0.00  0.00    +0.144 HD
ENDBRANCH  17  19
BRANCH   9  23
ATOM     22  C   LIG    1       29.836 -18.554   7.776  0.00  0.00    +0.277 C 
ATOM     23  O   LIG    1       29.779 -19.315   6.573  0.00  0.00    -0.491 OA
ENDBRANCH   9  23
BRANCH  10  24
ATOM     24  O   LIG    1       28.462 -17.953   4.692  0.00  0.00    -0.491 OA
ATOM     25  C   LIG    1       27.592 -17.035   4.039  0.00  0.00    +0.277 C 
ENDBRANCH  10  24
ENDBRANCH   1  15
BRANCH   5  26
ATOM     26  C   LIG    1       24.272 -28.803   5.690  0.00  0.00    +0.296 C 
ATOM     27  O   LIG    1       23.522 -29.818   6.357  0.00  0.00    -0.472 OA
ATOM     28  C   LIG    1       24.279 -30.922   6.631  0.00  0.00    +0.163 A 
ATOM     29  C   LIG    1       25.453 -31.219   5.942  0.00  0.00    +0.162 A 
ATOM     30  C   LIG    1       26.227 -32.309   6.327  0.00  0.00    +0.049 A 
ATOM     31  C   LIG    1       25.824 -33.105   7.399  0.00  0.00    +0.004 A 
ATOM     32  C   LIG    1       24.624 -32.835   8.058  0.00  0.00    +0.004 A 
ATOM     33  O   LIG    1       25.922 -30.474   4.897  0.00  0.00    -0.484 OA
ATOM     34  C   LIG    1       23.840 -31.751   7.661  0.00  0.00    +0.049 A 
ATOM     35  C   LIG    1       25.025 -29.428   4.509  0.00  0.00    +0.283 C 
ENDBRANCH   5  26
TORSDOF 5
ENDMDL
MODEL 8
REMARK VINA RESULT:      -5.3      8.880     11.451
REMARK  Name = *****
REMARK                            x       y       z     vdW  Elec       q    Type
REMARK                         _______ _______ _______ _____ _____    ______ ____
ROOT
ATOM      1  N   LIG    1       23.045 -32.247  10.907  0.00  0.00    -0.297 N 
ATOM      2  C   LIG    1       23.478 -31.413  12.048  0.00  0.00    +0.127 C 
ATOM      3  C   LIG    1       22.899 -29.985  11.927  0.00  0.00    +0.127 C 
ATOM      4  N   LIG    1       21.435 -30.057  11.812  0.00  0.00    -0.295 N 
ATOM      5  C   LIG    1       20.584 -30.073  12.930  0.00  0.00    +0.260 C 
ATOM      6  O   LIG    1       19.487 -30.624  12.874  0.00  0.00    -0.271 OA
ATOM      7  C   LIG    1       21.020 -30.830  10.624  0.00  0.00    +0.127 C 
ATOM      8  C   LIG    1       21.578 -32.270  10.701  0.00  0.00    +0.127 C 
ENDROOT
BRANCH   1  15
ATOM      9  C   LIG    1       24.458 -33.166   5.189  0.00  0.00    +0.164 A 
ATOM     10  C   LIG    1       25.533 -32.269   5.101  0.00  0.00    +0.162 A 
ATOM     11  C   LIG    1       25.921 -31.555   6.237  0.00  0.00    +0.062 A 
ATOM     12  C   LIG    1       25.217 -31.700   7.451  0.00  0.00    +0.044 A 
ATOM     13  C   LIG    1       24.144 -32.577   7.531  0.00  0.00    +0.082 A 
ATOM     14  N   LIG    1       23.449 -32.752   8.651  0.00  0.00    -0.214 NA
ATOM     15  C   LIG    1       23.799 -32.068   9.750  0.00  0.00    +0.220 A 
ATOM     16  N   LIG    1       24.825 -31.210   9.770  0.00  0.00    -0.199 NA
ATOM     17  C   LIG    1       25.505 -31.022   8.636  0.00  0.00    +0.129 A 
ATOM     18  C   LIG    1       23.775 -33.296   6.404  0.00  0.00    +0.078 A 
BRANCH  17  19
ATOM     19  N   LIG    1       26.545 -30.088   8.722  0.00  0.00    -0.343 N 
ATOM     20  H   LIG    1       27.439 -30.556   8.830  0.00  0.00    +0.144 HD
ATOM     21  H   LIG    1       26.521 -29.555   7.854  0.00  0.00    +0.144 HD
ENDBRANCH  17  19
BRANCH   9  23
ATOM     22  C   LIG    1       22.705 -33.798   3.713  0.00  0.00    +0.277 C 
ATOM     23  O   LIG    1       24.091 -33.825   4.042  0.00  0.00    -0.491 OA
ENDBRANCH   9  23
BRANCH  10  24
ATOM     24  O   LIG    1       26.199 -32.193   3.904  0.00  0.00    -0.491 OA
ATOM     25  C   LIG    1       26.963 -33.338   3.543  0.00  0.00    +0.277 C 
ENDBRANCH  10  24
ENDBRANCH   1  15
BRANCH   5  26
ATOM     26  C   LIG    1       21.015 -29.246  14.182  0.00  0.00    +0.296 C 
ATOM     27  O   LIG    1       20.023 -29.035  15.186  0.00  0.00    -0.472 OA
ATOM     28  C   LIG    1       19.169 -28.019  14.862  0.00  0.00    +0.163 A 
ATOM     29  C   LIG    1       19.499 -27.024  13.945  0.00  0.00    +0.162 A 
ATOM     30  C   LIG    1       18.554 -26.067  13.589  0.00  0.00    +0.049 A 
ATOM     31  C   LIG    1       17.280 -26.103  14.155  0.00  0.00    +0.004 A 
ATOM     32  C   LIG    1       16.966 -27.072  15.110  0.00  0.00    +0.004 A 
ATOM     33  O   LIG    1       20.717 -26.937  13.333  0.00  0.00    -0.484 OA
ATOM     34  C   LIG    1       17.918 -28.022  15.477  0.00  0.00    +0.049 A 
ATOM     35  C   LIG    1       21.657 -27.902  13.819  0.00  0.00    +0.283 C 
ENDBRANCH   5  26
TORSDOF 5
ENDMDL
MODEL 9
REMARK VINA RESULT:      -5.3      3.140     10.530
REMARK  Name = *****
REMARK                            x       y       z     vdW  Elec       q    Type
REMARK                         _______ _______ _______ _____ _____    ______ ____
ROOT
ATOM      1  N   LIG    1       25.266 -28.543   5.401  0.00  0.00    -0.297 N 
ATOM      2  C   LIG    1       24.261 -27.511   5.072  0.00  0.00    +0.127 C 
ATOM      3  C   LIG    1       24.009 -26.590   6.289  0.00  0.00    +0.127 C 
ATOM      4  N   LIG    1       25.282 -26.008   6.735  0.00  0.00    -0.295 N 
ATOM      5  C   LIG    1       25.797 -24.810   6.211  0.00  0.00    +0.260 C 
ATOM      6  O   LIG    1       27.007 -24.605   6.187  0.00  0.00    -0.271 OA
ATOM      7  C   LIG    1       26.249 -27.051   7.132  0.00  0.00    +0.127 C 
ATOM      8  C   LIG    1       26.532 -27.999   5.943  0.00  0.00    +0.127 C 
ENDROOT
BRANCH   1  15
ATOM      9  C   LIG    1       23.607 -31.568  10.262  0.00  0.00    +0.164 A 
ATOM     10  C   LIG    1       23.109 -32.715   9.626  0.00  0.00    +0.162 A 
ATOM     11  C   LIG    1       23.178 -32.806   8.234  0.00  0.00    +0.062 A 
ATOM     12  C   LIG    1       23.703 -31.743   7.469  0.00  0.00    +0.044 A 
ATOM     13  C   LIG    1       24.182 -30.604   8.102  0.00  0.00    +0.082 A 
ATOM     14  N   LIG    1       24.689 -29.575   7.428  0.00  0.00    -0.214 NA
ATOM     15  C   LIG    1       24.753 -29.639   6.090  0.00  0.00    +0.220 A 
ATOM     16  N   LIG    1       24.327 -30.700   5.397  0.00  0.00    -0.199 NA
ATOM     17  C   LIG    1       23.799 -31.721   6.077  0.00  0.00    +0.129 A 
ATOM     18  C   LIG    1       24.127 -30.527   9.485  0.00  0.00    +0.078 A 
BRANCH  17  19
ATOM     19  N   LIG    1       23.346 -32.784   5.285  0.00  0.00    -0.343 N 
ATOM     20  H   LIG    1       23.663 -33.671   5.661  0.00  0.00    +0.144 HD
ATOM     21  H   LIG    1       22.329 -32.733   5.297  0.00  0.00    +0.144 HD
ENDBRANCH  17  19
BRANCH   9  23
ATOM     22  C   LIG    1       22.601 -30.524  12.145  0.00  0.00    +0.277 C 
ATOM     23  O   LIG    1       23.494 -31.506  11.629  0.00  0.00    -0.491 OA
ENDBRANCH   9  23
BRANCH  10  24
ATOM     24  O   LIG    1       22.638 -33.728  10.421  0.00  0.00    -0.491 OA
ATOM     25  C   LIG    1       21.223 -33.825  10.535  0.00  0.00    +0.277 C 
ENDBRANCH  10  24
ENDBRANCH   1  15
BRANCH   5  26
ATOM     26  C   LIG    1       24.776 -23.700   5.802  0.00  0.00    +0.296 C 
ATOM     27  O   LIG    1       25.318 -22.499   5.254  0.00  0.00    -0.472 OA
ATOM     28  C   LIG    1       25.784 -21.655   6.223  0.00  0.00    +0.163 A 
ATOM     29  C   LIG    1       25.358 -21.723   7.547  0.00  0.00    +0.162 A 
ATOM     30  C   LIG    1       25.935 -20.895   8.505  0.00  0.00    +0.049 A 
ATOM     31  C   LIG    1       26.935 -19.996   8.136  0.00  0.00    +0.004 A 
ATOM     32  C   LIG    1       27.327 -19.894   6.800  0.00  0.00    +0.004 A 
ATOM     33  O   LIG    1       24.401 -22.592   7.987  0.00  0.00    -0.484 OA
ATOM     34  C   LIG    1       26.737 -20.713   5.838  0.00  0.00    +0.049 A 
ATOM     35  C   LIG    1       23.798 -23.343   6.927  0.00  0.00    +0.283 C 
ENDBRANCH   5  26
TORSDOF 5
ENDMDL
