MODEL 1
REMARK VINA RESULT:      -6.8      0.000      0.000
REMARK  Name = *****
REMARK                            x       y       z     vdW  Elec       q    Type
REMARK                         _______ _______ _______ _____ _____    ______ ____
ROOT
ATOM      1  C   LIG    1       24.739 -21.602   6.865  0.00  0.00    +0.104 C 
ATOM      2  C   LIG    1       25.776 -21.046   7.841  0.00  0.00    +0.152 C 
ATOM      3  O   LIG    1       25.580 -21.073   9.062  0.00  0.00    -0.296 OA
ATOM      4  C   LIG    1       27.084 -20.491   7.314  0.00  0.00    +0.070 C 
ATOM      5  C   LIG    1       28.164 -21.566   7.301  0.00  0.00    +0.017 C 
ATOM      6  C   LIG    1       26.865 -19.866   5.951  0.00  0.00    +0.115 C 
ATOM      7  N   LIG    1       26.207 -20.774   5.050  0.00  0.00    -0.314 N 
ATOM      8  H   LIG    1       26.381 -20.717   4.051  0.00  0.00    +0.149 HD
ATOM      9  C   LIG    1       25.149 -21.562   5.396  0.00  0.00    +0.226 C 
ATOM     10  O   LIG    1       24.550 -22.174   4.514  0.00  0.00    -0.275 OA
ENDROOT
BRANCH   1  12
ATOM     11  C   LIG    1       25.564 -24.062   7.062  0.00  0.00    +0.005 C 
ATOM     12  C   LIG    1       24.416 -23.075   7.253  0.00  0.00    +0.020 C 
ENDBRANCH   1  12
BRANCH   1  13
ATOM     13  C   LIG    1       23.418 -20.792   7.026  0.00  0.00    +0.020 C 
ATOM     14  C   LIG    1       22.929 -20.062   5.781  0.00  0.00    +0.005 C 
ENDBRANCH   1  13
TORSDOF 2
ENDMDL
MODEL 2
REMARK VINA RESULT:      -6.8      1.000      1.129
REMARK  Name = *****
REMARK                            x       y       z     vdW  Elec       q    Type
REMARK                         _______ _______ _______ _____ _____    ______ ____
ROOT
ATOM      1  C   LIG    1       24.014 -21.113   6.068  0.00  0.00    +0.104 C 
ATOM      2  C   LIG    1       24.979 -20.734   7.192  0.00  0.00    +0.152 C 
ATOM      3  O   LIG    1       24.588 -20.632   8.361  0.00  0.00    -0.296 OA
ATOM      4  C   LIG    1       26.448 -20.519   6.882  0.00  0.00    +0.070 C 
ATOM      5  C   LIG    1       27.240 -21.805   7.088  0.00  0.00    +0.017 C 
ATOM      6  C   LIG    1       26.601 -19.957   5.483  0.00  0.00    +0.115 C 
ATOM      7  N   LIG    1       25.906 -20.757   4.510  0.00  0.00    -0.314 N 
ATOM      8  H   LIG    1       26.247 -20.808   3.555  0.00  0.00    +0.149 HD
ATOM      9  C   LIG    1       24.654 -21.266   4.692  0.00  0.00    +0.226 C 
ATOM     10  O   LIG    1       24.081 -21.789   3.738  0.00  0.00    -0.275 OA
ENDROOT
BRANCH   1  12
ATOM     11  C   LIG    1       24.230 -23.646   6.621  0.00  0.00    +0.005 C 
ATOM     12  C   LIG    1       23.304 -22.447   6.440  0.00  0.00    +0.020 C 
ENDBRANCH   1  12
BRANCH   1  13
ATOM     13  C   LIG    1       22.906 -20.021   5.974  0.00  0.00    +0.020 C 
ATOM     14  C   LIG    1       22.815 -19.279   4.647  0.00  0.00    +0.005 C 
ENDBRANCH   1  13
TORSDOF 2
ENDMDL
MODEL 3
REMARK VINA RESULT:      -6.7      1.742      3.681
REMARK  Name = *****
REMARK                            x       y       z     vdW  Elec       q    Type
REMARK                         _______ _______ _______ _____ _____    ______ ____
ROOT
ATOM      1  C   LIG    1       23.864 -20.880   5.375  0.00  0.00    +0.104 C 
ATOM      2  C   LIG    1       23.766 -21.529   6.756  0.00  0.00    +0.152 C 
ATOM      3  O   LIG    1       23.498 -20.856   7.758  0.00  0.00    -0.296 OA
ATOM      4  C   LIG    1       23.960 -23.025   6.900  0.00  0.00    +0.070 C 
ATOM      5  C   LIG    1       22.623 -23.755   6.832  0.00  0.00    +0.017 C 
ATOM      6  C   LIG    1       24.947 -23.519   5.861  0.00  0.00    +0.115 C 
ATOM      7  N   LIG    1       24.578 -23.099   4.536  0.00  0.00    -0.314 N 
ATOM      8  H   LIG    1       24.825 -23.669   3.733  0.00  0.00    +0.149 HD
ATOM      9  C   LIG    1       24.135 -21.847   4.226  0.00  0.00    +0.226 C 
ATOM     10  O   LIG    1       24.009 -21.538   3.043  0.00  0.00    -0.275 OA
ENDROOT
BRANCH   1  12
ATOM     11  C   LIG    1       22.716 -18.719   4.492  0.00  0.00    +0.005 C 
ATOM     12  C   LIG    1       22.540 -20.115   5.081  0.00  0.00    +0.020 C 
ENDBRANCH   1  12
BRANCH   1  13
ATOM     13  C   LIG    1       25.004 -19.820   5.402  0.00  0.00    +0.020 C 
ATOM     14  C   LIG    1       26.381 -20.334   5.802  0.00  0.00    +0.005 C 
ENDBRANCH   1  13
TORSDOF 2
ENDMDL
MODEL 4
REMARK VINA RESULT:      -6.7      1.845      3.498
REMARK  Name = *****
REMARK                            x       y       z     vdW  Elec       q    Type
REMARK                         _______ _______ _______ _____ _____    ______ ____
ROOT
ATOM      1  C   LIG    1       25.067 -21.313   6.436  0.00  0.00    +0.104 C 
ATOM      2  C   LIG    1       23.576 -21.417   6.112  0.00  0.00    +0.152 C 
ATOM      3  O   LIG    1       22.789 -21.956   6.898  0.00  0.00    -0.296 OA
ATOM      4  C   LIG    1       23.041 -20.814   4.827  0.00  0.00    +0.070 C 
ATOM      5  C   LIG    1       22.551 -19.390   5.059  0.00  0.00    +0.017 C 
ATOM      6  C   LIG    1       24.096 -20.899   3.742  0.00  0.00    +0.115 C 
ATOM      7  N   LIG    1       25.350 -20.343   4.174  0.00  0.00    -0.314 N 
ATOM      8  H   LIG    1       25.979 -19.918   3.500  0.00  0.00    +0.149 HD
ATOM      9  C   LIG    1       25.901 -20.563   5.402  0.00  0.00    +0.226 C 
ATOM     10  O   LIG    1       27.052 -20.184   5.613  0.00  0.00    -0.275 OA
ENDROOT
BRANCH   1  12
ATOM     11  C   LIG    1       26.084 -21.379   8.829  0.00  0.00    +0.005 C 
ATOM     12  C   LIG    1       25.237 -20.615   7.817  0.00  0.00    +0.020 C 
ENDBRANCH   1  12
BRANCH   1  13
ATOM     13  C   LIG    1       25.646 -22.752   6.581  0.00  0.00    +0.020 C 
ATOM     14  C   LIG    1       25.090 -23.793   5.617  0.00  0.00    +0.005 C 
ENDBRANCH   1  13
TORSDOF 2
ENDMDL
MODEL 5
REMARK VINA RESULT:      -6.3      1.954      3.581
REMARK  Name = *****
REMARK                            x       y       z     vdW  Elec       q    Type
REMARK                         _______ _______ _______ _____ _____    ______ ____
ROOT
ATOM      1  C   LIG    1       23.955 -21.949   6.298  0.00  0.00    +0.104 C 
ATOM      2  C   LIG    1       23.535 -23.389   6.596  0.00  0.00    +0.152 C 
ATOM      3  O   LIG    1       22.354 -23.674   6.827  0.00  0.00    -0.296 OA
ATOM      4  C   LIG    1       24.571 -24.496   6.569  0.00  0.00    +0.070 C 
ATOM      5  C   LIG    1       24.630 -25.151   5.194  0.00  0.00    +0.017 C 
ATOM      6  C   LIG    1       25.915 -23.954   7.014  0.00  0.00    +0.115 C 
ATOM      7  N   LIG    1       26.288 -22.782   6.270  0.00  0.00    -0.314 N 
ATOM      8  H   LIG    1       27.268 -22.570   6.109  0.00  0.00    +0.149 HD
ATOM      9  C   LIG    1       25.433 -21.763   5.966  0.00  0.00    +0.226 C 
ATOM     10  O   LIG    1       25.887 -20.731   5.477  0.00  0.00    -0.275 OA
ENDROOT
BRANCH   1  12
ATOM     11  C   LIG    1       22.580 -19.989   5.281  0.00  0.00    +0.005 C 
ATOM     12  C   LIG    1       23.106 -21.410   5.110  0.00  0.00    +0.020 C 
ENDBRANCH   1  12
BRANCH   1  13
ATOM     13  C   LIG    1       23.616 -21.066   7.535  0.00  0.00    +0.020 C 
ATOM     14  C   LIG    1       24.784 -20.736   8.457  0.00  0.00    +0.005 C 
ENDBRANCH   1  13
TORSDOF 2
ENDMDL
MODEL 6
REMARK VINA RESULT:      -6.2      1.467      3.798
REMARK  Name = *****
REMARK                            x       y       z     vdW  Elec       q    Type
REMARK                         _______ _______ _______ _____ _____    ______ ____
ROOT
ATOM      1  C   LIG    1       25.745 -21.484   6.760  0.00  0.00    +0.104 C 
ATOM      2  C   LIG    1       24.677 -21.889   5.743  0.00  0.00    +0.152 C 
ATOM      3  O   LIG    1       24.989 -22.403   4.662  0.00  0.00    -0.296 OA
ATOM      4  C   LIG    1       23.211 -21.700   6.076  0.00  0.00    +0.070 C 
ATOM      5  C   LIG    1       22.626 -22.965   6.693  0.00  0.00    +0.017 C 
ATOM      6  C   LIG    1       23.038 -20.484   6.964  0.00  0.00    +0.115 C 
ATOM      7  N   LIG    1       23.899 -20.540   8.115  0.00  0.00    -0.314 N 
ATOM      8  H   LIG    1       23.618 -20.097   8.984  0.00  0.00    +0.149 HD
ATOM      9  C   LIG    1       25.206 -20.927   8.074  0.00  0.00    +0.226 C 
ATOM     10  O   LIG    1       25.902 -20.778   9.076  0.00  0.00    -0.275 OA
ENDROOT
BRANCH   1  12
ATOM     11  C   LIG    1       25.892 -24.036   7.248  0.00  0.00    +0.005 C 
ATOM     12  C   LIG    1       26.641 -22.719   7.072  0.00  0.00    +0.020 C 
ENDBRANCH   1  12
BRANCH   1  13
ATOM     13  C   LIG    1       26.666 -20.408   6.113  0.00  0.00    +0.020 C 
ATOM     14  C   LIG    1       28.154 -20.535   6.419  0.00  0.00    +0.005 C 
ENDBRANCH   1  13
TORSDOF 2
ENDMDL
MODEL 7
REMARK VINA RESULT:      -6.2      2.154      3.374
REMARK  Name = *****
REMARK                            x       y       z     vdW  Elec       q    Type
REMARK                         _______ _______ _______ _____ _____    ______ ____
ROOT
ATOM      1  C   LIG    1       24.566 -21.591   6.489  0.00  0.00    +0.104 C 
ATOM      2  C   LIG    1       25.056 -20.599   5.434  0.00  0.00    +0.152 C 
ATOM      3  O   LIG    1       26.226 -20.198   5.431  0.00  0.00    -0.296 OA
ATOM      4  C   LIG    1       24.111 -20.129   4.346  0.00  0.00    +0.070 C 
ATOM      5  C   LIG    1       24.237 -21.001   3.102  0.00  0.00    +0.017 C 
ATOM      6  C   LIG    1       22.694 -20.079   4.882  0.00  0.00    +0.115 C 
ATOM      7  N   LIG    1       22.314 -21.324   5.493  0.00  0.00    -0.314 N 
ATOM      8  H   LIG    1       21.342 -21.619   5.489  0.00  0.00    +0.149 HD
ATOM      9  C   LIG    1       23.119 -22.047   6.323  0.00  0.00    +0.226 C 
ATOM     10  O   LIG    1       22.643 -23.005   6.928  0.00  0.00    -0.275 OA
ENDROOT
BRANCH   1  12
ATOM     11  C   LIG    1       25.106 -23.918   5.459  0.00  0.00    +0.005 C 
ATOM     12  C   LIG    1       25.489 -22.845   6.472  0.00  0.00    +0.020 C 
ENDBRANCH   1  12
BRANCH   1  13
ATOM     13  C   LIG    1       24.715 -20.937   7.895  0.00  0.00    +0.020 C 
ATOM     14  C   LIG    1       26.001 -21.261   8.645  0.00  0.00    +0.005 C 
ENDBRANCH   1  13
TORSDOF 2
ENDMDL
MODEL 8
REMARK VINA RESULT:      -6.1      1.929      3.301
REMARK  Name = *****
REMARK                            x       y       z     vdW  Elec       q    Type
REMARK                         _______ _______ _______ _____ _____    ______ ____
ROOT
ATOM      1  C   LIG    1       24.131 -21.511   6.632  0.00  0.00    +0.104 C 
ATOM      2  C   LIG    1       23.499 -20.441   5.742  0.00  0.00    +0.152 C 
ATOM      3  O   LIG    1       22.808 -19.536   6.225  0.00  0.00    -0.296 OA
ATOM      4  C   LIG    1       23.752 -20.459   4.247  0.00  0.00    +0.070 C 
ATOM      5  C   LIG    1       24.943 -19.579   3.887  0.00  0.00    +0.017 C 
ATOM      6  C   LIG    1       23.917 -21.889   3.772  0.00  0.00    +0.115 C 
ATOM      7  N   LIG    1       24.905 -22.594   4.543  0.00  0.00    -0.314 N 
ATOM      8  H   LIG    1       25.446 -23.342   4.119  0.00  0.00    +0.149 HD
ATOM      9  C   LIG    1       25.009 -22.522   5.901  0.00  0.00    +0.226 C 
ATOM     10  O   LIG    1       25.773 -23.292   6.481  0.00  0.00    -0.275 OA
ENDROOT
BRANCH   1  12
ATOM     11  C   LIG    1       26.371 -20.364   7.293  0.00  0.00    +0.005 C 
ATOM     12  C   LIG    1       24.982 -20.814   7.734  0.00  0.00    +0.020 C 
ENDBRANCH   1  12
BRANCH   1  13
ATOM     13  C   LIG    1       22.994 -22.287   7.361  0.00  0.00    +0.020 C 
ATOM     14  C   LIG    1       22.562 -23.597   6.713  0.00  0.00    +0.005 C 
ENDBRANCH   1  13
TORSDOF 2
ENDMDL
MODEL 9
REMARK VINA RESULT:      -6.0      1.441      3.426
REMARK  Name = *****
REMARK                            x       y       z     vdW  Elec       q    Type
REMARK                         _______ _______ _______ _____ _____    ______ ____
ROOT
ATOM      1  C   LIG    1       25.471 -21.614   6.493  0.00  0.00    +0.104 C 
ATOM      2  C   LIG    1       25.342 -22.952   7.221  0.00  0.00    +0.152 C 
ATOM      3  O   LIG    1       25.697 -23.073   8.400  0.00  0.00    -0.296 OA
ATOM      4  C   LIG    1       24.731 -24.141   6.507  0.00  0.00    +0.070 C 
ATOM      5  C   LIG    1       23.234 -24.229   6.779  0.00  0.00    +0.017 C 
ATOM      6  C   LIG    1       25.052 -24.072   5.027  0.00  0.00    +0.115 C 
ATOM      7  N   LIG    1       24.690 -22.799   4.464  0.00  0.00    -0.314 N 
ATOM      8  H   LIG    1       24.415 -22.732   3.489  0.00  0.00    +0.149 HD
ATOM      9  C   LIG    1       24.930 -21.600   5.067  0.00  0.00    +0.226 C 
ATOM     10  O   LIG    1       24.739 -20.565   4.431  0.00  0.00    -0.275 OA
ENDROOT
BRANCH   1  12
ATOM     11  C   LIG    1       23.218 -20.658   7.376  0.00  0.00    +0.005 C 
ATOM     12  C   LIG    1       24.735 -20.516   7.317  0.00  0.00    +0.020 C 
ENDBRANCH   1  12
BRANCH   1  13
ATOM     13  C   LIG    1       26.976 -21.214   6.450  0.00  0.00    +0.020 C 
ATOM     14  C   LIG    1       27.452 -20.292   7.566  0.00  0.00    +0.005 C 
ENDBRANCH   1  13
TORSDOF 2
ENDMDL
