MODEL 1
REMARK VINA RESULT:      -2.9      0.000      0.000
REMARK  Name = *****
REMARK                            x       y       z     vdW  Elec       q    Type
REMARK                         _______ _______ _______ _____ _____    ______ ____
ROOT
ATOM      1  I   LIG    1       26.885 -20.721   6.868  0.00  0.00    -0.059 I 
ATOM      2  C   LIG    1       25.249 -21.414   5.727  0.00  0.00    +0.177 C 
ATOM      3  I   LIG    1       24.955 -20.046   4.145  0.00  0.00    -0.059 I 
ATOM      4  I   LIG    1       23.537 -21.338   6.959  0.00  0.00    -0.059 I 
ENDROOT
TORSDOF 0
ENDMDL
MODEL 2
REMARK VINA RESULT:      -2.8      0.058      2.955
REMARK  Name = *****
REMARK                            x       y       z     vdW  Elec       q    Type
REMARK                         _______ _______ _______ _____ _____    ______ ____
ROOT
ATOM      1  I   LIG    1       24.951 -20.029   4.115  0.00  0.00    -0.059 I 
ATOM      2  C   LIG    1       25.240 -21.375   5.715  0.00  0.00    +0.177 C 
ATOM      3  I   LIG    1       23.542 -21.250   6.964  0.00  0.00    -0.059 I 
ATOM      4  I   LIG    1       26.899 -20.693   6.828  0.00  0.00    -0.059 I 
ENDROOT
TORSDOF 0
ENDMDL
MODEL 3
REMARK VINA RESULT:      -2.8      0.060      2.957
REMARK  Name = *****
REMARK                            x       y       z     vdW  Elec       q    Type
REMARK                         _______ _______ _______ _____ _____    ______ ____
ROOT
ATOM      1  I   LIG    1       23.496 -21.302   6.905  0.00  0.00    -0.059 I 
ATOM      2  C   LIG    1       25.218 -21.390   5.687  0.00  0.00    +0.177 C 
ATOM      3  I   LIG    1       26.847 -20.701   6.841  0.00  0.00    -0.059 I 
ATOM      4  I   LIG    1       24.943 -20.028   4.098  0.00  0.00    -0.059 I 
ENDROOT
TORSDOF 0
ENDMDL
MODEL 4
REMARK VINA RESULT:      -2.5      1.766      3.734
REMARK  Name = *****
REMARK                            x       y       z     vdW  Elec       q    Type
REMARK                         _______ _______ _______ _____ _____    ______ ____
ROOT
ATOM      1  I   LIG    1       22.386 -18.979   4.546  0.00  0.00    -0.059 I 
ATOM      2  C   LIG    1       23.634 -20.656   4.840  0.00  0.00    +0.177 C 
ATOM      3  I   LIG    1       23.527 -21.176   6.884  0.00  0.00    -0.059 I 
ATOM      4  I   LIG    1       25.617 -20.050   4.442  0.00  0.00    -0.059 I 
ENDROOT
TORSDOF 0
ENDMDL
MODEL 5
REMARK VINA RESULT:      -2.5      1.774      2.236
REMARK  Name = *****
REMARK                            x       y       z     vdW  Elec       q    Type
REMARK                         _______ _______ _______ _____ _____    ______ ____
ROOT
ATOM      1  I   LIG    1       25.610 -20.057   4.430  0.00  0.00    -0.059 I 
ATOM      2  C   LIG    1       23.623 -20.646   4.831  0.00  0.00    +0.177 C 
ATOM      3  I   LIG    1       22.389 -18.958   4.537  0.00  0.00    -0.059 I 
ATOM      4  I   LIG    1       23.514 -21.165   6.875  0.00  0.00    -0.059 I 
ENDROOT
TORSDOF 0
ENDMDL
MODEL 6
REMARK VINA RESULT:      -2.5      1.835      2.690
REMARK  Name = *****
REMARK                            x       y       z     vdW  Elec       q    Type
REMARK                         _______ _______ _______ _____ _____    ______ ____
ROOT
ATOM      1  I   LIG    1       23.562 -21.086   6.868  0.00  0.00    -0.059 I 
ATOM      2  C   LIG    1       23.588 -20.596   4.815  0.00  0.00    +0.177 C 
ATOM      3  I   LIG    1       25.552 -19.991   4.332  0.00  0.00    -0.059 I 
ATOM      4  I   LIG    1       22.324 -18.927   4.544  0.00  0.00    -0.059 I 
ENDROOT
TORSDOF 0
ENDMDL
MODEL 7
REMARK VINA RESULT:      -2.2      0.831      2.548
REMARK  Name = *****
REMARK                            x       y       z     vdW  Elec       q    Type
REMARK                         _______ _______ _______ _____ _____    ______ ____
ROOT
ATOM      1  I   LIG    1       26.515 -20.817   6.577  0.00  0.00    -0.059 I 
ATOM      2  C   LIG    1       24.614 -20.183   5.914  0.00  0.00    +0.177 C 
ATOM      3  I   LIG    1       23.196 -21.572   6.635  0.00  0.00    -0.059 I 
ATOM      4  I   LIG    1       24.603 -20.299   3.807  0.00  0.00    -0.059 I 
ENDROOT
TORSDOF 0
ENDMDL
MODEL 8
REMARK VINA RESULT:      -2.2      0.737      2.517
REMARK  Name = *****
REMARK                            x       y       z     vdW  Elec       q    Type
REMARK                         _______ _______ _______ _____ _____    ______ ____
ROOT
ATOM      1  I   LIG    1       24.957 -20.014   3.959  0.00  0.00    -0.059 I 
ATOM      2  C   LIG    1       24.912 -20.119   6.067  0.00  0.00    +0.177 C 
ATOM      3  I   LIG    1       26.797 -20.822   6.709  0.00  0.00    -0.059 I 
ATOM      4  I   LIG    1       23.476 -21.572   6.601  0.00  0.00    -0.059 I 
ENDROOT
TORSDOF 0
ENDMDL
MODEL 9
REMARK VINA RESULT:      -2.1      7.185      8.156
REMARK  Name = *****
REMARK                            x       y       z     vdW  Elec       q    Type
REMARK                         _______ _______ _______ _____ _____    ______ ____
ROOT
ATOM      1  I   LIG    1       23.846 -14.683   4.310  0.00  0.00    -0.059 I 
ATOM      2  C   LIG    1       25.261 -13.196   3.814  0.00  0.00    +0.177 C 
ATOM      3  I   LIG    1       24.571 -12.222   2.072  0.00  0.00    -0.059 I 
ATOM      4  I   LIG    1       27.065 -14.175   3.322  0.00  0.00    -0.059 I 
ENDROOT
TORSDOF 0
ENDMDL
