MODEL 1
REMARK VINA RESULT:      -8.2      0.000      0.000
REMARK  Name = *****
REMARK                            x       y       z     vdW  Elec       q    Type
REMARK                         _______ _______ _______ _____ _____    ______ ____
ROOT
ATOM      1  C   LIG    1       27.732 -27.307  14.369  0.00  0.00    +0.014 C 
ATOM      2  C   LIG    1       27.122 -28.505  13.587  0.00  0.00    -0.003 C 
ATOM      3  C   LIG    1       28.220 -29.621  13.538  0.00  0.00    +0.121 C 
ATOM      4  C   LIG    1       28.604 -29.781  12.076  0.00  0.00    +0.032 C 
ATOM      5  C   LIG    1       28.268 -28.435  11.468  0.00  0.00    +0.007 C 
ATOM      6  C   LIG    1       26.912 -28.066  12.091  0.00  0.00    +0.001 C 
ATOM      7  C   LIG    1       25.616 -28.559  11.332  0.00  0.00    +0.003 C 
ATOM      8  C   LIG    1       24.450 -28.907  12.287  0.00  0.00    +0.023 C 
ATOM      9  C   LIG    1       23.262 -29.556  11.617  0.00  0.00    -0.041 A 
ATOM     10  C   LIG    1       23.455 -30.437  10.543  0.00  0.00    -0.040 A 
ATOM     11  C   LIG    1       24.852 -30.731  10.084  0.00  0.00    +0.039 C 
ATOM     12  C   LIG    1       22.346 -31.104  10.006  0.00  0.00    +0.049 A 
ATOM     13  C   LIG    1       21.074 -30.892  10.521  0.00  0.00    +0.117 A 
ATOM     14  C   LIG    1       20.871 -30.011  11.581  0.00  0.00    +0.045 A 
ATOM     15  C   LIG    1       21.971 -29.349  12.122  0.00  0.00    +0.008 A 
ATOM     16  C   LIG    1       24.902 -29.745  13.477  0.00  0.00    +0.009 C 
ATOM     17  C   LIG    1       25.809 -29.512  10.100  0.00  0.00    -0.003 C 
ATOM     18  C   LIG    1       25.845 -28.916  14.328  0.00  0.00    +0.010 C 
ENDROOT
BRANCH   3  19
ATOM     19  O   LIG    1       27.834 -30.863  14.101  0.00  0.00    -0.391 OA
ATOM     20  H   LIG    1       28.628 -31.334  14.404  0.00  0.00    +0.210 HD
ENDBRANCH   3  19
BRANCH  13  21
ATOM     21  O   LIG    1       20.031 -31.583   9.978  0.00  0.00    -0.507 OA
ATOM     22  H   LIG    1       19.297 -31.587  10.611  0.00  0.00    +0.292 HD
ENDBRANCH  13  21
BRANCH  17  23
ATOM     23  C   LIG    1       25.713 -28.746   8.738  0.00  0.00    +0.004 C 
BRANCH  23  24
ATOM     24  C   LIG    1       25.237 -29.563   7.516  0.00  0.00    +0.000 C 
BRANCH  24  25
ATOM     25  C   LIG    1       24.110 -28.865   6.750  0.00  0.00    +0.000 C 
BRANCH  25  26
ATOM     26  C   LIG    1       24.531 -28.460   5.327  0.00  0.00    -0.000 C 
BRANCH  26  27
ATOM     27  C   LIG    1       25.831 -27.644   5.276  0.00  0.00    -0.000 C 
BRANCH  27  28
ATOM     28  C   LIG    1       25.604 -26.133   5.336  0.00  0.00    +0.000 C 
BRANCH  28  29
ATOM     29  C   LIG    1       25.900 -25.582   6.734  0.00  0.00    +0.001 C 
BRANCH  29  30
ATOM     30  C   LIG    1       25.228 -24.220   6.938  0.00  0.00    +0.013 C 
BRANCH  30  31
ATOM     31  C   LIG    1       26.202 -23.084   7.236  0.00  0.00    +0.104 C 
BRANCH  31  32
ATOM     32  S   LIG    1       25.389 -21.642   7.979  0.00  0.00    +0.022 S 
ATOM     33  O   LIG    1       25.813 -21.542   9.417  0.00  0.00    -0.257 OA
BRANCH  32  34
ATOM     34  C   LIG    1       26.316 -20.375   7.051  0.00  0.00    +0.104 C 
BRANCH  34  35
ATOM     35  C   LIG    1       26.224 -20.612   5.542  0.00  0.00    +0.019 C 
BRANCH  35  36
ATOM     36  C   LIG    1       25.006 -19.927   4.908  0.00  0.00    +0.086 C 
BRANCH  36  37
ATOM     37  C   LIG    1       23.930 -20.922   4.482  0.00  0.00    +0.342 C 
ATOM     38  F   LIG    1       24.456 -22.179   4.548  0.00  0.00    -0.196 F 
ATOM     39  F   LIG    1       23.636 -20.710   3.169  0.00  0.00    -0.196 F 
BRANCH  37  40
ATOM     40  C   LIG    1       22.659 -20.822   5.345  0.00  0.00    +0.454 C 
ATOM     41  F   LIG    1       21.537 -21.029   4.613  0.00  0.00    -0.165 F 
ATOM     42  F   LIG    1       22.527 -19.606   5.927  0.00  0.00    -0.165 F 
ATOM     43  F   LIG    1       22.642 -21.739   6.347  0.00  0.00    -0.165 F 
ENDBRANCH  37  40
ENDBRANCH  36  37
ENDBRANCH  35  36
ENDBRANCH  34  35
ENDBRANCH  32  34
ENDBRANCH  31  32
ENDBRANCH  30  31
ENDBRANCH  29  30
ENDBRANCH  28  29
ENDBRANCH  27  28
ENDBRANCH  26  27
ENDBRANCH  25  26
ENDBRANCH  24  25
ENDBRANCH  23  24
ENDBRANCH  17  23
TORSDOF 17
ENDMDL
MODEL 2
REMARK VINA RESULT:      -8.0      3.118      5.878
REMARK  Name = *****
REMARK                            x       y       z     vdW  Elec       q    Type
REMARK                         _______ _______ _______ _____ _____    ______ ____
ROOT
ATOM      1  C   LIG    1       22.954 -32.742  12.548  0.00  0.00    +0.014 C 
ATOM      2  C   LIG    1       22.198 -31.420  12.231  0.00  0.00    -0.003 C 
ATOM      3  C   LIG    1       22.536 -31.048  10.748  0.00  0.00    +0.121 C 
ATOM      4  C   LIG    1       23.327 -29.752  10.800  0.00  0.00    +0.032 C 
ATOM      5  C   LIG    1       23.953 -29.769  12.180  0.00  0.00    +0.007 C 
ATOM      6  C   LIG    1       22.827 -30.269  13.099  0.00  0.00    +0.001 C 
ATOM      7  C   LIG    1       21.867 -29.176  13.717  0.00  0.00    +0.003 C 
ATOM      8  C   LIG    1       20.413 -29.675  13.894  0.00  0.00    +0.023 C 
ATOM      9  C   LIG    1       19.428 -28.607  14.305  0.00  0.00    -0.041 A 
ATOM     10  C   LIG    1       19.569 -27.298  13.824  0.00  0.00    -0.040 A 
ATOM     11  C   LIG    1       20.698 -26.982  12.891  0.00  0.00    +0.039 C 
ATOM     12  C   LIG    1       18.585 -26.351  14.138  0.00  0.00    +0.049 A 
ATOM     13  C   LIG    1       17.491 -26.699  14.919  0.00  0.00    +0.117 A 
ATOM     14  C   LIG    1       17.347 -27.995  15.410  0.00  0.00    +0.045 A 
ATOM     15  C   LIG    1       18.320 -28.941  15.098  0.00  0.00    +0.008 A 
ATOM     16  C   LIG    1       19.900 -30.417  12.665  0.00  0.00    +0.009 C 
ATOM     17  C   LIG    1       22.033 -27.695  13.226  0.00  0.00    -0.003 C 
ATOM     18  C   LIG    1       20.710 -31.686  12.486  0.00  0.00    +0.010 C 
ENDROOT
BRANCH   3  19
ATOM     19  O   LIG    1       21.413 -30.925   9.892  0.00  0.00    -0.391 OA
ATOM     20  H   LIG    1       21.512 -30.125   9.351  0.00  0.00    +0.210 HD
ENDBRANCH   3  19
BRANCH  13  21
ATOM     21  O   LIG    1       16.548 -25.747  15.178  0.00  0.00    -0.507 OA
ATOM     22  H   LIG    1       16.932 -24.874  15.003  0.00  0.00    +0.292 HD
ENDBRANCH  13  21
BRANCH  17  23
ATOM     23  C   LIG    1       22.858 -26.826  14.234  0.00  0.00    +0.004 C 
BRANCH  23  24
ATOM     24  C   LIG    1       24.159 -26.189  13.696  0.00  0.00    +0.000 C 
BRANCH  24  25
ATOM     25  C   LIG    1       25.402 -27.013  14.047  0.00  0.00    +0.000 C 
BRANCH  25  26
ATOM     26  C   LIG    1       26.453 -26.998  12.924  0.00  0.00    -0.000 C 
BRANCH  26  27
ATOM     27  C   LIG    1       27.249 -28.306  12.807  0.00  0.00    -0.000 C 
BRANCH  27  28
ATOM     28  C   LIG    1       27.452 -28.768  11.363  0.00  0.00    +0.000 C 
BRANCH  28  29
ATOM     29  C   LIG    1       26.630 -27.920  10.388  0.00  0.00    +0.001 C 
BRANCH  29  30
ATOM     30  C   LIG    1       26.278 -28.720   9.129  0.00  0.00    +0.013 C 
BRANCH  30  31
ATOM     31  C   LIG    1       26.194 -27.877   7.860  0.00  0.00    +0.104 C 
BRANCH  31  32
ATOM     32  S   LIG    1       25.050 -28.570   6.634  0.00  0.00    +0.022 S 
ATOM     33  O   LIG    1       23.963 -29.313   7.361  0.00  0.00    -0.257 OA
BRANCH  32  34
ATOM     34  C   LIG    1       24.345 -26.983   6.080  0.00  0.00    +0.104 C 
BRANCH  34  35
ATOM     35  C   LIG    1       25.298 -25.821   6.367  0.00  0.00    +0.019 C 
BRANCH  35  36
ATOM     36  C   LIG    1       24.939 -24.554   5.579  0.00  0.00    +0.086 C 
BRANCH  36  37
ATOM     37  C   LIG    1       24.852 -23.316   6.466  0.00  0.00    +0.342 C 
ATOM     38  F   LIG    1       25.537 -22.303   5.862  0.00  0.00    -0.196 F 
ATOM     39  F   LIG    1       25.513 -23.567   7.631  0.00  0.00    -0.196 F 
BRANCH  37  40
ATOM     40  C   LIG    1       23.399 -22.893   6.748  0.00  0.00    +0.454 C 
ATOM     41  F   LIG    1       23.302 -22.155   7.882  0.00  0.00    -0.165 F 
ATOM     42  F   LIG    1       22.575 -23.957   6.904  0.00  0.00    -0.165 F 
ATOM     43  F   LIG    1       22.878 -22.136   5.748  0.00  0.00    -0.165 F 
ENDBRANCH  37  40
ENDBRANCH  36  37
ENDBRANCH  35  36
ENDBRANCH  34  35
ENDBRANCH  32  34
ENDBRANCH  31  32
ENDBRANCH  30  31
ENDBRANCH  29  30
ENDBRANCH  28  29
ENDBRANCH  27  28
ENDBRANCH  26  27
ENDBRANCH  25  26
ENDBRANCH  24  25
ENDBRANCH  23  24
ENDBRANCH  17  23
TORSDOF 17
ENDMDL
MODEL 3
REMARK VINA RESULT:      -7.9      1.744      2.519
REMARK  Name = *****
REMARK                            x       y       z     vdW  Elec       q    Type
REMARK                         _______ _______ _______ _____ _____    ______ ____
ROOT
ATOM      1  C   LIG    1       26.477 -26.293  12.778  0.00  0.00    +0.014 C 
ATOM      2  C   LIG    1       26.172 -27.818  12.744  0.00  0.00    -0.003 C 
ATOM      3  C   LIG    1       27.179 -28.504  13.727  0.00  0.00    +0.121 C 
ATOM      4  C   LIG    1       28.077 -29.386  12.875  0.00  0.00    +0.032 C 
ATOM      5  C   LIG    1       28.027 -28.735  11.509  0.00  0.00    +0.007 C 
ATOM      6  C   LIG    1       26.547 -28.367  11.319  0.00  0.00    +0.001 C 
ATOM      7  C   LIG    1       25.615 -29.461  10.660  0.00  0.00    +0.003 C 
ATOM      8  C   LIG    1       24.168 -29.434  11.207  0.00  0.00    +0.023 C 
ATOM      9  C   LIG    1       23.299 -30.579  10.742  0.00  0.00    -0.041 A 
ATOM     10  C   LIG    1       23.856 -31.851  10.552  0.00  0.00    -0.040 A 
ATOM     11  C   LIG    1       25.314 -32.058  10.829  0.00  0.00    +0.039 C 
ATOM     12  C   LIG    1       23.011 -32.918  10.219  0.00  0.00    +0.049 A 
ATOM     13  C   LIG    1       21.644 -32.720  10.072  0.00  0.00    +0.117 A 
ATOM     14  C   LIG    1       21.083 -31.456  10.249  0.00  0.00    +0.045 A 
ATOM     15  C   LIG    1       21.919 -30.393  10.583  0.00  0.00    +0.008 A 
ATOM     16  C   LIG    1       24.122 -29.325  12.727  0.00  0.00    +0.009 C 
ATOM     17  C   LIG    1       26.228 -30.882  10.399  0.00  0.00    -0.003 C 
ATOM     18  C   LIG    1       24.700 -27.985  13.139  0.00  0.00    +0.010 C 
ENDROOT
BRANCH   3  19
ATOM     19  O   LIG    1       26.580 -29.248  14.773  0.00  0.00    -0.391 OA
ATOM     20  H   LIG    1       27.267 -29.751  15.241  0.00  0.00    +0.210 HD
ENDBRANCH   3  19
BRANCH  13  21
ATOM     21  O   LIG    1       20.860 -33.795   9.770  0.00  0.00    -0.507 OA
ATOM     22  H   LIG    1       21.294 -34.597  10.097  0.00  0.00    +0.292 HD
ENDBRANCH  13  21
BRANCH  17  23
ATOM     23  C   LIG    1       26.667 -31.071   8.908  0.00  0.00    +0.004 C 
BRANCH  23  24
ATOM     24  C   LIG    1       26.301 -32.418   8.244  0.00  0.00    +0.000 C 
BRANCH  24  25
ATOM     25  C   LIG    1       25.590 -32.233   6.900  0.00  0.00    +0.000 C 
BRANCH  25  26
ATOM     26  C   LIG    1       25.545 -30.761   6.458  0.00  0.00    -0.000 C 
BRANCH  26  27
ATOM     27  C   LIG    1       24.128 -30.170   6.421  0.00  0.00    -0.000 C 
BRANCH  27  28
ATOM     28  C   LIG    1       24.107 -28.641   6.373  0.00  0.00    +0.000 C 
BRANCH  28  29
ATOM     29  C   LIG    1       25.338 -28.047   7.064  0.00  0.00    +0.001 C 
BRANCH  29  30
ATOM     30  C   LIG    1       25.997 -26.981   6.183  0.00  0.00    +0.013 C 
BRANCH  30  31
ATOM     31  C   LIG    1       25.950 -25.573   6.770  0.00  0.00    +0.104 C 
BRANCH  31  32
ATOM     32  S   LIG    1       24.622 -24.562   6.056  0.00  0.00    +0.022 S 
ATOM     33  O   LIG    1       23.301 -25.132   6.492  0.00  0.00    -0.257 OA
BRANCH  32  34
ATOM     34  C   LIG    1       24.927 -23.071   7.060  0.00  0.00    +0.104 C 
BRANCH  34  35
ATOM     35  C   LIG    1       23.634 -22.289   7.302  0.00  0.00    +0.019 C 
BRANCH  35  36
ATOM     36  C   LIG    1       23.766 -20.803   6.942  0.00  0.00    +0.086 C 
BRANCH  36  37
ATOM     37  C   LIG    1       23.105 -20.462   5.611  0.00  0.00    +0.342 C 
ATOM     38  F   LIG    1       22.401 -19.304   5.764  0.00  0.00    -0.196 F 
ATOM     39  F   LIG    1       22.183 -21.422   5.322  0.00  0.00    -0.196 F 
BRANCH  37  40
ATOM     40  C   LIG    1       24.123 -20.327   4.464  0.00  0.00    +0.454 C 
ATOM     41  F   LIG    1       23.571 -20.633   3.263  0.00  0.00    -0.165 F 
ATOM     42  F   LIG    1       25.190 -21.147   4.624  0.00  0.00    -0.165 F 
ATOM     43  F   LIG    1       24.613 -19.065   4.353  0.00  0.00    -0.165 F 
ENDBRANCH  37  40
ENDBRANCH  36  37
ENDBRANCH  35  36
ENDBRANCH  34  35
ENDBRANCH  32  34
ENDBRANCH  31  32
ENDBRANCH  30  31
ENDBRANCH  29  30
ENDBRANCH  28  29
ENDBRANCH  27  28
ENDBRANCH  26  27
ENDBRANCH  25  26
ENDBRANCH  24  25
ENDBRANCH  23  24
ENDBRANCH  17  23
TORSDOF 17
ENDMDL
MODEL 4
REMARK VINA RESULT:      -7.7      2.559      3.175
REMARK  Name = *****
REMARK                            x       y       z     vdW  Elec       q    Type
REMARK                         _______ _______ _______ _____ _____    ______ ____
ROOT
ATOM      1  C   LIG    1       27.559 -27.272  14.159  0.00  0.00    +0.014 C 
ATOM      2  C   LIG    1       26.882 -28.521  13.525  0.00  0.00    -0.003 C 
ATOM      3  C   LIG    1       27.928 -29.684  13.585  0.00  0.00    +0.121 C 
ATOM      4  C   LIG    1       28.276 -30.023  12.145  0.00  0.00    +0.032 C 
ATOM      5  C   LIG    1       27.987 -28.739  11.395  0.00  0.00    +0.007 C 
ATOM      6  C   LIG    1       26.662 -28.241  11.993  0.00  0.00    +0.001 C 
ATOM      7  C   LIG    1       25.330 -28.755  11.314  0.00  0.00    +0.003 C 
ATOM      8  C   LIG    1       24.169 -28.941  12.319  0.00  0.00    +0.023 C 
ATOM      9  C   LIG    1       22.941 -29.606  11.744  0.00  0.00    -0.041 A 
ATOM     10  C   LIG    1       23.073 -30.608  10.772  0.00  0.00    -0.040 A 
ATOM     11  C   LIG    1       24.446 -31.016  10.329  0.00  0.00    +0.039 C 
ATOM     12  C   LIG    1       21.926 -31.279  10.330  0.00  0.00    +0.049 A 
ATOM     13  C   LIG    1       20.675 -30.953  10.837  0.00  0.00    +0.117 A 
ATOM     14  C   LIG    1       20.531 -29.952  11.795  0.00  0.00    +0.045 A 
ATOM     15  C   LIG    1       21.670 -29.284  12.241  0.00  0.00    +0.008 A 
ATOM     16  C   LIG    1       24.608 -29.661  13.588  0.00  0.00    +0.009 C 
ATOM     17  C   LIG    1       25.456 -29.848  10.194  0.00  0.00    -0.003 C 
ATOM     18  C   LIG    1       25.603 -28.787  14.327  0.00  0.00    +0.010 C 
ENDROOT
BRANCH   3  19
ATOM     19  O   LIG    1       27.500 -30.837  14.289  0.00  0.00    -0.391 OA
ATOM     20  H   LIG    1       26.843 -30.576  14.956  0.00  0.00    +0.210 HD
ENDBRANCH   3  19
BRANCH  13  21
ATOM     21  O   LIG    1       19.591 -31.652  10.391  0.00  0.00    -0.507 OA
ATOM     22  H   LIG    1       19.865 -32.208   9.647  0.00  0.00    +0.292 HD
ENDBRANCH  13  21
BRANCH  17  23
ATOM     23  C   LIG    1       25.366 -29.234   8.756  0.00  0.00    +0.004 C 
BRANCH  23  24
ATOM     24  C   LIG    1       24.381 -29.908   7.775  0.00  0.00    +0.000 C 
BRANCH  24  25
ATOM     25  C   LIG    1       24.605 -29.465   6.326  0.00  0.00    +0.000 C 
BRANCH  25  26
ATOM     26  C   LIG    1       24.442 -27.947   6.144  0.00  0.00    -0.000 C 
BRANCH  26  27
ATOM     27  C   LIG    1       25.239 -27.378   4.962  0.00  0.00    -0.000 C 
BRANCH  27  28
ATOM     28  C   LIG    1       25.606 -25.902   5.129  0.00  0.00    +0.000 C 
BRANCH  28  29
ATOM     29  C   LIG    1       25.898 -25.565   6.594  0.00  0.00    +0.001 C 
BRANCH  29  30
ATOM     30  C   LIG    1       25.844 -24.051   6.827  0.00  0.00    +0.013 C 
BRANCH  30  31
ATOM     31  C   LIG    1       24.452 -23.447   6.670  0.00  0.00    +0.104 C 
BRANCH  31  32
ATOM     32  S   LIG    1       24.385 -21.703   7.169  0.00  0.00    +0.022 S 
ATOM     33  O   LIG    1       23.084 -21.459   7.881  0.00  0.00    -0.257 OA
BRANCH  32  34
ATOM     34  C   LIG    1       25.690 -21.796   8.439  0.00  0.00    +0.104 C 
BRANCH  34  35
ATOM     35  C   LIG    1       26.543 -20.526   8.455  0.00  0.00    +0.019 C 
BRANCH  35  36
ATOM     36  C   LIG    1       27.253 -20.274   7.117  0.00  0.00    +0.086 C 
BRANCH  36  37
ATOM     37  C   LIG    1       28.749 -20.565   7.184  0.00  0.00    +0.342 C 
ATOM     38  F   LIG    1       29.082 -21.355   6.122  0.00  0.00    -0.196 F 
ATOM     39  F   LIG    1       28.999 -21.312   8.295  0.00  0.00    -0.196 F 
BRANCH  37  40
ATOM     40  C   LIG    1       29.599 -19.282   7.190  0.00  0.00    +0.454 C 
ATOM     41  F   LIG    1       29.471 -18.600   8.356  0.00  0.00    -0.165 F 
ATOM     42  F   LIG    1       29.249 -18.428   6.198  0.00  0.00    -0.165 F 
ATOM     43  F   LIG    1       30.924 -19.539   7.036  0.00  0.00    -0.165 F 
ENDBRANCH  37  40
ENDBRANCH  36  37
ENDBRANCH  35  36
ENDBRANCH  34  35
ENDBRANCH  32  34
ENDBRANCH  31  32
ENDBRANCH  30  31
ENDBRANCH  29  30
ENDBRANCH  28  29
ENDBRANCH  27  28
ENDBRANCH  26  27
ENDBRANCH  25  26
ENDBRANCH  24  25
ENDBRANCH  23  24
ENDBRANCH  17  23
TORSDOF 17
ENDMDL
MODEL 5
REMARK VINA RESULT:      -7.5      2.832      3.735
REMARK  Name = *****
REMARK                            x       y       z     vdW  Elec       q    Type
REMARK                         _______ _______ _______ _____ _____    ______ ____
ROOT
ATOM      1  C   LIG    1       25.368 -28.233  14.551  0.00  0.00    +0.014 C 
ATOM      2  C   LIG    1       25.811 -29.202  13.418  0.00  0.00    -0.003 C 
ATOM      3  C   LIG    1       27.321 -29.533  13.668  0.00  0.00    +0.121 C 
ATOM      4  C   LIG    1       28.089 -28.945  12.495  0.00  0.00    +0.032 C 
ATOM      5  C   LIG    1       27.196 -27.823  12.009  0.00  0.00    +0.007 C 
ATOM      6  C   LIG    1       25.780 -28.418  12.055  0.00  0.00    +0.001 C 
ATOM      7  C   LIG    1       25.276 -29.172  10.760  0.00  0.00    +0.003 C 
ATOM      8  C   LIG    1       24.341 -30.363  11.077  0.00  0.00    +0.023 C 
ATOM      9  C   LIG    1       23.989 -31.220   9.884  0.00  0.00    -0.041 A 
ATOM     10  C   LIG    1       24.935 -31.438   8.872  0.00  0.00    -0.040 A 
ATOM     11  C   LIG    1       26.296 -30.823   9.001  0.00  0.00    +0.039 C 
ATOM     12  C   LIG    1       24.619 -32.318   7.828  0.00  0.00    +0.049 A 
ATOM     13  C   LIG    1       23.388 -32.959   7.790  0.00  0.00    +0.117 A 
ATOM     14  C   LIG    1       22.438 -32.741   8.785  0.00  0.00    +0.045 A 
ATOM     15  C   LIG    1       22.748 -31.870   9.827  0.00  0.00    +0.008 A 
ATOM     16  C   LIG    1       24.873 -31.235  12.209  0.00  0.00    +0.009 C 
ATOM     17  C   LIG    1       26.305 -29.392   9.596  0.00  0.00    -0.003 C 
ATOM     18  C   LIG    1       24.884 -30.421  13.489  0.00  0.00    +0.010 C 
ENDROOT
BRANCH   3  19
ATOM     19  O   LIG    1       27.613 -30.910  13.829  0.00  0.00    -0.391 OA
ATOM     20  H   LIG    1       27.527 -31.146  14.767  0.00  0.00    +0.210 HD
ENDBRANCH   3  19
BRANCH  13  21
ATOM     21  O   LIG    1       23.138 -33.824   6.765  0.00  0.00    -0.507 OA
ATOM     22  H   LIG    1       23.261 -33.356   5.926  0.00  0.00    +0.292 HD
ENDBRANCH  13  21
BRANCH  17  23
ATOM     23  C   LIG    1       26.133 -28.341   8.448  0.00  0.00    +0.004 C 
BRANCH  23  24
ATOM     24  C   LIG    1       24.954 -28.565   7.475  0.00  0.00    +0.000 C 
BRANCH  24  25
ATOM     25  C   LIG    1       25.209 -27.946   6.097  0.00  0.00    +0.000 C 
BRANCH  25  26
ATOM     26  C   LIG    1       26.307 -26.870   6.131  0.00  0.00    -0.000 C 
BRANCH  26  27
ATOM     27  C   LIG    1       25.840 -25.495   5.631  0.00  0.00    -0.000 C 
BRANCH  27  28
ATOM     28  C   LIG    1       25.334 -24.581   6.749  0.00  0.00    +0.000 C 
BRANCH  28  29
ATOM     29  C   LIG    1       23.831 -24.319   6.616  0.00  0.00    +0.001 C 
BRANCH  29  30
ATOM     30  C   LIG    1       23.517 -22.830   6.793  0.00  0.00    +0.013 C 
BRANCH  30  31
ATOM     31  C   LIG    1       23.723 -21.997   5.531  0.00  0.00    +0.104 C 
BRANCH  31  32
ATOM     32  S   LIG    1       25.239 -21.000   5.591  0.00  0.00    +0.022 S 
ATOM     33  O   LIG    1       25.012 -19.737   4.808  0.00  0.00    -0.257 OA
BRANCH  32  34
ATOM     34  C   LIG    1       25.138 -20.566   7.359  0.00  0.00    +0.104 C 
BRANCH  34  35
ATOM     35  C   LIG    1       26.400 -20.997   8.111  0.00  0.00    +0.019 C 
BRANCH  35  36
ATOM     36  C   LIG    1       27.612 -21.165   7.184  0.00  0.00    +0.086 C 
BRANCH  36  37
ATOM     37  C   LIG    1       28.790 -20.289   7.598  0.00  0.00    +0.342 C 
ATOM     38  F   LIG    1       29.786 -21.099   8.061  0.00  0.00    -0.196 F 
ATOM     39  F   LIG    1       28.413 -19.522   8.658  0.00  0.00    -0.196 F 
BRANCH  37  40
ATOM     40  C   LIG    1       29.304 -19.407   6.445  0.00  0.00    +0.454 C 
ATOM     41  F   LIG    1       30.554 -19.763   6.059  0.00  0.00    -0.165 F 
ATOM     42  F   LIG    1       29.359 -18.097   6.787  0.00  0.00    -0.165 F 
ATOM     43  F   LIG    1       28.519 -19.492   5.341  0.00  0.00    -0.165 F 
ENDBRANCH  37  40
ENDBRANCH  36  37
ENDBRANCH  35  36
ENDBRANCH  34  35
ENDBRANCH  32  34
ENDBRANCH  31  32
ENDBRANCH  30  31
ENDBRANCH  29  30
ENDBRANCH  28  29
ENDBRANCH  27  28
ENDBRANCH  26  27
ENDBRANCH  25  26
ENDBRANCH  24  25
ENDBRANCH  23  24
ENDBRANCH  17  23
TORSDOF 17
ENDMDL
MODEL 6
REMARK VINA RESULT:      -7.4      2.333      4.986
REMARK  Name = *****
REMARK                            x       y       z     vdW  Elec       q    Type
REMARK                         _______ _______ _______ _____ _____    ______ ____
ROOT
ATOM      1  C   LIG    1       25.541 -33.003  14.388  0.00  0.00    +0.014 C 
ATOM      2  C   LIG    1       25.193 -31.496  14.217  0.00  0.00    -0.003 C 
ATOM      3  C   LIG    1       23.653 -31.413  13.947  0.00  0.00    +0.121 C 
ATOM      4  C   LIG    1       23.494 -30.881  12.532  0.00  0.00    +0.032 C 
ATOM      5  C   LIG    1       24.787 -31.280  11.851  0.00  0.00    +0.007 C 
ATOM      6  C   LIG    1       25.873 -30.978  12.897  0.00  0.00    +0.001 C 
ATOM      7  C   LIG    1       26.495 -29.525  12.886  0.00  0.00    +0.003 C 
ATOM      8  C   LIG    1       26.885 -29.021  14.296  0.00  0.00    +0.023 C 
ATOM      9  C   LIG    1       27.307 -27.572  14.351  0.00  0.00    -0.041 A 
ATOM     10  C   LIG    1       26.695 -26.629  13.513  0.00  0.00    -0.040 A 
ATOM     11  C   LIG    1       25.612 -27.078  12.580  0.00  0.00    +0.039 C 
ATOM     12  C   LIG    1       27.033 -25.277  13.655  0.00  0.00    +0.049 A 
ATOM     13  C   LIG    1       27.964 -24.875  14.604  0.00  0.00    +0.117 A 
ATOM     14  C   LIG    1       28.585 -25.806  15.434  0.00  0.00    +0.045 A 
ATOM     15  C   LIG    1       28.250 -27.151  15.299  0.00  0.00    +0.008 A 
ATOM     16  C   LIG    1       25.797 -29.289  15.330  0.00  0.00    +0.009 C 
ATOM     17  C   LIG    1       25.854 -28.462  11.925  0.00  0.00    -0.003 C 
ATOM     18  C   LIG    1       25.642 -30.788  15.500  0.00  0.00    +0.010 C 
ENDROOT
BRANCH   3  19
ATOM     19  O   LIG    1       22.926 -30.625  14.872  0.00  0.00    -0.391 OA
ATOM     20  H   LIG    1       23.467 -29.862  15.134  0.00  0.00    +0.210 HD
ENDBRANCH   3  19
BRANCH  13  21
ATOM     21  O   LIG    1       28.241 -23.544  14.718  0.00  0.00    -0.507 OA
ATOM     22  H   LIG    1       28.679 -23.246  13.907  0.00  0.00    +0.292 HD
ENDBRANCH  13  21
BRANCH  17  23
ATOM     23  C   LIG    1       26.676 -28.287  10.604  0.00  0.00    +0.004 C 
BRANCH  23  24
ATOM     24  C   LIG    1       26.215 -29.120   9.387  0.00  0.00    +0.000 C 
BRANCH  24  25
ATOM     25  C   LIG    1       26.939 -30.468   9.295  0.00  0.00    +0.000 C 
BRANCH  25  26
ATOM     26  C   LIG    1       26.253 -31.437   8.317  0.00  0.00    -0.000 C 
BRANCH  26  27
ATOM     27  C   LIG    1       24.880 -30.952   7.829  0.00  0.00    -0.000 C 
BRANCH  27  28
ATOM     28  C   LIG    1       24.823 -30.702   6.321  0.00  0.00    +0.000 C 
BRANCH  28  29
ATOM     29  C   LIG    1       23.981 -29.466   5.994  0.00  0.00    +0.001 C 
BRANCH  29  30
ATOM     30  C   LIG    1       24.875 -28.278   5.622  0.00  0.00    +0.013 C 
BRANCH  30  31
ATOM     31  C   LIG    1       24.404 -26.943   6.193  0.00  0.00    +0.104 C 
BRANCH  31  32
ATOM     32  S   LIG    1       25.776 -25.808   6.541  0.00  0.00    +0.022 S 
ATOM     33  O   LIG    1       26.937 -26.176   5.659  0.00  0.00    -0.257 OA
BRANCH  32  34
ATOM     34  C   LIG    1       25.005 -24.318   5.827  0.00  0.00    +0.104 C 
BRANCH  34  35
ATOM     35  C   LIG    1       24.879 -23.204   6.869  0.00  0.00    +0.019 C 
BRANCH  35  36
ATOM     36  C   LIG    1       23.507 -22.517   6.836  0.00  0.00    +0.086 C 
BRANCH  36  37
ATOM     37  C   LIG    1       23.610 -21.014   6.592  0.00  0.00    +0.342 C 
ATOM     38  F   LIG    1       24.926 -20.693   6.431  0.00  0.00    -0.196 F 
ATOM     39  F   LIG    1       23.204 -20.360   7.716  0.00  0.00    -0.196 F 
BRANCH  37  40
ATOM     40  C   LIG    1       22.790 -20.557   5.372  0.00  0.00    +0.454 C 
ATOM     41  F   LIG    1       23.520 -20.600   4.230  0.00  0.00    -0.165 F 
ATOM     42  F   LIG    1       22.343 -19.284   5.501  0.00  0.00    -0.165 F 
ATOM     43  F   LIG    1       21.698 -21.336   5.162  0.00  0.00    -0.165 F 
ENDBRANCH  37  40
ENDBRANCH  36  37
ENDBRANCH  35  36
ENDBRANCH  34  35
ENDBRANCH  32  34
ENDBRANCH  31  32
ENDBRANCH  30  31
ENDBRANCH  29  30
ENDBRANCH  28  29
ENDBRANCH  27  28
ENDBRANCH  26  27
ENDBRANCH  25  26
ENDBRANCH  24  25
ENDBRANCH  23  24
ENDBRANCH  17  23
TORSDOF 17
ENDMDL
MODEL 7
REMARK VINA RESULT:      -7.3      4.525     10.256
REMARK  Name = *****
REMARK                            x       y       z     vdW  Elec       q    Type
REMARK                         _______ _______ _______ _____ _____    ______ ____
ROOT
ATOM      1  C   LIG    1       31.589 -19.586   6.418  0.00  0.00    +0.014 C 
ATOM      2  C   LIG    1       30.117 -19.350   6.860  0.00  0.00    -0.003 C 
ATOM      3  C   LIG    1       30.170 -18.557   8.209  0.00  0.00    +0.121 C 
ATOM      4  C   LIG    1       29.595 -19.479   9.272  0.00  0.00    +0.032 C 
ATOM      5  C   LIG    1       29.837 -20.866   8.712  0.00  0.00    +0.007 C 
ATOM      6  C   LIG    1       29.479 -20.741   7.223  0.00  0.00    +0.001 C 
ATOM      7  C   LIG    1       27.974 -21.011   6.822  0.00  0.00    +0.003 C 
ATOM      8  C   LIG    1       27.497 -20.141   5.634  0.00  0.00    +0.023 C 
ATOM      9  C   LIG    1       26.018 -20.233   5.342  0.00  0.00    -0.041 A 
ATOM     10  C   LIG    1       25.103 -20.387   6.393  0.00  0.00    -0.040 A 
ATOM     11  C   LIG    1       25.612 -20.443   7.801  0.00  0.00    +0.039 C 
ATOM     12  C   LIG    1       23.731 -20.367   6.105  0.00  0.00    +0.049 A 
ATOM     13  C   LIG    1       23.284 -20.207   4.800  0.00  0.00    +0.117 A 
ATOM     14  C   LIG    1       24.186 -20.064   3.748  0.00  0.00    +0.045 A 
ATOM     15  C   LIG    1       25.551 -20.079   4.029  0.00  0.00    +0.008 A 
ATOM     16  C   LIG    1       27.913 -18.682   5.778  0.00  0.00    +0.009 C 
ATOM     17  C   LIG    1       26.937 -21.227   7.980  0.00  0.00    -0.003 C 
ATOM     18  C   LIG    1       29.426 -18.596   5.718  0.00  0.00    +0.010 C 
ENDROOT
BRANCH   3  19
ATOM     19  O   LIG    1       29.496 -17.311   8.197  0.00  0.00    -0.391 OA
ATOM     20  H   LIG    1       29.262 -17.067   9.108  0.00  0.00    +0.210 HD
ENDBRANCH   3  19
BRANCH  13  21
ATOM     21  O   LIG    1       21.939 -20.171   4.574  0.00  0.00    -0.507 OA
ATOM     22  H   LIG    1       21.503 -19.793   5.352  0.00  0.00    +0.292 HD
ENDBRANCH  13  21
BRANCH  17  23
ATOM     23  C   LIG    1       26.626 -22.743   8.220  0.00  0.00    +0.004 C 
BRANCH  23  24
ATOM     24  C   LIG    1       26.146 -23.554   6.995  0.00  0.00    +0.000 C 
BRANCH  24  25
ATOM     25  C   LIG    1       24.624 -23.730   6.972  0.00  0.00    +0.000 C 
BRANCH  25  26
ATOM     26  C   LIG    1       24.188 -24.958   6.155  0.00  0.00    -0.000 C 
BRANCH  26  27
ATOM     27  C   LIG    1       25.150 -25.312   5.011  0.00  0.00    -0.000 C 
BRANCH  27  28
ATOM     28  C   LIG    1       25.716 -26.730   5.109  0.00  0.00    +0.000 C 
BRANCH  28  29
ATOM     29  C   LIG    1       25.352 -27.383   6.445  0.00  0.00    +0.001 C 
BRANCH  29  30
ATOM     30  C   LIG    1       24.429 -28.587   6.231  0.00  0.00    +0.013 C 
BRANCH  30  31
ATOM     31  C   LIG    1       25.102 -29.771   5.541  0.00  0.00    +0.104 C 
BRANCH  31  32
ATOM     32  S   LIG    1       25.035 -31.289   6.534  0.00  0.00    +0.022 S 
ATOM     33  O   LIG    1       26.433 -31.645   6.957  0.00  0.00    -0.257 OA
BRANCH  32  34
ATOM     34  C   LIG    1       24.200 -30.560   7.981  0.00  0.00    +0.104 C 
BRANCH  34  35
ATOM     35  C   LIG    1       24.920 -30.924   9.281  0.00  0.00    +0.019 C 
BRANCH  35  36
ATOM     36  C   LIG    1       25.261 -29.694  10.133  0.00  0.00    +0.086 C 
BRANCH  36  37
ATOM     37  C   LIG    1       26.722 -29.274   9.997  0.00  0.00    +0.342 C 
ATOM     38  F   LIG    1       26.810 -28.335   9.010  0.00  0.00    -0.196 F 
ATOM     39  F   LIG    1       27.444 -30.342   9.557  0.00  0.00    -0.196 F 
BRANCH  37  40
ATOM     40  C   LIG    1       27.305 -28.730  11.313  0.00  0.00    +0.454 C 
ATOM     41  F   LIG    1       27.173 -27.383  11.402  0.00  0.00    -0.165 F 
ATOM     42  F   LIG    1       28.626 -29.002  11.441  0.00  0.00    -0.165 F 
ATOM     43  F   LIG    1       26.689 -29.251  12.405  0.00  0.00    -0.165 F 
ENDBRANCH  37  40
ENDBRANCH  36  37
ENDBRANCH  35  36
ENDBRANCH  34  35
ENDBRANCH  32  34
ENDBRANCH  31  32
ENDBRANCH  30  31
ENDBRANCH  29  30
ENDBRANCH  28  29
ENDBRANCH  27  28
ENDBRANCH  26  27
ENDBRANCH  25  26
ENDBRANCH  24  25
ENDBRANCH  23  24
ENDBRANCH  17  23
TORSDOF 17
ENDMDL
MODEL 8
REMARK VINA RESULT:      -7.0      4.424     10.191
REMARK  Name = *****
REMARK                            x       y       z     vdW  Elec       q    Type
REMARK                         _______ _______ _______ _____ _____    ______ ____
ROOT
ATOM      1  C   LIG    1       31.523 -19.749   6.458  0.00  0.00    +0.014 C 
ATOM      2  C   LIG    1       30.055 -19.496   6.904  0.00  0.00    -0.003 C 
ATOM      3  C   LIG    1       30.122 -18.709   8.257  0.00  0.00    +0.121 C 
ATOM      4  C   LIG    1       29.536 -19.628   9.317  0.00  0.00    +0.032 C 
ATOM      5  C   LIG    1       29.760 -21.015   8.751  0.00  0.00    +0.007 C 
ATOM      6  C   LIG    1       29.400 -20.880   7.263  0.00  0.00    +0.001 C 
ATOM      7  C   LIG    1       27.890 -21.129   6.864  0.00  0.00    +0.003 C 
ATOM      8  C   LIG    1       27.422 -20.249   5.681  0.00  0.00    +0.023 C 
ATOM      9  C   LIG    1       25.942 -20.321   5.392  0.00  0.00    -0.041 A 
ATOM     10  C   LIG    1       25.027 -20.466   6.444  0.00  0.00    -0.040 A 
ATOM     11  C   LIG    1       25.538 -20.534   7.851  0.00  0.00    +0.039 C 
ATOM     12  C   LIG    1       23.655 -20.428   6.159  0.00  0.00    +0.049 A 
ATOM     13  C   LIG    1       23.207 -20.257   4.856  0.00  0.00    +0.117 A 
ATOM     14  C   LIG    1       24.109 -20.121   3.803  0.00  0.00    +0.045 A 
ATOM     15  C   LIG    1       25.473 -20.155   4.081  0.00  0.00    +0.008 A 
ATOM     16  C   LIG    1       27.857 -18.795   5.830  0.00  0.00    +0.009 C 
ATOM     17  C   LIG    1       26.853 -21.337   8.024  0.00  0.00    -0.003 C 
ATOM     18  C   LIG    1       29.371 -18.729   5.767  0.00  0.00    +0.010 C 
ENDROOT
BRANCH   3  19
ATOM     19  O   LIG    1       29.463 -17.455   8.251  0.00  0.00    -0.391 OA
ATOM     20  H   LIG    1       29.283 -17.186   9.167  0.00  0.00    +0.210 HD
ENDBRANCH   3  19
BRANCH  13  21
ATOM     21  O   LIG    1       21.862 -20.203   4.634  0.00  0.00    -0.507 OA
ATOM     22  H   LIG    1       21.668 -19.431   4.082  0.00  0.00    +0.292 HD
ENDBRANCH  13  21
BRANCH  17  23
ATOM     23  C   LIG    1       26.524 -22.849   8.259  0.00  0.00    +0.004 C 
BRANCH  23  24
ATOM     24  C   LIG    1       26.097 -23.666   7.018  0.00  0.00    +0.000 C 
BRANCH  24  25
ATOM     25  C   LIG    1       24.589 -23.936   6.988  0.00  0.00    +0.000 C 
BRANCH  25  26
ATOM     26  C   LIG    1       24.221 -25.102   6.055  0.00  0.00    -0.000 C 
BRANCH  26  27
ATOM     27  C   LIG    1       25.386 -25.582   5.177  0.00  0.00    -0.000 C 
BRANCH  27  28
ATOM     28  C   LIG    1       25.454 -27.103   5.033  0.00  0.00    +0.000 C 
BRANCH  28  29
ATOM     29  C   LIG    1       24.853 -27.804   6.254  0.00  0.00    +0.001 C 
BRANCH  29  30
ATOM     30  C   LIG    1       24.048 -29.038   5.835  0.00  0.00    +0.013 C 
BRANCH  30  31
ATOM     31  C   LIG    1       24.427 -30.312   6.586  0.00  0.00    +0.104 C 
BRANCH  31  32
ATOM     32  S   LIG    1       24.306 -30.125   8.387  0.00  0.00    +0.022 S 
ATOM     33  O   LIG    1       23.084 -30.859   8.863  0.00  0.00    -0.257 OA
BRANCH  32  34
ATOM     34  C   LIG    1       25.753 -31.151   8.805  0.00  0.00    +0.104 C 
BRANCH  34  35
ATOM     35  C   LIG    1       26.859 -30.316   9.455  0.00  0.00    +0.019 C 
BRANCH  35  36
ATOM     36  C   LIG    1       26.388 -28.905   9.834  0.00  0.00    +0.086 C 
BRANCH  36  37
ATOM     37  C   LIG    1       26.857 -28.486  11.224  0.00  0.00    +0.342 C 
ATOM     38  F   LIG    1       27.061 -27.137  11.221  0.00  0.00    -0.196 F 
ATOM     39  F   LIG    1       28.076 -29.045  11.461  0.00  0.00    -0.196 F 
BRANCH  37  40
ATOM     40  C   LIG    1       25.857 -28.877  12.327  0.00  0.00    +0.454 C 
ATOM     41  F   LIG    1       26.364 -28.656  13.566  0.00  0.00    -0.165 F 
ATOM     42  F   LIG    1       25.519 -30.188  12.273  0.00  0.00    -0.165 F 
ATOM     43  F   LIG    1       24.700 -28.171  12.251  0.00  0.00    -0.165 F 
ENDBRANCH  37  40
ENDBRANCH  36  37
ENDBRANCH  35  36
ENDBRANCH  34  35
ENDBRANCH  32  34
ENDBRANCH  31  32
ENDBRANCH  30  31
ENDBRANCH  29  30
ENDBRANCH  28  29
ENDBRANCH  27  28
ENDBRANCH  26  27
ENDBRANCH  25  26
ENDBRANCH  24  25
ENDBRANCH  23  24
ENDBRANCH  17  23
TORSDOF 17
ENDMDL
MODEL 9
REMARK VINA RESULT:      -6.9      2.928      5.444
REMARK  Name = *****
REMARK                            x       y       z     vdW  Elec       q    Type
REMARK                         _______ _______ _______ _____ _____    ______ ____
ROOT
ATOM      1  C   LIG    1       20.731 -33.608  12.533  0.00  0.00    +0.014 C 
ATOM      2  C   LIG    1       21.450 -32.230  12.482  0.00  0.00    -0.003 C 
ATOM      3  C   LIG    1       20.376 -31.173  12.058  0.00  0.00    +0.121 C 
ATOM      4  C   LIG    1       20.803 -30.648  10.697  0.00  0.00    +0.032 C 
ATOM      5  C   LIG    1       21.632 -31.779  10.122  0.00  0.00    +0.007 C 
ATOM      6  C   LIG    1       22.491 -32.257  11.303  0.00  0.00    +0.001 C 
ATOM      7  C   LIG    1       23.887 -31.545  11.509  0.00  0.00    +0.003 C 
ATOM      8  C   LIG    1       24.293 -31.424  12.997  0.00  0.00    +0.023 C 
ATOM      9  C   LIG    1       25.525 -30.588  13.247  0.00  0.00    -0.041 A 
ATOM     10  C   LIG    1       25.785 -29.464  12.451  0.00  0.00    -0.040 A 
ATOM     11  C   LIG    1       24.817 -29.101  11.364  0.00  0.00    +0.039 C 
ATOM     12  C   LIG    1       26.879 -28.647  12.767  0.00  0.00    +0.049 A 
ATOM     13  C   LIG    1       27.699 -28.948  13.846  0.00  0.00    +0.117 A 
ATOM     14  C   LIG    1       27.455 -30.069  14.638  0.00  0.00    +0.045 A 
ATOM     15  C   LIG    1       26.366 -30.882  14.329  0.00  0.00    +0.008 A 
ATOM     16  C   LIG    1       23.144 -30.940  13.875  0.00  0.00    +0.009 C 
ATOM     17  C   LIG    1       24.219 -30.309  10.601  0.00  0.00    -0.003 C 
ATOM     18  C   LIG    1       22.050 -31.990  13.872  0.00  0.00    +0.010 C 
ENDROOT
BRANCH   3  19
ATOM     19  O   LIG    1       20.188 -30.110  12.976  0.00  0.00    -0.391 OA
ATOM     20  H   LIG    1       19.236 -29.952  13.090  0.00  0.00    +0.210 HD
ENDBRANCH   3  19
BRANCH  13  21
ATOM     21  O   LIG    1       28.737 -28.109  14.127  0.00  0.00    -0.507 OA
ATOM     22  H   LIG    1       29.387 -28.169  13.411  0.00  0.00    +0.292 HD
ENDBRANCH  13  21
BRANCH  17  23
ATOM     23  C   LIG    1       25.149 -30.691   9.400  0.00  0.00    +0.004 C 
BRANCH  23  24
ATOM     24  C   LIG    1       25.620 -29.531   8.494  0.00  0.00    +0.000 C 
BRANCH  24  25
ATOM     25  C   LIG    1       24.542 -29.096   7.496  0.00  0.00    +0.000 C 
BRANCH  25  26
ATOM     26  C   LIG    1       25.123 -28.303   6.313  0.00  0.00    -0.000 C 
BRANCH  26  27
ATOM     27  C   LIG    1       24.571 -26.875   6.196  0.00  0.00    -0.000 C 
BRANCH  27  28
ATOM     28  C   LIG    1       25.635 -25.838   5.834  0.00  0.00    +0.000 C 
BRANCH  28  29
ATOM     29  C   LIG    1       25.000 -24.494   5.468  0.00  0.00    +0.001 C 
BRANCH  29  30
ATOM     30  C   LIG    1       24.243 -23.903   6.661  0.00  0.00    +0.013 C 
BRANCH  30  31
ATOM     31  C   LIG    1       23.379 -22.694   6.313  0.00  0.00    +0.104 C 
BRANCH  31  32
ATOM     32  S   LIG    1       23.948 -21.172   7.121  0.00  0.00    +0.022 S 
ATOM     33  O   LIG    1       24.517 -21.528   8.466  0.00  0.00    -0.257 OA
BRANCH  32  34
ATOM     34  C   LIG    1       25.353 -20.852   6.005  0.00  0.00    +0.104 C 
BRANCH  34  35
ATOM     35  C   LIG    1       26.690 -21.054   6.721  0.00  0.00    +0.019 C 
BRANCH  35  36
ATOM     36  C   LIG    1       27.819 -20.209   6.116  0.00  0.00    +0.086 C 
BRANCH  36  37
ATOM     37  C   LIG    1       28.933 -19.916   7.117  0.00  0.00    +0.342 C 
ATOM     38  F   LIG    1       29.646 -21.062   7.315  0.00  0.00    -0.196 F 
ATOM     39  F   LIG    1       28.370 -19.618   8.321  0.00  0.00    -0.196 F 
BRANCH  37  40
ATOM     40  C   LIG    1       29.858 -18.777   6.653  0.00  0.00    +0.454 C 
ATOM     41  F   LIG    1       31.101 -19.230   6.353  0.00  0.00    -0.165 F 
ATOM     42  F   LIG    1       30.010 -17.821   7.601  0.00  0.00    -0.165 F 
ATOM     43  F   LIG    1       29.394 -18.155   5.539  0.00  0.00    -0.165 F 
ENDBRANCH  37  40
ENDBRANCH  36  37
ENDBRANCH  35  36
ENDBRANCH  34  35
ENDBRANCH  32  34
ENDBRANCH  31  32
ENDBRANCH  30  31
ENDBRANCH  29  30
ENDBRANCH  28  29
ENDBRANCH  27  28
ENDBRANCH  26  27
ENDBRANCH  25  26
ENDBRANCH  24  25
ENDBRANCH  23  24
ENDBRANCH  17  23
TORSDOF 17
ENDMDL
