MODEL 1
REMARK VINA RESULT:      -5.0      0.000      0.000
REMARK  Name = *****
REMARK                            x       y       z     vdW  Elec       q    Type
REMARK                         _______ _______ _______ _____ _____    ______ ____
ROOT
ATOM      1  C   LIG    1       24.441 -31.353   9.264  0.00  0.00    +0.122 C 
ATOM      2  C   LIG    1       25.099 -31.031   7.891  0.00  0.00    +0.036 C 
ATOM      3  C   LIG    1       26.536 -31.598   7.703  0.00  0.00    +0.028 C 
ATOM      4  C   LIG    1       27.087 -32.433   8.869  0.00  0.00    +0.058 C 
ATOM      5  N   LIG    1       26.800 -31.814  10.159  0.00  0.00    -0.296 NA
ATOM      6  C   LIG    1       26.360 -33.775   9.032  0.00  0.00    +0.020 C 
ATOM      7  C   LIG    1       25.363 -33.531  10.165  0.00  0.00    +0.021 C 
ATOM      8  C   LIG    1       25.359 -32.002  10.337  0.00  0.00    +0.071 C 
ENDROOT
BRANCH   2   9
ATOM      9  C   LIG    1       25.035 -29.601   7.340  0.00  0.00    -0.043 A 
ATOM     10  C   LIG    1       25.817 -28.545   7.832  0.00  0.00    +0.005 A 
ATOM     11  C   LIG    1       25.776 -27.273   7.248  0.00  0.00    +0.014 A 
ATOM     12  C   LIG    1       24.940 -27.035   6.162  0.00  0.00    +0.013 A 
ATOM     13  I   LIG    1       24.874 -25.145   5.303  0.00  0.00    -0.044 I 
ATOM     14  C   LIG    1       24.152 -28.062   5.654  0.00  0.00    +0.014 A 
ATOM     15  C   LIG    1       24.205 -29.334   6.235  0.00  0.00    +0.005 A 
ENDBRANCH   2   9
BRANCH   1  16
ATOM     16  C   LIG    1       23.541 -30.282   9.865  0.00  0.00    +0.312 C 
ATOM     17  O   LIG    1       23.897 -29.404  10.629  0.00  0.00    -0.251 OA
BRANCH  16  19
ATOM     18  C   LIG    1       21.445 -31.159  10.456  0.00  0.00    +0.280 C 
ATOM     19  O   LIG    1       22.246 -30.493   9.477  0.00  0.00    -0.468 OA
ENDBRANCH  16  19
ENDBRANCH   1  16
BRANCH   5  20
ATOM     20  C   LIG    1       27.395 -30.512  10.411  0.00  0.00    +0.087 C 
BRANCH  20  21
ATOM     21  C   LIG    1       27.004 -29.948  11.780  0.00  0.00    +0.049 C 
BRANCH  21  22
ATOM     22  C   LIG    1       27.276 -28.461  11.864  0.00  0.00    +0.214 C 
ATOM     23  F   LIG    1       27.059 -27.893  10.649  0.00  0.00    -0.249 F 
ENDBRANCH  21  22
ENDBRANCH  20  21
ENDBRANCH   5  20
TORSDOF 6
ENDMDL
MODEL 2
REMARK VINA RESULT:      -4.8      3.220      5.291
REMARK  Name = *****
REMARK                            x       y       z     vdW  Elec       q    Type
REMARK                         _______ _______ _______ _____ _____    ______ ____
ROOT
ATOM      1  C   LIG    1       25.931 -31.712   8.155  0.00  0.00    +0.122 C 
ATOM      2  C   LIG    1       24.554 -32.263   8.627  0.00  0.00    +0.036 C 
ATOM      3  C   LIG    1       23.496 -32.438   7.500  0.00  0.00    +0.028 C 
ATOM      4  C   LIG    1       23.963 -32.092   6.079  0.00  0.00    +0.058 C 
ATOM      5  N   LIG    1       24.739 -30.856   6.050  0.00  0.00    -0.296 NA
ATOM      6  C   LIG    1       25.000 -33.087   5.538  0.00  0.00    +0.020 C 
ATOM      7  C   LIG    1       26.344 -32.388   5.751  0.00  0.00    +0.021 C 
ATOM      8  C   LIG    1       26.009 -31.212   6.685  0.00  0.00    +0.071 C 
ENDROOT
BRANCH   2   9
ATOM      9  C   LIG    1       23.887 -31.661   9.870  0.00  0.00    -0.043 A 
ATOM     10  C   LIG    1       23.100 -30.500   9.842  0.00  0.00    +0.005 A 
ATOM     11  C   LIG    1       22.452 -30.030  10.990  0.00  0.00    +0.014 A 
ATOM     12  C   LIG    1       22.589 -30.714  12.193  0.00  0.00    +0.013 A 
ATOM     13  I   LIG    1       21.634 -30.010  13.899  0.00  0.00    -0.044 I 
ATOM     14  C   LIG    1       23.364 -31.867  12.253  0.00  0.00    +0.014 A 
ATOM     15  C   LIG    1       24.002 -32.338  11.099  0.00  0.00    +0.005 A 
ENDBRANCH   2   9
BRANCH   1  16
ATOM     16  C   LIG    1       26.664 -30.778   9.108  0.00  0.00    +0.312 C 
ATOM     17  O   LIG    1       27.374 -31.125  10.034  0.00  0.00    -0.251 OA
BRANCH  16  19
ATOM     18  C   LIG    1       26.667 -28.555   9.862  0.00  0.00    +0.280 C 
ATOM     19  O   LIG    1       26.350 -29.479   8.818  0.00  0.00    -0.468 OA
ENDBRANCH  16  19
ENDBRANCH   1  16
BRANCH   5  20
ATOM     20  C   LIG    1       24.051 -29.639   6.447  0.00  0.00    +0.087 C 
BRANCH  20  21
ATOM     21  C   LIG    1       24.398 -28.452   5.545  0.00  0.00    +0.049 C 
BRANCH  21  22
ATOM     22  C   LIG    1       24.866 -27.260   6.353  0.00  0.00    +0.214 C 
ATOM     23  F   LIG    1       23.900 -26.305   6.350  0.00  0.00    -0.249 F 
ENDBRANCH  21  22
ENDBRANCH  20  21
ENDBRANCH   5  20
TORSDOF 6
ENDMDL
MODEL 3
REMARK VINA RESULT:      -4.7      6.943      9.933
REMARK  Name = *****
REMARK                            x       y       z     vdW  Elec       q    Type
REMARK                         _______ _______ _______ _____ _____    ______ ____
ROOT
ATOM      1  C   LIG    1       24.999 -23.237   7.111  0.00  0.00    +0.122 C 
ATOM      2  C   LIG    1       25.276 -21.786   7.601  0.00  0.00    +0.036 C 
ATOM      3  C   LIG    1       24.241 -20.725   7.130  0.00  0.00    +0.028 C 
ATOM      4  C   LIG    1       23.068 -21.256   6.291  0.00  0.00    +0.058 C 
ATOM      5  N   LIG    1       23.513 -22.216   5.286  0.00  0.00    -0.296 NA
ATOM      6  C   LIG    1       22.105 -22.130   7.107  0.00  0.00    +0.020 C 
ATOM      7  C   LIG    1       22.513 -23.564   6.768  0.00  0.00    +0.021 C 
ATOM      8  C   LIG    1       23.869 -23.408   6.057  0.00  0.00    +0.071 C 
ENDROOT
BRANCH   2   9
ATOM      9  C   LIG    1       26.693 -21.210   7.486  0.00  0.00    -0.043 A 
ATOM     10  C   LIG    1       27.097 -20.346   6.456  0.00  0.00    +0.005 A 
ATOM     11  C   LIG    1       28.380 -19.788   6.434  0.00  0.00    +0.014 A 
ATOM     12  C   LIG    1       29.287 -20.092   7.445  0.00  0.00    +0.013 A 
ATOM     13  I   LIG    1       31.194 -19.269   7.406  0.00  0.00    -0.044 I 
ATOM     14  C   LIG    1       28.915 -20.946   8.478  0.00  0.00    +0.014 A 
ATOM     15  C   LIG    1       27.627 -21.493   8.499  0.00  0.00    +0.005 A 
ENDBRANCH   2   9
BRANCH   1  16
ATOM     16  C   LIG    1       26.211 -24.098   6.782  0.00  0.00    +0.312 C 
ATOM     17  O   LIG    1       27.252 -23.699   6.293  0.00  0.00    -0.251 OA
BRANCH  16  19
ATOM     18  C   LIG    1       26.302 -26.310   6.002  0.00  0.00    +0.280 C 
ATOM     19  O   LIG    1       25.935 -25.411   7.050  0.00  0.00    -0.468 OA
ENDBRANCH  16  19
ENDBRANCH   1  16
BRANCH   5  20
ATOM     20  C   LIG    1       24.419 -21.723   4.261  0.00  0.00    +0.087 C 
BRANCH  20  21
ATOM     21  C   LIG    1       23.922 -20.425   3.620  0.00  0.00    +0.049 C 
BRANCH  21  22
ATOM     22  C   LIG    1       25.003 -19.364   3.608  0.00  0.00    +0.214 C 
ATOM     23  F   LIG    1       24.429 -18.136   3.527  0.00  0.00    -0.249 F 
ENDBRANCH  21  22
ENDBRANCH  20  21
ENDBRANCH   5  20
TORSDOF 6
ENDMDL
MODEL 4
REMARK VINA RESULT:      -4.7      4.247      6.949
REMARK  Name = *****
REMARK                            x       y       z     vdW  Elec       q    Type
REMARK                         _______ _______ _______ _____ _____    ______ ____
ROOT
ATOM      1  C   LIG    1       27.722 -27.873  13.903  0.00  0.00    +0.122 C 
ATOM      2  C   LIG    1       26.963 -27.353  12.648  0.00  0.00    +0.036 C 
ATOM      3  C   LIG    1       26.278 -25.968  12.822  0.00  0.00    +0.028 C 
ATOM      4  C   LIG    1       26.480 -25.283  14.182  0.00  0.00    +0.058 C 
ATOM      5  N   LIG    1       26.328 -26.223  15.288  0.00  0.00    -0.296 NA
ATOM      6  C   LIG    1       27.928 -24.821  14.402  0.00  0.00    +0.020 C 
ATOM      7  C   LIG    1       28.546 -25.913  15.276  0.00  0.00    +0.021 C 
ATOM      8  C   LIG    1       27.525 -27.063  15.215  0.00  0.00    +0.071 C 
ENDROOT
BRANCH   2   9
ATOM      9  C   LIG    1       26.025 -28.300  11.889  0.00  0.00    -0.043 A 
ATOM     10  C   LIG    1       26.380 -28.952  10.697  0.00  0.00    +0.005 A 
ATOM     11  C   LIG    1       25.516 -29.864  10.080  0.00  0.00    +0.014 A 
ATOM     12  C   LIG    1       24.273 -30.133  10.644  0.00  0.00    +0.013 A 
ATOM     13  I   LIG    1       22.989 -31.480   9.720  0.00  0.00    -0.044 I 
ATOM     14  C   LIG    1       23.893 -29.501  11.823  0.00  0.00    +0.014 A 
ATOM     15  C   LIG    1       24.766 -28.598  12.441  0.00  0.00    +0.005 A 
ENDBRANCH   2   9
BRANCH   1  16
ATOM     16  C   LIG    1       27.690 -29.374  14.157  0.00  0.00    +0.312 C 
ATOM     17  O   LIG    1       26.952 -29.945  14.938  0.00  0.00    -0.251 OA
BRANCH  16  19
ATOM     18  C   LIG    1       29.998 -29.643  13.825  0.00  0.00    +0.280 C 
ATOM     19  O   LIG    1       28.670 -29.989  13.427  0.00  0.00    -0.468 OA
ENDBRANCH  16  19
ENDBRANCH   1  16
BRANCH   5  20
ATOM     20  C   LIG    1       25.023 -26.840  15.452  0.00  0.00    +0.087 C 
BRANCH  20  21
ATOM     21  C   LIG    1       23.884 -25.820  15.388  0.00  0.00    +0.049 C 
BRANCH  21  22
ATOM     22  C   LIG    1       22.737 -26.323  14.535  0.00  0.00    +0.214 C 
ATOM     23  F   LIG    1       22.930 -25.935  13.248  0.00  0.00    -0.249 F 
ENDBRANCH  21  22
ENDBRANCH  20  21
ENDBRANCH   5  20
TORSDOF 6
ENDMDL
MODEL 5
REMARK VINA RESULT:      -4.7      3.287      5.430
REMARK  Name = *****
REMARK                            x       y       z     vdW  Elec       q    Type
REMARK                         _______ _______ _______ _____ _____    ______ ____
ROOT
ATOM      1  C   LIG    1       26.557 -31.145   9.434  0.00  0.00    +0.122 C 
ATOM      2  C   LIG    1       25.378 -31.685  10.295  0.00  0.00    +0.036 C 
ATOM      3  C   LIG    1       24.211 -32.319   9.486  0.00  0.00    +0.028 C 
ATOM      4  C   LIG    1       24.399 -32.370   7.962  0.00  0.00    +0.058 C 
ATOM      5  N   LIG    1       24.940 -31.119   7.442  0.00  0.00    -0.296 NA
ATOM      6  C   LIG    1       25.499 -33.352   7.534  0.00  0.00    +0.020 C 
ATOM      7  C   LIG    1       26.720 -32.467   7.282  0.00  0.00    +0.021 C 
ATOM      8  C   LIG    1       26.332 -31.111   7.896  0.00  0.00    +0.071 C 
ENDROOT
BRANCH   2   9
ATOM      9  C   LIG    1       24.809 -30.816  11.424  0.00  0.00    -0.043 A 
ATOM     10  C   LIG    1       23.823 -29.837  11.226  0.00  0.00    +0.005 A 
ATOM     11  C   LIG    1       23.283 -29.120  12.300  0.00  0.00    +0.014 A 
ATOM     12  C   LIG    1       23.728 -29.367  13.594  0.00  0.00    +0.013 A 
ATOM     13  I   LIG    1       22.931 -28.295  15.186  0.00  0.00    -0.044 I 
ATOM     14  C   LIG    1       24.706 -30.330  13.821  0.00  0.00    +0.014 A 
ATOM     15  C   LIG    1       25.236 -31.051  12.744  0.00  0.00    +0.005 A 
ENDBRANCH   2   9
BRANCH   1  16
ATOM     16  C   LIG    1       27.253 -29.885   9.930  0.00  0.00    +0.312 C 
ATOM     17  O   LIG    1       27.034 -28.753   9.538  0.00  0.00    -0.251 OA
BRANCH  16  19
ATOM     18  C   LIG    1       28.344 -29.293  11.922  0.00  0.00    +0.280 C 
ATOM     19  O   LIG    1       28.222 -30.215  10.837  0.00  0.00    -0.468 OA
ENDBRANCH  16  19
ENDBRANCH   1  16
BRANCH   5  20
ATOM     20  C   LIG    1       24.121 -29.929   7.606  0.00  0.00    +0.087 C 
BRANCH  20  21
ATOM     21  C   LIG    1       24.710 -28.713   6.888  0.00  0.00    +0.049 C 
BRANCH  21  22
ATOM     22  C   LIG    1       24.411 -28.747   5.404  0.00  0.00    +0.214 C 
ATOM     23  F   LIG    1       25.133 -27.784   4.776  0.00  0.00    -0.249 F 
ENDBRANCH  21  22
ENDBRANCH  20  21
ENDBRANCH   5  20
TORSDOF 6
ENDMDL
MODEL 6
REMARK VINA RESULT:      -4.6      2.810      4.579
REMARK  Name = *****
REMARK                            x       y       z     vdW  Elec       q    Type
REMARK                         _______ _______ _______ _____ _____    ______ ____
ROOT
ATOM      1  C   LIG    1       25.635 -31.005   7.452  0.00  0.00    +0.122 C 
ATOM      2  C   LIG    1       26.616 -31.048   8.659  0.00  0.00    +0.036 C 
ATOM      3  C   LIG    1       26.946 -32.475   9.185  0.00  0.00    +0.028 C 
ATOM      4  C   LIG    1       26.302 -33.640   8.419  0.00  0.00    +0.058 C 
ATOM      5  N   LIG    1       24.901 -33.374   8.107  0.00  0.00    -0.296 NA
ATOM      6  C   LIG    1       26.878 -33.809   7.005  0.00  0.00    +0.020 C 
ATOM      7  C   LIG    1       25.853 -33.131   6.095  0.00  0.00    +0.021 C 
ATOM      8  C   LIG    1       24.952 -32.347   7.066  0.00  0.00    +0.071 C 
ENDROOT
BRANCH   2   9
ATOM      9  C   LIG    1       26.395 -30.100   9.844  0.00  0.00    -0.043 A 
ATOM     10  C   LIG    1       27.018 -28.848   9.961  0.00  0.00    +0.005 A 
ATOM     11  C   LIG    1       26.728 -27.987  11.026  0.00  0.00    +0.014 A 
ATOM     12  C   LIG    1       25.812 -28.371  12.000  0.00  0.00    +0.013 A 
ATOM     13  I   LIG    1       25.391 -27.095  13.585  0.00  0.00    -0.044 I 
ATOM     14  C   LIG    1       25.181 -29.607  11.912  0.00  0.00    +0.014 A 
ATOM     15  C   LIG    1       25.467 -30.460  10.839  0.00  0.00    +0.005 A 
ENDBRANCH   2   9
BRANCH   1  16
ATOM     16  C   LIG    1       24.658 -29.839   7.399  0.00  0.00    +0.312 C 
ATOM     17  O   LIG    1       23.553 -29.816   7.910  0.00  0.00    -0.251 OA
BRANCH  16  19
ATOM     18  C   LIG    1       24.489 -28.645   5.385  0.00  0.00    +0.280 C 
ATOM     19  O   LIG    1       25.173 -28.835   6.625  0.00  0.00    -0.468 OA
ENDBRANCH  16  19
ENDBRANCH   1  16
BRANCH   5  20
ATOM     20  C   LIG    1       23.996 -33.216   9.233  0.00  0.00    +0.087 C 
BRANCH  20  21
ATOM     21  C   LIG    1       22.549 -32.987   8.790  0.00  0.00    +0.049 C 
BRANCH  21  22
ATOM     22  C   LIG    1       21.702 -32.446   9.923  0.00  0.00    +0.214 C 
ATOM     23  F   LIG    1       22.107 -31.186  10.227  0.00  0.00    -0.249 F 
ENDBRANCH  21  22
ENDBRANCH  20  21
ENDBRANCH   5  20
TORSDOF 6
ENDMDL
MODEL 7
REMARK VINA RESULT:      -4.6      4.062      6.599
REMARK  Name = *****
REMARK                            x       y       z     vdW  Elec       q    Type
REMARK                         _______ _______ _______ _____ _____    ______ ____
ROOT
ATOM      1  C   LIG    1       27.781 -28.049  13.971  0.00  0.00    +0.122 C 
ATOM      2  C   LIG    1       27.161 -27.529  12.641  0.00  0.00    +0.036 C 
ATOM      3  C   LIG    1       26.375 -26.192  12.763  0.00  0.00    +0.028 C 
ATOM      4  C   LIG    1       26.357 -25.547  14.157  0.00  0.00    +0.058 C 
ATOM      5  N   LIG    1       26.120 -26.533  15.206  0.00  0.00    -0.296 NA
ATOM      6  C   LIG    1       27.732 -25.011  14.579  0.00  0.00    +0.020 C 
ATOM      7  C   LIG    1       28.297 -26.097  15.496  0.00  0.00    +0.021 C 
ATOM      8  C   LIG    1       27.365 -27.300  15.268  0.00  0.00    +0.071 C 
ENDROOT
BRANCH   2   9
ATOM      9  C   LIG    1       26.390 -28.499  11.738  0.00  0.00    -0.043 A 
ATOM     10  C   LIG    1       25.057 -28.876  11.965  0.00  0.00    +0.005 A 
ATOM     11  C   LIG    1       24.373 -29.708  11.071  0.00  0.00    +0.014 A 
ATOM     12  C   LIG    1       25.017 -30.184   9.934  0.00  0.00    +0.013 A 
ATOM     13  I   LIG    1       24.002 -31.426   8.614  0.00  0.00    -0.044 I 
ATOM     14  C   LIG    1       26.338 -29.830   9.684  0.00  0.00    +0.014 A 
ATOM     15  C   LIG    1       27.015 -28.989  10.576  0.00  0.00    +0.005 A 
ENDBRANCH   2   9
BRANCH   1  16
ATOM     16  C   LIG    1       27.808 -29.558  14.175  0.00  0.00    +0.312 C 
ATOM     17  O   LIG    1       28.589 -30.330  13.650  0.00  0.00    -0.251 OA
BRANCH  16  19
ATOM     18  C   LIG    1       26.147 -31.161  14.598  0.00  0.00    +0.280 C 
ATOM     19  O   LIG    1       26.772 -29.936  14.985  0.00  0.00    -0.468 OA
ENDBRANCH  16  19
ENDBRANCH   1  16
BRANCH   5  20
ATOM     20  C   LIG    1       24.845 -27.230  15.178  0.00  0.00    +0.087 C 
BRANCH  20  21
ATOM     21  C   LIG    1       23.656 -26.267  15.126  0.00  0.00    +0.049 C 
BRANCH  21  22
ATOM     22  C   LIG    1       22.598 -26.745  14.153  0.00  0.00    +0.214 C 
ATOM     23  F   LIG    1       22.776 -26.129  12.956  0.00  0.00    -0.249 F 
ENDBRANCH  21  22
ENDBRANCH  20  21
ENDBRANCH   5  20
TORSDOF 6
ENDMDL
MODEL 8
REMARK VINA RESULT:      -4.4      2.698      4.333
REMARK  Name = *****
REMARK                            x       y       z     vdW  Elec       q    Type
REMARK                         _______ _______ _______ _____ _____    ______ ____
ROOT
ATOM      1  C   LIG    1       25.615 -31.930   9.613  0.00  0.00    +0.122 C 
ATOM      2  C   LIG    1       25.556 -30.402   9.901  0.00  0.00    +0.036 C 
ATOM      3  C   LIG    1       24.569 -29.983  11.028  0.00  0.00    +0.028 C 
ATOM      4  C   LIG    1       23.826 -31.129  11.731  0.00  0.00    +0.058 C 
ATOM      5  N   LIG    1       23.337 -32.122  10.779  0.00  0.00    -0.296 NA
ATOM      6  C   LIG    1       24.756 -31.998  12.591  0.00  0.00    +0.020 C 
ATOM      7  C   LIG    1       25.049 -33.218  11.717  0.00  0.00    +0.021 C 
ATOM      8  C   LIG    1       24.546 -32.809  10.322  0.00  0.00    +0.071 C 
ENDROOT
BRANCH   2   9
ATOM      9  C   LIG    1       25.447 -29.418   8.729  0.00  0.00    -0.043 A 
ATOM     10  C   LIG    1       24.443 -29.486   7.751  0.00  0.00    +0.005 A 
ATOM     11  C   LIG    1       24.342 -28.521   6.742  0.00  0.00    +0.014 A 
ATOM     12  C   LIG    1       25.254 -27.472   6.691  0.00  0.00    +0.013 A 
ATOM     13  I   LIG    1       25.107 -26.046   5.187  0.00  0.00    -0.044 I 
ATOM     14  C   LIG    1       26.260 -27.379   7.646  0.00  0.00    +0.014 A 
ATOM     15  C   LIG    1       26.350 -28.341   8.659  0.00  0.00    +0.005 A 
ENDBRANCH   2   9
BRANCH   1  16
ATOM     16  C   LIG    1       25.822 -32.352   8.165  0.00  0.00    +0.312 C 
ATOM     17  O   LIG    1       24.967 -32.813   7.432  0.00  0.00    -0.251 OA
BRANCH  16  19
ATOM     18  C   LIG    1       27.473 -32.754   6.546  0.00  0.00    +0.280 C 
ATOM     19  O   LIG    1       27.139 -32.206   7.823  0.00  0.00    -0.468 OA
ENDBRANCH  16  19
ENDBRANCH   1  16
BRANCH   5  20
ATOM     20  C   LIG    1       22.352 -31.673   9.810  0.00  0.00    +0.087 C 
BRANCH  20  21
ATOM     21  C   LIG    1       20.925 -32.054  10.210  0.00  0.00    +0.049 C 
BRANCH  21  22
ATOM     22  C   LIG    1       20.115 -30.836  10.603  0.00  0.00    +0.214 C 
ATOM     23  F   LIG    1       19.029 -30.736   9.794  0.00  0.00    -0.249 F 
ENDBRANCH  21  22
ENDBRANCH  20  21
ENDBRANCH   5  20
TORSDOF 6
ENDMDL
MODEL 9
REMARK VINA RESULT:      -4.4      2.970      4.506
REMARK  Name = *****
REMARK                            x       y       z     vdW  Elec       q    Type
REMARK                         _______ _______ _______ _____ _____    ______ ____
ROOT
ATOM      1  C   LIG    1       25.013 -31.757  10.268  0.00  0.00    +0.122 C 
ATOM      2  C   LIG    1       23.773 -30.970   9.756  0.00  0.00    +0.036 C 
ATOM      3  C   LIG    1       24.049 -30.016   8.559  0.00  0.00    +0.028 C 
ATOM      4  C   LIG    1       25.486 -30.014   8.018  0.00  0.00    +0.058 C 
ATOM      5  N   LIG    1       26.470 -30.000   9.097  0.00  0.00    -0.296 NA
ATOM      6  C   LIG    1       25.857 -31.329   7.317  0.00  0.00    +0.020 C 
ATOM      7  C   LIG    1       26.647 -32.110   8.368  0.00  0.00    +0.021 C 
ATOM      8  C   LIG    1       26.389 -31.342   9.676  0.00  0.00    +0.071 C 
ENDROOT
BRANCH   2   9
ATOM      9  C   LIG    1       22.850 -30.276  10.766  0.00  0.00    -0.043 A 
ATOM     10  C   LIG    1       21.505 -30.627  10.955  0.00  0.00    +0.005 A 
ATOM     11  C   LIG    1       20.723 -30.013  11.941  0.00  0.00    +0.014 A 
ATOM     12  C   LIG    1       21.276 -29.027  12.752  0.00  0.00    +0.013 A 
ATOM     13  I   LIG    1       20.112 -28.111  14.208  0.00  0.00    -0.044 I 
ATOM     14  C   LIG    1       22.607 -28.658  12.586  0.00  0.00    +0.014 A 
ATOM     15  C   LIG    1       23.386 -29.282  11.606  0.00  0.00    +0.005 A 
ENDBRANCH   2   9
BRANCH   1  16
ATOM     16  C   LIG    1       25.099 -32.012  11.767  0.00  0.00    +0.312 C 
ATOM     17  O   LIG    1       25.920 -31.527  12.523  0.00  0.00    -0.251 OA
BRANCH  16  19
ATOM     18  C   LIG    1       23.584 -32.694  13.425  0.00  0.00    +0.280 C 
ATOM     19  O   LIG    1       24.155 -32.931  12.137  0.00  0.00    -0.468 OA
ENDBRANCH  16  19
ENDBRANCH   1  16
BRANCH   5  20
ATOM     20  C   LIG    1       26.473 -28.837   9.968  0.00  0.00    +0.087 C 
BRANCH  20  21
ATOM     21  C   LIG    1       27.536 -28.934  11.065  0.00  0.00    +0.049 C 
BRANCH  21  22
ATOM     22  C   LIG    1       27.132 -28.153  12.298  0.00  0.00    +0.214 C 
ATOM     23  F   LIG    1       26.998 -26.840  11.977  0.00  0.00    -0.249 F 
ENDBRANCH  21  22
ENDBRANCH  20  21
ENDBRANCH   5  20
TORSDOF 6
ENDMDL
