MODEL 1
REMARK VINA RESULT:      -6.5      0.000      0.000
REMARK  Name = *****
REMARK                            x       y       z     vdW  Elec       q    Type
REMARK                         _______ _______ _______ _____ _____    ______ ____
ROOT
ATOM      1  C   LIG    1       24.728 -23.641   5.043  0.00  0.00    +0.037 C 
ATOM      2  C   LIG    1       25.159 -22.666   6.158  0.00  0.00    +0.113 C 
ATOM      3  S   LIG    1       23.702 -22.134   7.117  0.00  0.00    -0.004 S 
ATOM      4  O   LIG    1       24.129 -21.817   8.466  0.00  0.00    -0.172 OA
ATOM      5  O   LIG    1       22.613 -23.064   6.895  0.00  0.00    -0.172 OA
ATOM      6  C   LIG    1       23.355 -20.584   6.270  0.00  0.00    +0.228 C 
ATOM      7  N   LIG    1       24.513 -20.459   5.338  0.00  0.00    -0.263 N 
ATOM      8  C   LIG    1       23.733 -20.640   4.224  0.00  0.00    +0.221 C 
ATOM      9  O   LIG    1       24.051 -20.940   3.100  0.00  0.00    -0.275 OA
ATOM     10  C   LIG    1       22.439 -20.578   5.043  0.00  0.00    +0.142 C 
ATOM     11  C   LIG    1       25.678 -21.339   5.560  0.00  0.00    +0.213 C 
ATOM     12  C   LIG    1       26.139 -23.424   7.063  0.00  0.00    +0.037 C 
ENDROOT
BRANCH  11  13
ATOM     13  C   LIG    1       26.704 -20.573   6.412  0.00  0.00    +0.328 C 
ATOM     14  O   LIG    1       26.484 -20.131   7.528  0.00  0.00    -0.249 OA
BRANCH  13  15
ATOM     15  O   LIG    1       27.936 -20.505   5.851  0.00  0.00    -0.479 OA
ATOM     16  H   LIG    1       27.907 -20.720   4.896  0.00  0.00    +0.295 HD
ENDBRANCH  13  15
ENDBRANCH  11  13
TORSDOF 2
ENDMDL
MODEL 2
REMARK VINA RESULT:      -6.3      1.689      3.603
REMARK  Name = *****
REMARK                            x       y       z     vdW  Elec       q    Type
REMARK                         _______ _______ _______ _____ _____    ______ ____
ROOT
ATOM      1  C   LIG    1       23.174 -20.897   7.338  0.00  0.00    +0.037 C 
ATOM      2  C   LIG    1       24.082 -21.168   6.119  0.00  0.00    +0.113 C 
ATOM      3  S   LIG    1       24.567 -22.925   6.084  0.00  0.00    -0.004 S 
ATOM      4  O   LIG    1       24.804 -23.310   4.706  0.00  0.00    -0.172 OA
ATOM      5  O   LIG    1       23.658 -23.693   6.911  0.00  0.00    -0.172 OA
ATOM      6  C   LIG    1       26.165 -22.795   6.903  0.00  0.00    +0.228 C 
ATOM      7  N   LIG    1       26.336 -21.321   7.046  0.00  0.00    -0.263 N 
ATOM      8  C   LIG    1       26.223 -21.363   8.412  0.00  0.00    +0.221 C 
ATOM      9  O   LIG    1       25.985 -20.477   9.194  0.00  0.00    -0.275 OA
ATOM     10  C   LIG    1       26.246 -22.896   8.429  0.00  0.00    +0.142 C 
ATOM     11  C   LIG    1       25.438 -20.442   6.269  0.00  0.00    +0.213 C 
ATOM     12  C   LIG    1       23.267 -20.820   4.867  0.00  0.00    +0.037 C 
ENDROOT
BRANCH  11  13
ATOM     13  C   LIG    1       26.148 -20.065   4.958  0.00  0.00    +0.328 C 
ATOM     14  O   LIG    1       25.598 -19.554   3.996  0.00  0.00    -0.249 OA
BRANCH  13  15
ATOM     15  O   LIG    1       27.488 -20.264   4.988  0.00  0.00    -0.479 OA
ATOM     16  H   LIG    1       27.962 -19.461   5.289  0.00  0.00    +0.295 HD
ENDBRANCH  13  15
ENDBRANCH  11  13
TORSDOF 2
ENDMDL
MODEL 3
REMARK VINA RESULT:      -6.2      4.502      6.614
REMARK  Name = *****
REMARK                            x       y       z     vdW  Elec       q    Type
REMARK                         _______ _______ _______ _____ _____    ______ ____
ROOT
ATOM      1  C   LIG    1       29.430 -17.958   9.005  0.00  0.00    +0.037 C 
ATOM      2  C   LIG    1       30.432 -19.046   8.566  0.00  0.00    +0.113 C 
ATOM      3  S   LIG    1       30.514 -19.119   6.746  0.00  0.00    -0.004 S 
ATOM      4  O   LIG    1       31.832 -19.587   6.363  0.00  0.00    -0.172 OA
ATOM      5  O   LIG    1       29.985 -17.889   6.190  0.00  0.00    -0.172 OA
ATOM      6  C   LIG    1       29.348 -20.461   6.462  0.00  0.00    +0.228 C 
ATOM      7  N   LIG    1       29.040 -20.918   7.847  0.00  0.00    -0.263 N 
ATOM      8  C   LIG    1       27.743 -20.475   7.787  0.00  0.00    +0.221 C 
ATOM      9  O   LIG    1       26.959 -20.262   8.678  0.00  0.00    -0.275 OA
ATOM     10  C   LIG    1       27.858 -20.149   6.294  0.00  0.00    +0.142 C 
ATOM     11  C   LIG    1       29.917 -20.454   8.941  0.00  0.00    +0.213 C 
ATOM     12  C   LIG    1       31.800 -18.655   9.141  0.00  0.00    +0.037 C 
ENDROOT
BRANCH  11  13
ATOM     13  C   LIG    1       30.995 -21.523   9.181  0.00  0.00    +0.328 C 
ATOM     14  O   LIG    1       31.034 -22.260  10.154  0.00  0.00    -0.249 OA
BRANCH  13  15
ATOM     15  O   LIG    1       31.872 -21.653   8.156  0.00  0.00    -0.479 OA
ATOM     16  H   LIG    1       31.591 -21.130   7.377  0.00  0.00    +0.295 HD
ENDBRANCH  13  15
ENDBRANCH  11  13
TORSDOF 2
ENDMDL
MODEL 4
REMARK VINA RESULT:      -5.7      2.276      2.740
REMARK  Name = *****
REMARK                            x       y       z     vdW  Elec       q    Type
REMARK                         _______ _______ _______ _____ _____    ______ ____
ROOT
ATOM      1  C   LIG    1       25.840 -20.678   5.060  0.00  0.00    +0.037 C 
ATOM      2  C   LIG    1       25.992 -21.415   6.407  0.00  0.00    +0.113 C 
ATOM      3  S   LIG    1       25.248 -23.076   6.296  0.00  0.00    -0.004 S 
ATOM      4  O   LIG    1       25.938 -23.953   7.221  0.00  0.00    -0.172 OA
ATOM      5  O   LIG    1       25.107 -23.448   4.903  0.00  0.00    -0.172 OA
ATOM      6  C   LIG    1       23.628 -22.707   6.990  0.00  0.00    +0.228 C 
ATOM      7  N   LIG    1       23.781 -21.293   7.435  0.00  0.00    -0.263 N 
ATOM      8  C   LIG    1       22.908 -20.820   6.490  0.00  0.00    +0.221 C 
ATOM      9  O   LIG    1       22.753 -19.698   6.074  0.00  0.00    -0.275 OA
ATOM     10  C   LIG    1       22.497 -22.236   6.070  0.00  0.00    +0.142 C 
ATOM     11  C   LIG    1       25.147 -20.734   7.507  0.00  0.00    +0.213 C 
ATOM     12  C   LIG    1       27.496 -21.529   6.689  0.00  0.00    +0.037 C 
ENDROOT
BRANCH  11  13
ATOM     13  C   LIG    1       25.659 -20.897   8.947  0.00  0.00    +0.328 C 
ATOM     14  O   LIG    1       26.162 -20.002   9.608  0.00  0.00    -0.249 OA
BRANCH  13  15
ATOM     15  O   LIG    1       25.417 -22.122   9.477  0.00  0.00    -0.479 OA
ATOM     16  H   LIG    1       25.606 -22.139  10.437  0.00  0.00    +0.295 HD
ENDBRANCH  13  15
ENDBRANCH  11  13
TORSDOF 2
ENDMDL
MODEL 5
REMARK VINA RESULT:      -5.4      1.885      2.998
REMARK  Name = *****
REMARK                            x       y       z     vdW  Elec       q    Type
REMARK                         _______ _______ _______ _____ _____    ______ ____
ROOT
ATOM      1  C   LIG    1       27.025 -22.487   7.155  0.00  0.00    +0.037 C 
ATOM      2  C   LIG    1       25.973 -21.464   6.676  0.00  0.00    +0.113 C 
ATOM      3  S   LIG    1       24.463 -21.605   7.688  0.00  0.00    -0.004 S 
ATOM      4  O   LIG    1       23.807 -20.313   7.719  0.00  0.00    -0.172 OA
ATOM      5  O   LIG    1       24.774 -22.296   8.924  0.00  0.00    -0.172 OA
ATOM      6  C   LIG    1       23.503 -22.687   6.616  0.00  0.00    +0.228 C 
ATOM      7  N   LIG    1       24.362 -22.782   5.401  0.00  0.00    -0.263 N 
ATOM      8  C   LIG    1       24.646 -24.107   5.612  0.00  0.00    +0.221 C 
ATOM      9  O   LIG    1       25.531 -24.789   5.157  0.00  0.00    -0.275 OA
ATOM     10  C   LIG    1       23.633 -24.206   6.758  0.00  0.00    +0.142 C 
ATOM     11  C   LIG    1       25.469 -21.815   5.258  0.00  0.00    +0.213 C 
ATOM     12  C   LIG    1       26.593 -20.071   6.844  0.00  0.00    +0.037 C 
ENDROOT
BRANCH  11  13
ATOM     13  C   LIG    1       24.969 -20.633   4.411  0.00  0.00    +0.328 C 
ATOM     14  O   LIG    1       23.842 -20.169   4.468  0.00  0.00    -0.249 OA
BRANCH  13  15
ATOM     15  O   LIG    1       25.932 -20.069   3.641  0.00  0.00    -0.479 OA
ATOM     16  H   LIG    1       25.680 -20.074   2.694  0.00  0.00    +0.295 HD
ENDBRANCH  13  15
ENDBRANCH  11  13
TORSDOF 2
ENDMDL
MODEL 6
REMARK VINA RESULT:      -5.3      1.886      3.023
REMARK  Name = *****
REMARK                            x       y       z     vdW  Elec       q    Type
REMARK                         _______ _______ _______ _____ _____    ______ ____
ROOT
ATOM      1  C   LIG    1       22.321 -21.407   5.548  0.00  0.00    +0.037 C 
ATOM      2  C   LIG    1       23.372 -22.337   6.189  0.00  0.00    +0.113 C 
ATOM      3  S   LIG    1       24.391 -21.399   7.376  0.00  0.00    -0.004 S 
ATOM      4  O   LIG    1       24.859 -22.311   8.402  0.00  0.00    -0.172 OA
ATOM      5  O   LIG    1       23.702 -20.178   7.743  0.00  0.00    -0.172 OA
ATOM      6  C   LIG    1       25.785 -21.009   6.306  0.00  0.00    +0.228 C 
ATOM      7  N   LIG    1       25.466 -21.774   5.067  0.00  0.00    -0.263 N 
ATOM      8  C   LIG    1       25.251 -20.638   4.329  0.00  0.00    +0.221 C 
ATOM      9  O   LIG    1       24.676 -20.497   3.279  0.00  0.00    -0.275 OA
ATOM     10  C   LIG    1       25.758 -19.734   5.459  0.00  0.00    +0.142 C 
ATOM     11  C   LIG    1       24.408 -22.803   5.142  0.00  0.00    +0.213 C 
ATOM     12  C   LIG    1       22.604 -23.449   6.916  0.00  0.00    +0.037 C 
ENDROOT
BRANCH  11  13
ATOM     13  C   LIG    1       25.076 -24.161   5.414  0.00  0.00    +0.328 C 
ATOM     14  O   LIG    1       25.880 -24.370   6.309  0.00  0.00    -0.249 OA
BRANCH  13  15
ATOM     15  O   LIG    1       24.620 -25.161   4.620  0.00  0.00    -0.479 OA
ATOM     16  H   LIG    1       23.643 -25.149   4.557  0.00  0.00    +0.295 HD
ENDBRANCH  13  15
ENDBRANCH  11  13
TORSDOF 2
ENDMDL
MODEL 7
REMARK VINA RESULT:      -5.2      2.042      3.853
REMARK  Name = *****
REMARK                            x       y       z     vdW  Elec       q    Type
REMARK                         _______ _______ _______ _____ _____    ______ ____
ROOT
ATOM      1  C   LIG    1       25.399 -20.327   4.650  0.00  0.00    +0.037 C 
ATOM      2  C   LIG    1       24.438 -21.527   4.791  0.00  0.00    +0.113 C 
ATOM      3  S   LIG    1       22.990 -21.051   5.792  0.00  0.00    -0.004 S 
ATOM      4  O   LIG    1       21.859 -21.859   5.379  0.00  0.00    -0.172 OA
ATOM      5  O   LIG    1       22.882 -19.606   5.826  0.00  0.00    -0.172 OA
ATOM      6  C   LIG    1       23.543 -21.653   7.395  0.00  0.00    +0.228 C 
ATOM      7  N   LIG    1       24.812 -22.359   7.055  0.00  0.00    -0.263 N 
ATOM      8  C   LIG    1       25.589 -21.441   7.714  0.00  0.00    +0.221 C 
ATOM      9  O   LIG    1       26.772 -21.224   7.623  0.00  0.00    -0.275 OA
ATOM     10  C   LIG    1       24.364 -20.737   8.309  0.00  0.00    +0.142 C 
ATOM     11  C   LIG    1       25.081 -22.652   5.633  0.00  0.00    +0.213 C 
ATOM     12  C   LIG    1       23.996 -21.916   3.374  0.00  0.00    +0.037 C 
ENDROOT
BRANCH  11  13
ATOM     13  C   LIG    1       24.592 -24.079   5.334  0.00  0.00    +0.328 C 
ATOM     14  O   LIG    1       25.198 -24.889   4.650  0.00  0.00    -0.249 OA
BRANCH  13  15
ATOM     15  O   LIG    1       23.449 -24.411   5.984  0.00  0.00    -0.479 OA
ATOM     16  H   LIG    1       23.459 -24.092   6.909  0.00  0.00    +0.295 HD
ENDBRANCH  13  15
ENDBRANCH  11  13
TORSDOF 2
ENDMDL
MODEL 8
REMARK VINA RESULT:      -5.0      1.829      3.731
REMARK  Name = *****
REMARK                            x       y       z     vdW  Elec       q    Type
REMARK                         _______ _______ _______ _____ _____    ______ ____
ROOT
ATOM      1  C   LIG    1       22.862 -21.878   7.652  0.00  0.00    +0.037 C 
ATOM      2  C   LIG    1       23.523 -21.781   6.260  0.00  0.00    +0.113 C 
ATOM      3  S   LIG    1       24.667 -23.180   6.017  0.00  0.00    -0.004 S 
ATOM      4  O   LIG    1       24.746 -23.469   4.598  0.00  0.00    -0.172 OA
ATOM      5  O   LIG    1       24.349 -24.233   6.960  0.00  0.00    -0.172 OA
ATOM      6  C   LIG    1       26.203 -22.377   6.502  0.00  0.00    +0.228 C 
ATOM      7  N   LIG    1       25.779 -20.961   6.700  0.00  0.00    -0.263 N 
ATOM      8  C   LIG    1       25.984 -21.009   8.056  0.00  0.00    +0.221 C 
ATOM      9  O   LIG    1       25.573 -20.281   8.925  0.00  0.00    -0.275 OA
ATOM     10  C   LIG    1       26.637 -22.393   7.971  0.00  0.00    +0.142 C 
ATOM     11  C   LIG    1       24.459 -20.555   6.178  0.00  0.00    +0.213 C 
ATOM     12  C   LIG    1       22.394 -21.836   5.223  0.00  0.00    +0.037 C 
ENDROOT
BRANCH  11  13
ATOM     13  C   LIG    1       24.659 -19.953   4.778  0.00  0.00    +0.328 C 
ATOM     14  O   LIG    1       25.565 -20.257   4.018  0.00  0.00    -0.249 OA
BRANCH  13  15
ATOM     15  O   LIG    1       23.670 -19.105   4.402  0.00  0.00    -0.479 OA
ATOM     16  H   LIG    1       24.009 -18.402   3.811  0.00  0.00    +0.295 HD
ENDBRANCH  13  15
ENDBRANCH  11  13
TORSDOF 2
ENDMDL
MODEL 9
REMARK VINA RESULT:      -4.9      2.136      3.574
REMARK  Name = *****
REMARK                            x       y       z     vdW  Elec       q    Type
REMARK                         _______ _______ _______ _____ _____    ______ ____
ROOT
ATOM      1  C   LIG    1       22.285 -22.325   6.400  0.00  0.00    +0.037 C 
ATOM      2  C   LIG    1       23.701 -21.764   6.643  0.00  0.00    +0.113 C 
ATOM      3  S   LIG    1       24.630 -21.717   5.075  0.00  0.00    -0.004 S 
ATOM      4  O   LIG    1       25.603 -20.644   5.148  0.00  0.00    -0.172 OA
ATOM      5  O   LIG    1       23.703 -21.789   3.963  0.00  0.00    -0.172 OA
ATOM      6  C   LIG    1       25.517 -23.276   5.224  0.00  0.00    +0.228 C 
ATOM      7  N   LIG    1       25.160 -23.720   6.602  0.00  0.00    -0.263 N 
ATOM      8  C   LIG    1       24.420 -24.783   6.150  0.00  0.00    +0.221 C 
ATOM      9  O   LIG    1       23.588 -25.443   6.722  0.00  0.00    -0.275 OA
ATOM     10  C   LIG    1       24.877 -24.566   4.703  0.00  0.00    +0.142 C 
ATOM     11  C   LIG    1       24.538 -22.734   7.508  0.00  0.00    +0.213 C 
ATOM     12  C   LIG    1       23.531 -20.344   7.199  0.00  0.00    +0.037 C 
ENDROOT
BRANCH  11  13
ATOM     13  C   LIG    1       25.648 -22.092   8.356  0.00  0.00    +0.328 C 
ATOM     14  O   LIG    1       25.505 -21.711   9.508  0.00  0.00    -0.249 OA
BRANCH  13  15
ATOM     15  O   LIG    1       26.857 -22.066   7.744  0.00  0.00    -0.479 OA
ATOM     16  H   LIG    1       26.899 -21.361   7.066  0.00  0.00    +0.295 HD
ENDBRANCH  13  15
ENDBRANCH  11  13
TORSDOF 2
ENDMDL
