MODEL 1
REMARK VINA RESULT:      -7.5      0.000      0.000
REMARK  Name = *****
REMARK                            x       y       z     vdW  Elec       q    Type
REMARK                         _______ _______ _______ _____ _____    ______ ____
ROOT
ATOM      1  N   LIG    1       31.895 -19.828   9.178  0.00  0.00    -0.179 NA
ATOM      2  C   LIG    1       31.085 -20.655   8.579  0.00  0.00    +0.177 C 
ENDROOT
BRANCH   1   5
ATOM      3  O   LIG    1       30.545 -18.671  11.490  0.00  0.00    -0.224 OA
ATOM      4  C   LIG    1       30.999 -18.028  10.550  0.00  0.00    +0.423 C 
ATOM      5  N   LIG    1       31.511 -18.523   9.342  0.00  0.00    -0.155 N 
ATOM      6  C   LIG    1       32.304 -17.489   8.764  0.00  0.00    +0.179 C 
ATOM      7  C   LIG    1       31.628 -16.254   9.298  0.00  0.00    +0.255 C 
ATOM      8  O   LIG    1       31.109 -16.659  10.569  0.00  0.00    -0.448 OA
ENDBRANCH   1   5
BRANCH   2   9
ATOM      9  C   LIG    1       29.856 -20.376   7.881  0.00  0.00    +0.154 A 
ATOM     10  O   LIG    1       28.655 -20.537   8.522  0.00  0.00    -0.399 OA
ATOM     11  C   LIG    1       27.692 -20.253   7.609  0.00  0.00    +0.438 A 
ATOM     12  C   LIG    1       28.230 -19.869   6.406  0.00  0.00    +0.132 A 
ATOM     13  C   LIG    1       29.635 -19.920   6.591  0.00  0.00    +0.058 A 
BRANCH  11  14
ATOM     14  N   LIG    1       26.340 -20.427   8.038  0.00  0.00    +0.119 N 
ATOM     15  O   LIG    1       26.124 -20.498   9.255  0.00  0.00    -0.574 OA
ATOM     16  O   LIG    1       25.485 -20.481   7.144  0.00  0.00    +0.045 OA
ENDBRANCH  11  14
ENDBRANCH   2   9
TORSDOF 3
ENDMDL
MODEL 2
REMARK VINA RESULT:      -7.3      1.601      2.174
REMARK  Name = *****
REMARK                            x       y       z     vdW  Elec       q    Type
REMARK                         _______ _______ _______ _____ _____    ______ ____
ROOT
ATOM      1  N   LIG    1       30.704 -18.430   7.150  0.00  0.00    -0.179 NA
ATOM      2  C   LIG    1       30.002 -19.297   6.476  0.00  0.00    +0.177 C 
ENDROOT
BRANCH   1   5
ATOM      3  O   LIG    1       32.126 -20.014   9.144  0.00  0.00    -0.224 OA
ATOM      4  C   LIG    1       31.391 -19.067   9.397  0.00  0.00    +0.423 C 
ATOM      5  N   LIG    1       30.557 -18.369   8.512  0.00  0.00    -0.155 N 
ATOM      6  C   LIG    1       30.246 -17.119   9.121  0.00  0.00    +0.179 C 
ATOM      7  C   LIG    1       30.322 -17.466  10.583  0.00  0.00    +0.255 C 
ATOM      8  O   LIG    1       31.307 -18.504  10.648  0.00  0.00    -0.448 OA
ENDBRANCH   1   5
BRANCH   2   9
ATOM      9  C   LIG    1       28.922 -20.137   6.927  0.00  0.00    +0.154 A 
ATOM     10  O   LIG    1       27.632 -19.840   6.568  0.00  0.00    -0.399 OA
ATOM     11  C   LIG    1       26.843 -20.762   7.174  0.00  0.00    +0.438 A 
ATOM     12  C   LIG    1       27.583 -21.678   7.882  0.00  0.00    +0.132 A 
ATOM     13  C   LIG    1       28.935 -21.289   7.696  0.00  0.00    +0.058 A 
BRANCH  11  14
ATOM     14  N   LIG    1       25.434 -20.606   7.000  0.00  0.00    +0.119 N 
ATOM     15  O   LIG    1       25.013 -20.395   5.855  0.00  0.00    -0.574 OA
ATOM     16  O   LIG    1       24.741 -20.707   8.021  0.00  0.00    +0.045 OA
ENDBRANCH  11  14
ENDBRANCH   2   9
TORSDOF 3
ENDMDL
MODEL 3
REMARK VINA RESULT:      -6.9      6.045      7.757
REMARK  Name = *****
REMARK                            x       y       z     vdW  Elec       q    Type
REMARK                         _______ _______ _______ _____ _____    ______ ____
ROOT
ATOM      1  N   LIG    1       25.999 -21.624   6.774  0.00  0.00    -0.179 NA
ATOM      2  C   LIG    1       26.239 -22.870   7.068  0.00  0.00    +0.177 C 
ENDROOT
BRANCH   1   5
ATOM      3  O   LIG    1       23.436 -20.747   7.854  0.00  0.00    -0.224 OA
ATOM      4  C   LIG    1       23.726 -20.761   6.664  0.00  0.00    +0.423 C 
ATOM      5  N   LIG    1       24.866 -21.314   6.066  0.00  0.00    -0.155 N 
ATOM      6  C   LIG    1       24.995 -20.726   4.774  0.00  0.00    +0.179 C 
ATOM      7  C   LIG    1       23.560 -20.425   4.434  0.00  0.00    +0.255 C 
ATOM      8  O   LIG    1       22.944 -20.168   5.701  0.00  0.00    -0.448 OA
ENDBRANCH   1   5
BRANCH   2   9
ATOM      9  C   LIG    1       25.563 -24.058   6.612  0.00  0.00    +0.154 A 
ATOM     10  O   LIG    1       26.287 -25.092   6.078  0.00  0.00    -0.399 OA
ATOM     11  C   LIG    1       25.387 -26.033   5.697  0.00  0.00    +0.438 A 
ATOM     12  C   LIG    1       24.101 -25.663   6.008  0.00  0.00    +0.132 A 
ATOM     13  C   LIG    1       24.219 -24.393   6.630  0.00  0.00    +0.058 A 
BRANCH  11  14
ATOM     14  N   LIG    1       25.914 -27.186   5.038  0.00  0.00    +0.119 N 
ATOM     15  O   LIG    1       27.085 -27.140   4.639  0.00  0.00    -0.574 OA
ATOM     16  O   LIG    1       25.148 -28.154   4.931  0.00  0.00    +0.045 OA
ENDBRANCH  11  14
ENDBRANCH   2   9
TORSDOF 3
ENDMDL
MODEL 4
REMARK VINA RESULT:      -6.8      2.573      6.519
REMARK  Name = *****
REMARK                            x       y       z     vdW  Elec       q    Type
REMARK                         _______ _______ _______ _____ _____    ______ ____
ROOT
ATOM      1  N   LIG    1       25.095 -20.947   7.943  0.00  0.00    -0.179 NA
ATOM      2  C   LIG    1       26.224 -20.518   8.432  0.00  0.00    +0.177 C 
ENDROOT
BRANCH   1   5
ATOM      3  O   LIG    1       25.588 -23.692   7.090  0.00  0.00    -0.224 OA
ATOM      4  C   LIG    1       25.173 -22.797   6.363  0.00  0.00    +0.423 C 
ATOM      5  N   LIG    1       25.067 -21.431   6.661  0.00  0.00    -0.155 N 
ATOM      6  C   LIG    1       24.155 -20.864   5.724  0.00  0.00    +0.179 C 
ATOM      7  C   LIG    1       24.347 -21.760   4.531  0.00  0.00    +0.255 C 
ATOM      8  O   LIG    1       24.692 -23.030   5.096  0.00  0.00    -0.448 OA
ENDBRANCH   1   5
BRANCH   2   9
ATOM      9  C   LIG    1       27.482 -20.306   7.762  0.00  0.00    +0.154 A 
ATOM     10  O   LIG    1       28.652 -20.365   8.474  0.00  0.00    -0.399 OA
ATOM     11  C   LIG    1       29.648 -20.077   7.599  0.00  0.00    +0.438 A 
ATOM     12  C   LIG    1       29.166 -19.877   6.328  0.00  0.00    +0.132 A 
ATOM     13  C   LIG    1       27.763 -20.055   6.429  0.00  0.00    +0.058 A 
BRANCH  11  14
ATOM     14  N   LIG    1       30.968 -20.008   8.140  0.00  0.00    +0.119 N 
ATOM     15  O   LIG    1       31.120 -20.297   9.334  0.00  0.00    -0.574 OA
ATOM     16  O   LIG    1       31.865 -19.672   7.355  0.00  0.00    +0.045 OA
ENDBRANCH  11  14
ENDBRANCH   2   9
TORSDOF 3
ENDMDL
MODEL 5
REMARK VINA RESULT:      -6.8      3.708      7.603
REMARK  Name = *****
REMARK                            x       y       z     vdW  Elec       q    Type
REMARK                         _______ _______ _______ _____ _____    ______ ____
ROOT
ATOM      1  N   LIG    1       24.461 -22.224   4.851  0.00  0.00    -0.179 NA
ATOM      2  C   LIG    1       24.986 -21.125   5.316  0.00  0.00    +0.177 C 
ENDROOT
BRANCH   1   5
ATOM      3  O   LIG    1       22.550 -23.074   6.884  0.00  0.00    -0.224 OA
ATOM      4  C   LIG    1       23.476 -23.759   6.463  0.00  0.00    +0.423 C 
ATOM      5  N   LIG    1       24.518 -23.361   5.614  0.00  0.00    -0.155 N 
ATOM      6  C   LIG    1       25.082 -24.545   5.053  0.00  0.00    +0.179 C 
ATOM      7  C   LIG    1       24.815 -25.552   6.139  0.00  0.00    +0.255 C 
ATOM      8  O   LIG    1       23.603 -25.097   6.752  0.00  0.00    -0.448 OA
ENDBRANCH   1   5
BRANCH   2   9
ATOM      9  C   LIG    1       25.802 -20.933   6.488  0.00  0.00    +0.154 A 
ATOM     10  O   LIG    1       27.168 -20.942   6.377  0.00  0.00    -0.399 OA
ATOM     11  C   LIG    1       27.656 -20.791   7.634  0.00  0.00    +0.438 A 
ATOM     12  C   LIG    1       26.649 -20.640   8.555  0.00  0.00    +0.132 A 
ATOM     13  C   LIG    1       25.445 -20.702   7.807  0.00  0.00    +0.058 A 
BRANCH  11  14
ATOM     14  N   LIG    1       29.076 -20.844   7.774  0.00  0.00    +0.119 N 
ATOM     15  O   LIG    1       29.763 -20.228   6.949  0.00  0.00    -0.574 OA
ATOM     16  O   LIG    1       29.508 -21.502   8.731  0.00  0.00    +0.045 OA
ENDBRANCH  11  14
ENDBRANCH   2   9
TORSDOF 3
ENDMDL
MODEL 6
REMARK VINA RESULT:      -6.6      3.466      5.613
REMARK  Name = *****
REMARK                            x       y       z     vdW  Elec       q    Type
REMARK                         _______ _______ _______ _____ _____    ______ ____
ROOT
ATOM      1  N   LIG    1       26.461 -22.847   7.329  0.00  0.00    -0.179 NA
ATOM      2  C   LIG    1       25.231 -22.919   6.905  0.00  0.00    +0.177 C 
ENDROOT
BRANCH   1   5
ATOM      3  O   LIG    1       25.906 -20.811   9.343  0.00  0.00    -0.224 OA
ATOM      4  C   LIG    1       26.826 -20.763   8.534  0.00  0.00    +0.423 C 
ATOM      5  N   LIG    1       27.054 -21.617   7.445  0.00  0.00    -0.155 N 
ATOM      6  C   LIG    1       28.421 -21.467   7.070  0.00  0.00    +0.179 C 
ATOM      7  C   LIG    1       28.697 -20.047   7.485  0.00  0.00    +0.255 C 
ATOM      8  O   LIG    1       27.838 -19.836   8.611  0.00  0.00    -0.448 OA
ENDBRANCH   1   5
BRANCH   2   9
ATOM      9  C   LIG    1       24.399 -21.880   6.353  0.00  0.00    +0.154 A 
ATOM     10  O   LIG    1       24.747 -21.285   5.167  0.00  0.00    -0.399 OA
ATOM     11  C   LIG    1       23.817 -20.325   4.933  0.00  0.00    +0.438 A 
ATOM     12  C   LIG    1       22.849 -20.306   5.908  0.00  0.00    +0.132 A 
ATOM     13  C   LIG    1       23.212 -21.335   6.814  0.00  0.00    +0.058 A 
BRANCH  11  14
ATOM     14  N   LIG    1       24.018 -19.516   3.773  0.00  0.00    +0.119 N 
ATOM     15  O   LIG    1       23.216 -18.597   3.562  0.00  0.00    -0.574 OA
ATOM     16  O   LIG    1       24.999 -19.799   3.072  0.00  0.00    +0.045 OA
ENDBRANCH  11  14
ENDBRANCH   2   9
TORSDOF 3
ENDMDL
MODEL 7
REMARK VINA RESULT:      -6.6      3.610      7.271
REMARK  Name = *****
REMARK                            x       y       z     vdW  Elec       q    Type
REMARK                         _______ _______ _______ _____ _____    ______ ____
ROOT
ATOM      1  N   LIG    1       24.135 -22.019   4.908  0.00  0.00    -0.179 NA
ATOM      2  C   LIG    1       25.100 -22.360   5.715  0.00  0.00    +0.177 C 
ENDROOT
BRANCH   1   5
ATOM      3  O   LIG    1       25.292 -19.913   3.255  0.00  0.00    -0.224 OA
ATOM      4  C   LIG    1       24.268 -19.799   3.918  0.00  0.00    +0.423 C 
ATOM      5  N   LIG    1       23.747 -20.705   4.852  0.00  0.00    -0.155 N 
ATOM      6  C   LIG    1       22.371 -20.380   5.035  0.00  0.00    +0.179 C 
ATOM      7  C   LIG    1       22.369 -18.901   4.756  0.00  0.00    +0.255 C 
ATOM      8  O   LIG    1       23.422 -18.721   3.803  0.00  0.00    -0.448 OA
ENDBRANCH   1   5
BRANCH   2   9
ATOM      9  C   LIG    1       25.753 -21.574   6.731  0.00  0.00    +0.154 A 
ATOM     10  O   LIG    1       27.014 -21.083   6.507  0.00  0.00    -0.399 OA
ATOM     11  C   LIG    1       27.381 -20.440   7.644  0.00  0.00    +0.438 A 
ATOM     12  C   LIG    1       26.380 -20.458   8.585  0.00  0.00    +0.132 A 
ATOM     13  C   LIG    1       25.312 -21.169   7.980  0.00  0.00    +0.058 A 
BRANCH  11  14
ATOM     14  N   LIG    1       28.704 -19.902   7.670  0.00  0.00    +0.119 N 
ATOM     15  O   LIG    1       29.402 -20.034   6.656  0.00  0.00    -0.574 OA
ATOM     16  O   LIG    1       29.043 -19.331   8.715  0.00  0.00    +0.045 OA
ENDBRANCH  11  14
ENDBRANCH   2   9
TORSDOF 3
ENDMDL
MODEL 8
REMARK VINA RESULT:      -6.4      3.410      7.134
REMARK  Name = *****
REMARK                            x       y       z     vdW  Elec       q    Type
REMARK                         _______ _______ _______ _____ _____    ______ ____
ROOT
ATOM      1  N   LIG    1       24.883 -21.181   4.631  0.00  0.00    -0.179 NA
ATOM      2  C   LIG    1       25.807 -20.280   4.815  0.00  0.00    +0.177 C 
ENDROOT
BRANCH   1   5
ATOM      3  O   LIG    1       22.872 -21.049   6.738  0.00  0.00    -0.224 OA
ATOM      4  C   LIG    1       23.568 -22.028   6.496  0.00  0.00    +0.423 C 
ATOM      5  N   LIG    1       24.654 -22.109   5.614  0.00  0.00    -0.155 N 
ATOM      6  C   LIG    1       24.865 -23.489   5.327  0.00  0.00    +0.179 C 
ATOM      7  C   LIG    1       24.368 -24.141   6.590  0.00  0.00    +0.255 C 
ATOM      8  O   LIG    1       23.341 -23.261   7.059  0.00  0.00    -0.448 OA
ENDBRANCH   1   5
BRANCH   2   9
ATOM      9  C   LIG    1       26.790 -20.189   5.864  0.00  0.00    +0.154 A 
ATOM     10  O   LIG    1       28.035 -19.683   5.590  0.00  0.00    -0.399 OA
ATOM     11  C   LIG    1       28.746 -19.770   6.742  0.00  0.00    +0.438 A 
ATOM     12  C   LIG    1       27.988 -20.276   7.770  0.00  0.00    +0.132 A 
ATOM     13  C   LIG    1       26.710 -20.520   7.207  0.00  0.00    +0.058 A 
BRANCH  11  14
ATOM     14  N   LIG    1       30.113 -19.362   6.676  0.00  0.00    +0.119 N 
ATOM     15  O   LIG    1       30.924 -19.932   7.418  0.00  0.00    -0.574 OA
ATOM     16  O   LIG    1       30.379 -18.467   5.863  0.00  0.00    +0.045 OA
ENDBRANCH  11  14
ENDBRANCH   2   9
TORSDOF 3
ENDMDL
MODEL 9
REMARK VINA RESULT:      -6.4      5.767      8.091
REMARK  Name = *****
REMARK                            x       y       z     vdW  Elec       q    Type
REMARK                         _______ _______ _______ _____ _____    ______ ____
ROOT
ATOM      1  N   LIG    1       23.270 -22.129   6.652  0.00  0.00    -0.179 NA
ATOM      2  C   LIG    1       23.086 -23.418   6.717  0.00  0.00    +0.177 C 
ENDROOT
BRANCH   1   5
ATOM      3  O   LIG    1       24.096 -21.370   3.960  0.00  0.00    -0.224 OA
ATOM      4  C   LIG    1       24.754 -21.175   4.975  0.00  0.00    +0.423 C 
ATOM      5  N   LIG    1       24.496 -21.652   6.268  0.00  0.00    -0.155 N 
ATOM      6  C   LIG    1       25.239 -20.840   7.174  0.00  0.00    +0.179 C 
ATOM      7  C   LIG    1       26.409 -20.426   6.322  0.00  0.00    +0.255 C 
ATOM      8  O   LIG    1       25.879 -20.385   4.993  0.00  0.00    -0.448 OA
ENDBRANCH   1   5
BRANCH   2   9
ATOM      9  C   LIG    1       24.052 -24.480   6.603  0.00  0.00    +0.154 A 
ATOM     10  O   LIG    1       23.638 -25.748   6.287  0.00  0.00    -0.399 OA
ATOM     11  C   LIG    1       24.747 -26.529   6.303  0.00  0.00    +0.438 A 
ATOM     12  C   LIG    1       25.879 -25.800   6.576  0.00  0.00    +0.132 A 
ATOM     13  C   LIG    1       25.431 -24.464   6.741  0.00  0.00    +0.058 A 
BRANCH  11  14
ATOM     14  N   LIG    1       24.545 -27.924   6.071  0.00  0.00    +0.119 N 
ATOM     15  O   LIG    1       24.484 -28.672   7.055  0.00  0.00    -0.574 OA
ATOM     16  O   LIG    1       24.435 -28.272   4.887  0.00  0.00    +0.045 OA
ENDBRANCH  11  14
ENDBRANCH   2   9
TORSDOF 3
ENDMDL
