MODEL 1
REMARK VINA RESULT:      -7.9      0.000      0.000
REMARK  Name = *****
REMARK                            x       y       z     vdW  Elec       q    Type
REMARK                         _______ _______ _______ _____ _____    ______ ____
ROOT
ATOM      1  N   LIG    1       24.163 -30.657   8.820  0.00  0.00    -0.261 N 
ATOM      2  C   LIG    1       24.458 -29.974  10.009  0.00  0.00    +0.075 C 
ATOM      3  C   LIG    1       23.509 -30.118  11.088  0.00  0.00    +0.102 C 
ATOM      4  C   LIG    1       23.760 -29.707  12.357  0.00  0.00    +0.120 C 
ATOM      5  N   LIG    1       24.970 -29.039  12.590  0.00  0.00    -0.299 N 
ATOM      6  C   LIG    1       25.832 -28.667  11.566  0.00  0.00    +0.257 C 
ATOM      7  O   LIG    1       26.781 -27.893  11.721  0.00  0.00    -0.267 OA
ATOM      8  C   LIG    1       25.320 -28.556  13.923  0.00  0.00    +0.153 C 
ATOM      9  C   LIG    1       22.240 -30.831  10.782  0.00  0.00    +0.268 C 
ATOM     10  O   LIG    1       21.183 -30.484  11.286  0.00  0.00    -0.267 OA
ATOM     11  N   LIG    1       22.405 -31.884   9.890  0.00  0.00    -0.257 N 
ATOM     12  C   LIG    1       25.612 -29.304  10.232  0.00  0.00    +0.039 C 
ATOM     13  C   LIG    1       26.838 -29.254   9.362  0.00  0.00    +0.051 C 
ATOM     14  C   LIG    1       23.276 -31.769   8.798  0.00  0.00    +0.337 C 
ATOM     15  O   LIG    1       23.197 -32.542   7.840  0.00  0.00    -0.246 OA
ENDROOT
BRANCH   1  18
ATOM     16  C   LIG    1       24.795 -28.310   5.931  0.00  0.00    +0.035 A 
ATOM     17  C   LIG    1       24.387 -28.789   7.192  0.00  0.00    +0.049 A 
ATOM     18  C   LIG    1       24.549 -30.146   7.527  0.00  0.00    +0.053 A 
ATOM     19  C   LIG    1       25.139 -31.017   6.597  0.00  0.00    +0.026 A 
ATOM     20  C   LIG    1       25.586 -30.531   5.371  0.00  0.00    +0.004 A 
ATOM     21  C   LIG    1       25.409 -29.189   5.047  0.00  0.00    +0.023 A 
BRANCH  16  24
ATOM     22  C   LIG    1       24.914 -24.639   5.045  0.00  0.00    +0.109 C 
ATOM     23  C   LIG    1       25.487 -25.943   5.523  0.00  0.00    +0.214 C 
ATOM     24  N   LIG    1       24.530 -26.955   5.626  0.00  0.00    -0.286 N 
ATOM     25  H   LIG    1       23.580 -26.705   5.424  0.00  0.00    +0.155 HD
ATOM     26  O   LIG    1       26.700 -26.042   5.717  0.00  0.00    -0.276 OA
ENDBRANCH  16  24
ENDBRANCH   1  18
BRANCH  11  27
ATOM     27  C   LIG    1       21.287 -32.807   9.734  0.00  0.00    +0.095 C 
ATOM     28  C   LIG    1       20.920 -33.825  10.789  0.00  0.00    +0.027 C 
ATOM     29  C   LIG    1       20.005 -32.672  10.520  0.00  0.00    +0.027 C 
ENDBRANCH  11  27
BRANCH   4  30
ATOM     30  N   LIG    1       22.847 -29.902  13.399  0.00  0.00    -0.298 N 
ATOM     31  H   LIG    1       23.337 -30.032  14.299  0.00  0.00    +0.154 HD
BRANCH  30  32
ATOM     32  C   LIG    1       21.770 -28.997  13.657  0.00  0.00    +0.068 A 
ATOM     33  C   LIG    1       20.678 -29.438  14.424  0.00  0.00    +0.145 A 
ATOM     34  F   LIG    1       20.723 -30.652  14.993  0.00  0.00    -0.203 F 
ATOM     35  C   LIG    1       19.550 -28.647  14.627  0.00  0.00    +0.054 A 
ATOM     36  C   LIG    1       19.486 -27.395  14.024  0.00  0.00    +0.016 A 
ATOM     37  I   LIG    1       17.796 -26.213  14.266  0.00  0.00    -0.044 I 
ATOM     38  C   LIG    1       20.546 -26.932  13.245  0.00  0.00    +0.016 A 
ATOM     39  C   LIG    1       21.683 -27.728  13.070  0.00  0.00    +0.027 A 
ENDBRANCH  30  32
ENDBRANCH   4  30
TORSDOF 5
ENDMDL
MODEL 2
REMARK VINA RESULT:      -7.1      2.742      4.776
REMARK  Name = *****
REMARK                            x       y       z     vdW  Elec       q    Type
REMARK                         _______ _______ _______ _____ _____    ______ ____
ROOT
ATOM      1  N   LIG    1       25.654 -31.278   9.549  0.00  0.00    -0.261 N 
ATOM      2  C   LIG    1       24.418 -31.687  10.072  0.00  0.00    +0.075 C 
ATOM      3  C   LIG    1       24.119 -31.268  11.421  0.00  0.00    +0.102 C 
ATOM      4  C   LIG    1       22.889 -31.393  11.982  0.00  0.00    +0.120 C 
ATOM      5  N   LIG    1       21.900 -32.037  11.226  0.00  0.00    -0.299 N 
ATOM      6  C   LIG    1       22.168 -32.661  10.014  0.00  0.00    +0.257 C 
ATOM      7  O   LIG    1       21.373 -33.416   9.446  0.00  0.00    -0.267 OA
ATOM      8  C   LIG    1       20.549 -32.220  11.752  0.00  0.00    +0.153 C 
ATOM      9  C   LIG    1       25.209 -30.596  12.178  0.00  0.00    +0.268 C 
ATOM     10  O   LIG    1       25.353 -30.780  13.377  0.00  0.00    -0.267 OA
ATOM     11  N   LIG    1       26.002 -29.777  11.383  0.00  0.00    -0.257 N 
ATOM     12  C   LIG    1       23.469 -32.332   9.357  0.00  0.00    +0.039 C 
ATOM     13  C   LIG    1       23.457 -32.622   7.881  0.00  0.00    +0.051 C 
ATOM     14  C   LIG    1       26.361 -30.167  10.086  0.00  0.00    +0.337 C 
ATOM     15  O   LIG    1       27.302 -29.626   9.499  0.00  0.00    -0.246 OA
ENDROOT
BRANCH   1  18
ATOM     16  C   LIG    1       27.037 -32.636   6.309  0.00  0.00    +0.035 A 
ATOM     17  C   LIG    1       26.291 -31.855   7.214  0.00  0.00    +0.049 A 
ATOM     18  C   LIG    1       26.388 -32.080   8.600  0.00  0.00    +0.053 A 
ATOM     19  C   LIG    1       27.249 -33.083   9.074  0.00  0.00    +0.026 A 
ATOM     20  C   LIG    1       28.020 -33.820   8.180  0.00  0.00    +0.004 A 
ATOM     21  C   LIG    1       27.907 -33.595   6.811  0.00  0.00    +0.023 A 
BRANCH  16  24
ATOM     22  C   LIG    1       25.784 -32.454   2.749  0.00  0.00    +0.109 C 
ATOM     23  C   LIG    1       25.832 -32.997   4.149  0.00  0.00    +0.214 C 
ATOM     24  N   LIG    1       26.834 -32.413   4.927  0.00  0.00    -0.286 N 
ATOM     25  H   LIG    1       27.431 -31.746   4.475  0.00  0.00    +0.155 HD
ATOM     26  O   LIG    1       24.994 -33.825   4.512  0.00  0.00    -0.276 OA
ENDBRANCH  16  24
ENDBRANCH   1  18
BRANCH  11  27
ATOM     27  C   LIG    1       26.919 -28.871  12.065  0.00  0.00    +0.095 C 
ATOM     28  C   LIG    1       26.972 -27.390  11.764  0.00  0.00    +0.027 C 
ATOM     29  C   LIG    1       26.454 -27.861  13.087  0.00  0.00    +0.027 C 
ENDBRANCH  11  27
BRANCH   4  30
ATOM     30  N   LIG    1       22.607 -30.935  13.273  0.00  0.00    -0.298 N 
ATOM     31  H   LIG    1       23.478 -30.741  13.793  0.00  0.00    +0.154 HD
BRANCH  30  32
ATOM     32  C   LIG    1       21.737 -29.828  13.524  0.00  0.00    +0.068 A 
ATOM     33  C   LIG    1       20.748 -29.949  14.514  0.00  0.00    +0.145 A 
ATOM     34  F   LIG    1       20.717 -31.050  15.281  0.00  0.00    -0.203 F 
ATOM     35  C   LIG    1       19.801 -28.954  14.739  0.00  0.00    +0.054 A 
ATOM     36  C   LIG    1       19.811 -27.818  13.936  0.00  0.00    +0.016 A 
ATOM     37  I   LIG    1       18.381 -26.339  14.213  0.00  0.00    -0.044 I 
ATOM     38  C   LIG    1       20.770 -27.672  12.934  0.00  0.00    +0.016 A 
ATOM     39  C   LIG    1       21.730 -28.670  12.736  0.00  0.00    +0.027 A 
ENDBRANCH  30  32
ENDBRANCH   4  30
TORSDOF 5
ENDMDL
MODEL 3
REMARK VINA RESULT:      -7.0      3.170      7.967
REMARK  Name = *****
REMARK                            x       y       z     vdW  Elec       q    Type
REMARK                         _______ _______ _______ _____ _____    ______ ____
ROOT
ATOM      1  N   LIG    1       22.592 -30.920  13.269  0.00  0.00    -0.261 N 
ATOM      2  C   LIG    1       22.737 -31.249  11.913  0.00  0.00    +0.075 C 
ATOM      3  C   LIG    1       23.883 -30.691  11.233  0.00  0.00    +0.102 C 
ATOM      4  C   LIG    1       24.279 -31.089   9.998  0.00  0.00    +0.120 C 
ATOM      5  N   LIG    1       23.475 -32.027   9.335  0.00  0.00    -0.299 N 
ATOM      6  C   LIG    1       22.245 -32.444   9.828  0.00  0.00    +0.257 C 
ATOM      7  O   LIG    1       21.428 -33.089   9.164  0.00  0.00    -0.267 OA
ATOM      8  C   LIG    1       23.822 -32.507   8.000  0.00  0.00    +0.153 C 
ATOM      9  C   LIG    1       24.695 -29.696  11.982  0.00  0.00    +0.268 C 
ATOM     10  O   LIG    1       25.200 -28.738  11.418  0.00  0.00    -0.267 OA
ATOM     11  N   LIG    1       24.795 -29.981  13.339  0.00  0.00    -0.257 N 
ATOM     12  C   LIG    1       21.950 -32.133  11.259  0.00  0.00    +0.039 C 
ATOM     13  C   LIG    1       20.883 -33.025  11.832  0.00  0.00    +0.051 C 
ATOM     14  C   LIG    1       23.694 -30.475  14.051  0.00  0.00    +0.337 C 
ATOM     15  O   LIG    1       23.663 -30.429  15.283  0.00  0.00    -0.246 OA
ENDROOT
BRANCH   1  18
ATOM     16  C   LIG    1       19.180 -29.611  14.220  0.00  0.00    +0.035 A 
ATOM     17  C   LIG    1       20.451 -29.701  13.617  0.00  0.00    +0.049 A 
ATOM     18  C   LIG    1       21.297 -30.792  13.892  0.00  0.00    +0.053 A 
ATOM     19  C   LIG    1       20.855 -31.801  14.761  0.00  0.00    +0.026 A 
ATOM     20  C   LIG    1       19.580 -31.735  15.317  0.00  0.00    +0.004 A 
ATOM     21  C   LIG    1       18.757 -30.645  15.046  0.00  0.00    +0.023 A 
BRANCH  16  24
ATOM     22  C   LIG    1       17.708 -26.138  14.011  0.00  0.00    +0.109 C 
ATOM     23  C   LIG    1       18.576 -27.215  14.596  0.00  0.00    +0.214 C 
ATOM     24  N   LIG    1       18.414 -28.451  13.966  0.00  0.00    -0.286 N 
ATOM     25  H   LIG    1       17.722 -28.505  13.242  0.00  0.00    +0.155 HD
ATOM     26  O   LIG    1       19.372 -26.937  15.496  0.00  0.00    -0.276 OA
ENDBRANCH  16  24
ENDBRANCH   1  18
BRANCH  11  27
ATOM     27  C   LIG    1       25.781 -29.230  14.108  0.00  0.00    +0.095 C 
ATOM     28  C   LIG    1       26.951 -29.894  14.797  0.00  0.00    +0.027 C 
ATOM     29  C   LIG    1       27.192 -29.003  13.619  0.00  0.00    +0.027 C 
ENDBRANCH  11  27
BRANCH   4  30
ATOM     30  N   LIG    1       25.421 -30.572   9.377  0.00  0.00    -0.298 N 
ATOM     31  H   LIG    1       25.994 -31.328   8.971  0.00  0.00    +0.154 HD
BRANCH  30  32
ATOM     32  C   LIG    1       25.359 -29.541   8.387  0.00  0.00    +0.068 A 
ATOM     33  C   LIG    1       26.258 -28.465   8.466  0.00  0.00    +0.145 A 
ATOM     34  F   LIG    1       27.229 -28.486   9.392  0.00  0.00    -0.203 F 
ATOM     35  C   LIG    1       26.187 -27.377   7.599  0.00  0.00    +0.054 A 
ATOM     36  C   LIG    1       25.173 -27.336   6.649  0.00  0.00    +0.016 A 
ATOM     37  I   LIG    1       25.009 -25.704   5.376  0.00  0.00    -0.044 I 
ATOM     38  C   LIG    1       24.254 -28.381   6.553  0.00  0.00    +0.016 A 
ATOM     39  C   LIG    1       24.353 -29.479   7.414  0.00  0.00    +0.027 A 
ENDBRANCH  30  32
ENDBRANCH   4  30
TORSDOF 5
ENDMDL
MODEL 4
REMARK VINA RESULT:      -6.9      1.614      2.558
REMARK  Name = *****
REMARK                            x       y       z     vdW  Elec       q    Type
REMARK                         _______ _______ _______ _____ _____    ______ ____
ROOT
ATOM      1  N   LIG    1       24.162 -30.918   8.969  0.00  0.00    -0.261 N 
ATOM      2  C   LIG    1       24.422 -30.179  10.133  0.00  0.00    +0.075 C 
ATOM      3  C   LIG    1       23.456 -30.296  11.200  0.00  0.00    +0.102 C 
ATOM      4  C   LIG    1       23.675 -29.825  12.454  0.00  0.00    +0.120 C 
ATOM      5  N   LIG    1       24.867 -29.123  12.679  0.00  0.00    -0.299 N 
ATOM      6  C   LIG    1       25.740 -28.777  11.655  0.00  0.00    +0.257 C 
ATOM      7  O   LIG    1       26.670 -27.977  11.793  0.00  0.00    -0.267 OA
ATOM      8  C   LIG    1       25.182 -28.575  13.996  0.00  0.00    +0.153 C 
ATOM      9  C   LIG    1       22.207 -31.047  10.903  0.00  0.00    +0.268 C 
ATOM     10  O   LIG    1       21.134 -30.701  11.372  0.00  0.00    -0.267 OA
ATOM     11  N   LIG    1       22.410 -32.134  10.060  0.00  0.00    -0.257 N 
ATOM     12  C   LIG    1       25.557 -29.476  10.347  0.00  0.00    +0.039 C 
ATOM     13  C   LIG    1       26.798 -29.438   9.497  0.00  0.00    +0.051 C 
ATOM     14  C   LIG    1       23.299 -32.049   8.980  0.00  0.00    +0.337 C 
ATOM     15  O   LIG    1       23.253 -32.864   8.056  0.00  0.00    -0.246 OA
ENDROOT
BRANCH   1  18
ATOM     16  C   LIG    1       25.652 -30.811   5.502  0.00  0.00    +0.035 A 
ATOM     17  C   LIG    1       25.293 -31.276   6.783  0.00  0.00    +0.049 A 
ATOM     18  C   LIG    1       24.563 -30.456   7.662  0.00  0.00    +0.053 A 
ATOM     19  C   LIG    1       24.178 -29.173   7.244  0.00  0.00    +0.026 A 
ATOM     20  C   LIG    1       24.491 -28.733   5.961  0.00  0.00    +0.004 A 
ATOM     21  C   LIG    1       25.225 -29.550   5.104  0.00  0.00    +0.023 A 
BRANCH  16  24
ATOM     22  C   LIG    1       27.066 -33.330   3.067  0.00  0.00    +0.109 C 
ATOM     23  C   LIG    1       25.993 -32.716   3.921  0.00  0.00    +0.214 C 
ATOM     24  N   LIG    1       26.455 -31.652   4.698  0.00  0.00    -0.286 N 
ATOM     25  H   LIG    1       27.434 -31.442   4.646  0.00  0.00    +0.155 HD
ATOM     26  O   LIG    1       24.834 -33.127   3.834  0.00  0.00    -0.276 OA
ENDBRANCH  16  24
ENDBRANCH   1  18
BRANCH  11  27
ATOM     27  C   LIG    1       21.314 -33.087   9.925  0.00  0.00    +0.095 C 
ATOM     28  C   LIG    1       20.727 -33.824  11.107  0.00  0.00    +0.027 C 
ATOM     29  C   LIG    1       19.912 -32.786  10.401  0.00  0.00    +0.027 C 
ENDBRANCH  11  27
BRANCH   4  30
ATOM     30  N   LIG    1       22.747 -29.994  13.487  0.00  0.00    -0.298 N 
ATOM     31  H   LIG    1       23.224 -30.125  14.393  0.00  0.00    +0.154 HD
BRANCH  30  32
ATOM     32  C   LIG    1       21.684 -29.066  13.725  0.00  0.00    +0.068 A 
ATOM     33  C   LIG    1       20.603 -29.461  14.532  0.00  0.00    +0.145 A 
ATOM     34  F   LIG    1       20.647 -30.648  15.155  0.00  0.00    -0.203 F 
ATOM     35  C   LIG    1       19.488 -28.649  14.722  0.00  0.00    +0.054 A 
ATOM     36  C   LIG    1       19.423 -27.426  14.064  0.00  0.00    +0.016 A 
ATOM     37  I   LIG    1       17.751 -26.215  14.285  0.00  0.00    -0.044 I 
ATOM     38  C   LIG    1       20.472 -27.010  13.244  0.00  0.00    +0.016 A 
ATOM     39  C   LIG    1       21.598 -27.825  13.083  0.00  0.00    +0.027 A 
ENDBRANCH  30  32
ENDBRANCH   4  30
TORSDOF 5
ENDMDL
MODEL 5
REMARK VINA RESULT:      -6.4      2.673      3.625
REMARK  Name = *****
REMARK                            x       y       z     vdW  Elec       q    Type
REMARK                         _______ _______ _______ _____ _____    ______ ____
ROOT
ATOM      1  N   LIG    1       25.230 -30.023   7.050  0.00  0.00    -0.261 N 
ATOM      2  C   LIG    1       25.079 -30.038   8.445  0.00  0.00    +0.075 C 
ATOM      3  C   LIG    1       24.348 -31.153   9.002  0.00  0.00    +0.102 C 
ATOM      4  C   LIG    1       24.308 -31.424  10.331  0.00  0.00    +0.120 C 
ATOM      5  N   LIG    1       24.943 -30.519  11.192  0.00  0.00    -0.299 N 
ATOM      6  C   LIG    1       25.475 -29.312  10.755  0.00  0.00    +0.257 C 
ATOM      7  O   LIG    1       25.835 -28.410  11.517  0.00  0.00    -0.267 OA
ATOM      8  C   LIG    1       24.945 -30.728  12.638  0.00  0.00    +0.153 C 
ATOM      9  C   LIG    1       23.689 -32.077   8.041  0.00  0.00    +0.268 C 
ATOM     10  O   LIG    1       22.607 -32.585   8.293  0.00  0.00    -0.267 OA
ATOM     11  N   LIG    1       24.424 -32.272   6.878  0.00  0.00    -0.257 N 
ATOM     12  C   LIG    1       25.666 -29.153   9.281  0.00  0.00    +0.039 C 
ATOM     13  C   LIG    1       26.676 -28.090   8.945  0.00  0.00    +0.051 C 
ATOM     14  C   LIG    1       25.106 -31.207   6.273  0.00  0.00    +0.337 C 
ATOM     15  O   LIG    1       25.484 -31.280   5.102  0.00  0.00    -0.246 OA
ENDROOT
BRANCH   1  18
ATOM     16  C   LIG    1       24.521 -26.518   5.839  0.00  0.00    +0.035 A 
ATOM     17  C   LIG    1       24.423 -27.719   6.569  0.00  0.00    +0.049 A 
ATOM     18  C   LIG    1       25.293 -28.792   6.300  0.00  0.00    +0.053 A 
ATOM     19  C   LIG    1       26.273 -28.648   5.306  0.00  0.00    +0.026 A 
ATOM     20  C   LIG    1       26.399 -27.443   4.619  0.00  0.00    +0.004 A 
ATOM     21  C   LIG    1       25.525 -26.393   4.887  0.00  0.00    +0.023 A 
BRANCH  16  24
ATOM     22  C   LIG    1       22.639 -23.341   6.640  0.00  0.00    +0.109 C 
ATOM     23  C   LIG    1       23.845 -24.237   6.605  0.00  0.00    +0.214 C 
ATOM     24  N   LIG    1       23.566 -25.509   6.102  0.00  0.00    -0.286 N 
ATOM     25  H   LIG    1       22.611 -25.707   5.868  0.00  0.00    +0.155 HD
ATOM     26  O   LIG    1       24.945 -23.793   6.940  0.00  0.00    -0.276 OA
ENDBRANCH  16  24
ENDBRANCH   1  18
BRANCH  11  27
ATOM     27  C   LIG    1       24.005 -33.357   5.998  0.00  0.00    +0.095 C 
ATOM     28  C   LIG    1       22.861 -33.214   5.019  0.00  0.00    +0.027 C 
ATOM     29  C   LIG    1       24.262 -33.342   4.509  0.00  0.00    +0.027 C 
ENDBRANCH  11  27
BRANCH   4  30
ATOM     30  N   LIG    1       23.636 -32.538  10.846  0.00  0.00    -0.298 N 
ATOM     31  H   LIG    1       24.271 -33.121  11.414  0.00  0.00    +0.154 HD
BRANCH  30  32
ATOM     32  C   LIG    1       22.420 -32.426  11.591  0.00  0.00    +0.068 A 
ATOM     33  C   LIG    1       22.288 -33.146  12.791  0.00  0.00    +0.145 A 
ATOM     34  F   LIG    1       23.342 -33.825  13.269  0.00  0.00    -0.203 F 
ATOM     35  C   LIG    1       21.098 -33.167  13.513  0.00  0.00    +0.054 A 
ATOM     36  C   LIG    1       19.994 -32.484  13.014  0.00  0.00    +0.016 A 
ATOM     37  I   LIG    1       18.190 -32.538  14.041  0.00  0.00    -0.044 I 
ATOM     38  C   LIG    1       20.086 -31.771  11.819  0.00  0.00    +0.016 A 
ATOM     39  C   LIG    1       21.296 -31.739  11.117  0.00  0.00    +0.027 A 
ENDBRANCH  30  32
ENDBRANCH   4  30
TORSDOF 5
ENDMDL
MODEL 6
REMARK VINA RESULT:      -6.2      3.286      5.564
REMARK  Name = *****
REMARK                            x       y       z     vdW  Elec       q    Type
REMARK                         _______ _______ _______ _____ _____    ______ ____
ROOT
ATOM      1  N   LIG    1       24.549 -30.931   7.339  0.00  0.00    -0.261 N 
ATOM      2  C   LIG    1       24.958 -31.291   8.631  0.00  0.00    +0.075 C 
ATOM      3  C   LIG    1       25.663 -30.283   9.388  0.00  0.00    +0.102 C 
ATOM      4  C   LIG    1       25.927 -30.400  10.715  0.00  0.00    +0.120 C 
ATOM      5  N   LIG    1       25.561 -31.600  11.340  0.00  0.00    -0.299 N 
ATOM      6  C   LIG    1       25.082 -32.699  10.637  0.00  0.00    +0.257 C 
ATOM      7  O   LIG    1       24.966 -33.825  11.129  0.00  0.00    -0.267 OA
ATOM      8  C   LIG    1       25.811 -31.816  12.763  0.00  0.00    +0.153 C 
ATOM      9  C   LIG    1       26.032 -29.033   8.672  0.00  0.00    +0.268 C 
ATOM     10  O   LIG    1       27.084 -28.458   8.904  0.00  0.00    -0.267 OA
ATOM     11  N   LIG    1       25.074 -28.629   7.749  0.00  0.00    -0.257 N 
ATOM     12  C   LIG    1       24.633 -32.458   9.232  0.00  0.00    +0.039 C 
ATOM     13  C   LIG    1       23.691 -33.523   8.740  0.00  0.00    +0.051 C 
ATOM     14  C   LIG    1       24.402 -29.569   6.955  0.00  0.00    +0.337 C 
ATOM     15  O   LIG    1       23.804 -29.223   5.933  0.00  0.00    -0.246 OA
ENDROOT
BRANCH   1  18
ATOM     16  C   LIG    1       25.524 -33.320   4.584  0.00  0.00    +0.035 A 
ATOM     17  C   LIG    1       25.625 -32.364   5.614  0.00  0.00    +0.049 A 
ATOM     18  C   LIG    1       24.470 -31.890   6.264  0.00  0.00    +0.053 A 
ATOM     19  C   LIG    1       23.215 -32.393   5.887  0.00  0.00    +0.026 A 
ATOM     20  C   LIG    1       23.123 -33.373   4.903  0.00  0.00    +0.004 A 
ATOM     21  C   LIG    1       24.271 -33.825   4.259  0.00  0.00    +0.023 A 
BRANCH  16  24
ATOM     22  C   LIG    1       28.410 -33.824   2.199  0.00  0.00    +0.109 C 
ATOM     23  C   LIG    1       27.012 -33.429   2.578  0.00  0.00    +0.214 C 
ATOM     24  N   LIG    1       26.713 -33.694   3.916  0.00  0.00    -0.286 N 
ATOM     25  H   LIG    1       27.422 -34.151   4.459  0.00  0.00    +0.155 HD
ATOM     26  O   LIG    1       26.289 -32.870   1.751  0.00  0.00    -0.276 OA
ENDBRANCH  16  24
ENDBRANCH   1  18
BRANCH  11  27
ATOM     27  C   LIG    1       25.206 -27.288   7.194  0.00  0.00    +0.095 C 
ATOM     28  C   LIG    1       26.152 -26.968   6.058  0.00  0.00    +0.027 C 
ATOM     29  C   LIG    1       24.674 -26.916   5.830  0.00  0.00    +0.027 C 
ENDBRANCH  11  27
BRANCH   4  30
ATOM     30  N   LIG    1       26.566 -29.390  11.441  0.00  0.00    -0.298 N 
ATOM     31  H   LIG    1       27.148 -28.803  10.821  0.00  0.00    +0.154 HD
BRANCH  30  32
ATOM     32  C   LIG    1       25.856 -28.489  12.294  0.00  0.00    +0.068 A 
ATOM     33  C   LIG    1       26.300 -27.160  12.403  0.00  0.00    +0.145 A 
ATOM     34  F   LIG    1       27.302 -26.736  11.618  0.00  0.00    -0.203 F 
ATOM     35  C   LIG    1       25.722 -26.258  13.292  0.00  0.00    +0.054 A 
ATOM     36  C   LIG    1       24.697 -26.693  14.125  0.00  0.00    +0.016 A 
ATOM     37  I   LIG    1       23.848 -25.386  15.497  0.00  0.00    -0.044 I 
ATOM     38  C   LIG    1       24.241 -28.009  14.053  0.00  0.00    +0.016 A 
ATOM     39  C   LIG    1       24.815 -28.898  13.138  0.00  0.00    +0.027 A 
ENDBRANCH  30  32
ENDBRANCH   4  30
TORSDOF 5
ENDMDL
MODEL 7
REMARK VINA RESULT:      -6.1      3.442      6.733
REMARK  Name = *****
REMARK                            x       y       z     vdW  Elec       q    Type
REMARK                         _______ _______ _______ _____ _____    ______ ____
ROOT
ATOM      1  N   LIG    1       26.093 -29.725  13.427  0.00  0.00    -0.261 N 
ATOM      2  C   LIG    1       25.985 -29.781  12.030  0.00  0.00    +0.075 C 
ATOM      3  C   LIG    1       25.216 -30.877  11.486  0.00  0.00    +0.102 C 
ATOM      4  C   LIG    1       24.839 -30.944  10.184  0.00  0.00    +0.120 C 
ATOM      5  N   LIG    1       25.297 -29.933   9.328  0.00  0.00    -0.299 N 
ATOM      6  C   LIG    1       26.218 -28.972   9.726  0.00  0.00    +0.257 C 
ATOM      7  O   LIG    1       26.798 -28.218   8.939  0.00  0.00    -0.267 OA
ATOM      8  C   LIG    1       24.945 -29.929   7.910  0.00  0.00    +0.153 C 
ATOM      9  C   LIG    1       24.761 -31.923  12.440  0.00  0.00    +0.268 C 
ATOM     10  O   LIG    1       24.720 -33.100  12.116  0.00  0.00    -0.267 OA
ATOM     11  N   LIG    1       24.412 -31.413  13.686  0.00  0.00    -0.257 N 
ATOM     12  C   LIG    1       26.448 -28.824  11.194  0.00  0.00    +0.039 C 
ATOM     13  C   LIG    1       27.030 -27.484  11.552  0.00  0.00    +0.051 C 
ATOM     14  C   LIG    1       25.161 -30.385  14.275  0.00  0.00    +0.337 C 
ATOM     15  O   LIG    1       25.071 -30.148  15.482  0.00  0.00    -0.246 OA
ENDROOT
BRANCH   1  18
ATOM     16  C   LIG    1       29.642 -29.301  14.643  0.00  0.00    +0.035 A 
ATOM     17  C   LIG    1       28.508 -29.850  14.013  0.00  0.00    +0.049 A 
ATOM     18  C   LIG    1       27.263 -29.197  14.085  0.00  0.00    +0.053 A 
ATOM     19  C   LIG    1       27.167 -27.980  14.778  0.00  0.00    +0.026 A 
ATOM     20  C   LIG    1       28.299 -27.415  15.358  0.00  0.00    +0.004 A 
ATOM     21  C   LIG    1       29.522 -28.078  15.290  0.00  0.00    +0.023 A 
BRANCH  16  24
ATOM     22  C   LIG    1       33.025 -30.804  13.887  0.00  0.00    +0.109 C 
ATOM     23  C   LIG    1       31.789 -30.009  13.576  0.00  0.00    +0.214 C 
ATOM     24  N   LIG    1       30.842 -30.048  14.602  0.00  0.00    -0.286 N 
ATOM     25  H   LIG    1       31.055 -30.622  15.396  0.00  0.00    +0.155 HD
ATOM     26  O   LIG    1       31.725 -29.363  12.528  0.00  0.00    -0.276 OA
ENDBRANCH  16  24
ENDBRANCH   1  18
BRANCH  11  27
ATOM     27  C   LIG    1       23.704 -32.304  14.597  0.00  0.00    +0.095 C 
ATOM     28  C   LIG    1       22.403 -31.919  15.263  0.00  0.00    +0.027 C 
ATOM     29  C   LIG    1       22.414 -32.993  14.221  0.00  0.00    +0.027 C 
ENDBRANCH  11  27
BRANCH   4  30
ATOM     30  N   LIG    1       24.051 -31.989   9.689  0.00  0.00    -0.298 N 
ATOM     31  H   LIG    1       24.444 -32.906   9.957  0.00  0.00    +0.154 HD
BRANCH  30  32
ATOM     32  C   LIG    1       22.644 -32.072   9.929  0.00  0.00    +0.068 A 
ATOM     33  C   LIG    1       21.938 -30.902  10.259  0.00  0.00    +0.145 A 
ATOM     34  F   LIG    1       22.573 -29.721  10.226  0.00  0.00    -0.203 F 
ATOM     35  C   LIG    1       20.590 -30.925  10.606  0.00  0.00    +0.054 A 
ATOM     36  C   LIG    1       19.929 -32.147  10.664  0.00  0.00    +0.016 A 
ATOM     37  I   LIG    1       17.932 -32.220  11.228  0.00  0.00    -0.044 I 
ATOM     38  C   LIG    1       20.602 -33.329  10.356  0.00  0.00    +0.016 A 
ATOM     39  C   LIG    1       21.950 -33.287   9.984  0.00  0.00    +0.027 A 
ENDBRANCH  30  32
ENDBRANCH   4  30
TORSDOF 5
ENDMDL
MODEL 8
REMARK VINA RESULT:      -6.1      3.329      7.795
REMARK  Name = *****
REMARK                            x       y       z     vdW  Elec       q    Type
REMARK                         _______ _______ _______ _____ _____    ______ ____
ROOT
ATOM      1  N   LIG    1       24.815 -31.338  10.243  0.00  0.00    -0.261 N 
ATOM      2  C   LIG    1       24.606 -31.094   8.878  0.00  0.00    +0.075 C 
ATOM      3  C   LIG    1       25.340 -29.993   8.300  0.00  0.00    +0.102 C 
ATOM      4  C   LIG    1       25.415 -29.771   6.963  0.00  0.00    +0.120 C 
ATOM      5  N   LIG    1       24.669 -30.614   6.128  0.00  0.00    -0.299 N 
ATOM      6  C   LIG    1       23.768 -31.551   6.618  0.00  0.00    +0.257 C 
ATOM      7  O   LIG    1       22.946 -32.141   5.910  0.00  0.00    -0.267 OA
ATOM      8  C   LIG    1       24.684 -30.444   4.677  0.00  0.00    +0.153 C 
ATOM      9  C   LIG    1       26.109 -29.128   9.234  0.00  0.00    +0.268 C 
ATOM     10  O   LIG    1       26.199 -27.923   9.053  0.00  0.00    -0.267 OA
ATOM     11  N   LIG    1       26.679 -29.833  10.289  0.00  0.00    -0.257 N 
ATOM     12  C   LIG    1       23.866 -31.887   8.071  0.00  0.00    +0.039 C 
ATOM     13  C   LIG    1       23.244 -33.218   8.395  0.00  0.00    +0.051 C 
ATOM     14  C   LIG    1       25.981 -30.875  10.915  0.00  0.00    +0.337 C 
ATOM     15  O   LIG    1       26.320 -31.286  12.026  0.00  0.00    -0.246 OA
ENDROOT
BRANCH   1  18
ATOM     16  C   LIG    1       21.668 -31.625  12.308  0.00  0.00    +0.035 A 
ATOM     17  C   LIG    1       22.682 -31.079  11.496  0.00  0.00    +0.049 A 
ATOM     18  C   LIG    1       23.778 -31.866  11.095  0.00  0.00    +0.053 A 
ATOM     19  C   LIG    1       23.843 -33.209  11.500  0.00  0.00    +0.026 A 
ATOM     20  C   LIG    1       22.816 -33.759  12.262  0.00  0.00    +0.004 A 
ATOM     21  C   LIG    1       21.743 -32.967  12.661  0.00  0.00    +0.023 A 
BRANCH  16  24
ATOM     22  C   LIG    1       19.462 -29.107  14.059  0.00  0.00    +0.109 C 
ATOM     23  C   LIG    1       20.624 -30.052  13.946  0.00  0.00    +0.214 C 
ATOM     24  N   LIG    1       20.637 -30.761  12.743  0.00  0.00    -0.286 N 
ATOM     25  H   LIG    1       19.870 -30.607  12.116  0.00  0.00    +0.155 HD
ATOM     26  O   LIG    1       21.471 -30.089  14.841  0.00  0.00    -0.276 OA
ENDBRANCH  16  24
ENDBRANCH   1  18
BRANCH  11  27
ATOM     27  C   LIG    1       27.667 -29.134  11.102  0.00  0.00    +0.095 C 
ATOM     28  C   LIG    1       27.325 -27.910  11.921  0.00  0.00    +0.027 C 
ATOM     29  C   LIG    1       27.666 -29.193  12.611  0.00  0.00    +0.027 C 
ENDBRANCH  11  27
BRANCH   4  30
ATOM     30  N   LIG    1       26.173 -28.728   6.421  0.00  0.00    -0.298 N 
ATOM     31  H   LIG    1       26.575 -28.999   5.509  0.00  0.00    +0.154 HD
BRANCH  30  32
ATOM     32  C   LIG    1       25.653 -27.406   6.251  0.00  0.00    +0.068 A 
ATOM     33  C   LIG    1       26.549 -26.337   6.084  0.00  0.00    +0.145 A 
ATOM     34  F   LIG    1       27.861 -26.592   5.970  0.00  0.00    -0.203 F 
ATOM     35  C   LIG    1       26.118 -25.015   6.018  0.00  0.00    +0.054 A 
ATOM     36  C   LIG    1       24.762 -24.739   6.157  0.00  0.00    +0.016 A 
ATOM     37  I   LIG    1       24.093 -22.774   6.113  0.00  0.00    -0.044 I 
ATOM     38  C   LIG    1       23.847 -25.775   6.337  0.00  0.00    +0.016 A 
ATOM     39  C   LIG    1       24.292 -27.101   6.377  0.00  0.00    +0.027 A 
ENDBRANCH  30  32
ENDBRANCH   4  30
TORSDOF 5
ENDMDL
MODEL 9
REMARK VINA RESULT:      -5.9      3.224      6.331
REMARK  Name = *****
REMARK                            x       y       z     vdW  Elec       q    Type
REMARK                         _______ _______ _______ _____ _____    ______ ____
ROOT
ATOM      1  N   LIG    1       25.838 -29.689  13.385  0.00  0.00    -0.261 N 
ATOM      2  C   LIG    1       25.683 -29.886  12.004  0.00  0.00    +0.075 C 
ATOM      3  C   LIG    1       24.851 -30.996  11.601  0.00  0.00    +0.102 C 
ATOM      4  C   LIG    1       24.430 -31.182  10.324  0.00  0.00    +0.120 C 
ATOM      5  N   LIG    1       24.903 -30.288   9.353  0.00  0.00    -0.299 N 
ATOM      6  C   LIG    1       25.876 -29.333   9.622  0.00  0.00    +0.257 C 
ATOM      7  O   LIG    1       26.462 -28.693   8.745  0.00  0.00    -0.267 OA
ATOM      8  C   LIG    1       24.506 -30.416   7.954  0.00  0.00    +0.153 C 
ATOM      9  C   LIG    1       24.383 -31.915  12.672  0.00  0.00    +0.268 C 
ATOM     10  O   LIG    1       24.281 -33.116  12.476  0.00  0.00    -0.267 OA
ATOM     11  N   LIG    1       24.096 -31.263  13.866  0.00  0.00    -0.257 N 
ATOM     12  C   LIG    1       26.159 -29.044  11.060  0.00  0.00    +0.039 C 
ATOM     13  C   LIG    1       26.808 -27.701  11.258  0.00  0.00    +0.051 C 
ATOM     14  C   LIG    1       24.906 -30.214  14.323  0.00  0.00    +0.337 C 
ATOM     15  O   LIG    1       24.865 -29.848  15.500  0.00  0.00    -0.246 OA
ENDROOT
BRANCH   1  18
ATOM     16  C   LIG    1       28.288 -27.352  15.054  0.00  0.00    +0.035 A 
ATOM     17  C   LIG    1       27.098 -27.848  14.485  0.00  0.00    +0.049 A 
ATOM     18  C   LIG    1       27.050 -29.149  13.950  0.00  0.00    +0.053 A 
ATOM     19  C   LIG    1       28.197 -29.956  14.004  0.00  0.00    +0.026 A 
ATOM     20  C   LIG    1       29.357 -29.481  14.610  0.00  0.00    +0.004 A 
ATOM     21  C   LIG    1       29.395 -28.188  15.125  0.00  0.00    +0.023 A 
BRANCH  16  24
ATOM     22  C   LIG    1       27.965 -23.614  15.500  0.00  0.00    +0.109 C 
ATOM     23  C   LIG    1       28.025 -24.890  14.710  0.00  0.00    +0.214 C 
ATOM     24  N   LIG    1       28.293 -26.010  15.500  0.00  0.00    -0.286 N 
ATOM     25  H   LIG    1       28.460 -25.849  16.475  0.00  0.00    +0.155 HD
ATOM     26  O   LIG    1       27.783 -24.872  13.501  0.00  0.00    -0.276 OA
ENDBRANCH  16  24
ENDBRANCH   1  18
BRANCH  11  27
ATOM     27  C   LIG    1       23.380 -32.021  14.885  0.00  0.00    +0.095 C 
ATOM     28  C   LIG    1       22.048 -31.575  15.443  0.00  0.00    +0.027 C 
ATOM     29  C   LIG    1       22.121 -32.799  14.585  0.00  0.00    +0.027 C 
ENDBRANCH  11  27
BRANCH   4  30
ATOM     30  N   LIG    1       23.583 -32.236   9.964  0.00  0.00    -0.298 N 
ATOM     31  H   LIG    1       23.961 -33.140  10.289  0.00  0.00    +0.154 HD
BRANCH  30  32
ATOM     32  C   LIG    1       22.189 -32.247  10.285  0.00  0.00    +0.068 A 
ATOM     33  C   LIG    1       21.507 -31.024  10.401  0.00  0.00    +0.145 A 
ATOM     34  F   LIG    1       22.144 -29.884  10.095  0.00  0.00    -0.203 F 
ATOM     35  C   LIG    1       20.178 -30.955  10.812  0.00  0.00    +0.054 A 
ATOM     36  C   LIG    1       19.515 -32.130  11.152  0.00  0.00    +0.016 A 
ATOM     37  I   LIG    1       17.550 -32.056  11.818  0.00  0.00    -0.044 I 
ATOM     38  C   LIG    1       20.167 -33.359  11.061  0.00  0.00    +0.016 A 
ATOM     39  C   LIG    1       21.494 -33.415  10.623  0.00  0.00    +0.027 A 
ENDBRANCH  30  32
ENDBRANCH   4  30
TORSDOF 5
ENDMDL
