MODEL 1
REMARK VINA RESULT:      -8.4      0.000      0.000
REMARK  Name = *****
REMARK                            x       y       z     vdW  Elec       q    Type
REMARK                         _______ _______ _______ _____ _____    ______ ____
ROOT
ATOM      1  C   LIG    1       24.280 -20.126   4.511  0.00  0.00    -0.008 A 
ATOM      2  S   LIG    1       23.962 -21.783   4.268  0.00  0.00    -0.078 S 
ATOM      3  C   LIG    1       25.132 -22.261   5.418  0.00  0.00    +0.084 A 
ATOM      4  N   LIG    1       25.252 -23.630   5.688  0.00  0.00    -0.267 N 
ATOM      5  C   LIG    1       25.706 -24.050   6.945  0.00  0.00    +0.241 C 
ATOM      6  C   LIG    1       25.876 -22.984   8.023  0.00  0.00    +0.238 C 
ATOM      7  N   LIG    1       27.047 -22.156   7.756  0.00  0.00    -0.273 NA
ATOM      8  C   LIG    1       27.014 -21.310   6.781  0.00  0.00    +0.077 C 
ATOM      9  O   LIG    1       25.874 -25.240   7.228  0.00  0.00    -0.273 OA
ATOM     10  C   LIG    1       24.839 -24.672   4.755  0.00  0.00    +0.139 C 
ATOM     11  C   LIG    1       25.840 -21.179   5.920  0.00  0.00    +0.029 A 
ATOM     12  C   LIG    1       25.287 -19.940   5.435  0.00  0.00    +0.023 A 
ENDROOT
BRANCH   8  13
ATOM     13  C   LIG    1       28.212 -20.432   6.579  0.00  0.00    +0.019 A 
ATOM     14  C   LIG    1       29.420 -20.522   7.289  0.00  0.00    +0.050 A 
ATOM     15 CL   LIG    1       29.698 -21.614   8.601  0.00  0.00    -0.083 Cl
ATOM     16  C   LIG    1       30.468 -19.633   7.004  0.00  0.00    +0.021 A 
ATOM     17  C   LIG    1       30.310 -18.624   6.055  0.00  0.00    +0.002 A 
ATOM     18  C   LIG    1       29.102 -18.496   5.381  0.00  0.00    +0.001 A 
ATOM     19  C   LIG    1       28.065 -19.394   5.637  0.00  0.00    +0.011 A 
ENDBRANCH   8  13
BRANCH   1  21
ATOM     20  C   LIG    1       22.272 -18.638   4.489  0.00  0.00    +0.009 C 
ATOM     21  C   LIG    1       23.518 -19.090   3.740  0.00  0.00    +0.039 C 
ENDBRANCH   1  21
TORSDOF 2
ENDMDL
MODEL 2
REMARK VINA RESULT:      -8.0      2.532      4.165
REMARK  Name = *****
REMARK                            x       y       z     vdW  Elec       q    Type
REMARK                         _______ _______ _______ _____ _____    ______ ____
ROOT
ATOM      1  C   LIG    1       25.318 -23.793   6.569  0.00  0.00    -0.008 A 
ATOM      2  S   LIG    1       23.761 -23.168   6.263  0.00  0.00    -0.078 S 
ATOM      3  C   LIG    1       24.379 -21.689   5.675  0.00  0.00    +0.084 A 
ATOM      4  N   LIG    1       23.460 -20.754   5.182  0.00  0.00    -0.267 N 
ATOM      5  C   LIG    1       23.861 -19.842   4.196  0.00  0.00    +0.241 C 
ATOM      6  C   LIG    1       25.241 -20.037   3.578  0.00  0.00    +0.238 C 
ATOM      7  N   LIG    1       26.291 -19.651   4.516  0.00  0.00    -0.273 NA
ATOM      8  C   LIG    1       26.531 -20.401   5.540  0.00  0.00    +0.077 C 
ATOM      9  O   LIG    1       23.110 -18.967   3.755  0.00  0.00    -0.273 OA
ATOM     10  C   LIG    1       22.055 -20.727   5.573  0.00  0.00    +0.139 C 
ATOM     11  C   LIG    1       25.759 -21.616   5.798  0.00  0.00    +0.029 A 
ATOM     12  C   LIG    1       26.296 -22.872   6.255  0.00  0.00    +0.023 A 
ENDROOT
BRANCH   8  13
ATOM     13  C   LIG    1       27.659 -20.006   6.444  0.00  0.00    +0.019 A 
ATOM     14  C   LIG    1       27.632 -20.043   7.847  0.00  0.00    +0.050 A 
ATOM     15 CL   LIG    1       26.241 -20.467   8.783  0.00  0.00    -0.083 Cl
ATOM     16  C   LIG    1       28.760 -19.642   8.580  0.00  0.00    +0.021 A 
ATOM     17  C   LIG    1       29.896 -19.156   7.933  0.00  0.00    +0.002 A 
ATOM     18  C   LIG    1       29.915 -19.069   6.547  0.00  0.00    +0.001 A 
ATOM     19  C   LIG    1       28.809 -19.494   5.809  0.00  0.00    +0.011 A 
ENDBRANCH   8  13
BRANCH   1  21
ATOM     20  C   LIG    1       26.155 -26.109   6.144  0.00  0.00    +0.009 C 
ATOM     21  C   LIG    1       25.481 -25.171   7.136  0.00  0.00    +0.039 C 
ENDBRANCH   1  21
TORSDOF 2
ENDMDL
MODEL 3
REMARK VINA RESULT:      -7.7      2.913      5.946
REMARK  Name = *****
REMARK                            x       y       z     vdW  Elec       q    Type
REMARK                         _______ _______ _______ _____ _____    ______ ____
ROOT
ATOM      1  C   LIG    1       27.745 -21.424   7.157  0.00  0.00    -0.008 A 
ATOM      2  S   LIG    1       26.887 -20.280   6.228  0.00  0.00    -0.078 S 
ATOM      3  C   LIG    1       25.515 -21.289   6.100  0.00  0.00    +0.084 A 
ATOM      4  N   LIG    1       24.392 -20.773   5.443  0.00  0.00    -0.267 N 
ATOM      5  C   LIG    1       23.115 -21.237   5.784  0.00  0.00    +0.241 C 
ATOM      6  C   LIG    1       23.003 -22.159   6.995  0.00  0.00    +0.238 C 
ATOM      7  N   LIG    1       23.522 -23.488   6.687  0.00  0.00    -0.273 NA
ATOM      8  C   LIG    1       24.795 -23.653   6.550  0.00  0.00    +0.077 C 
ATOM      9  O   LIG    1       22.091 -20.854   5.210  0.00  0.00    -0.273 OA
ATOM     10  C   LIG    1       24.460 -19.694   4.463  0.00  0.00    +0.139 C 
ATOM     11  C   LIG    1       25.731 -22.535   6.671  0.00  0.00    +0.029 A 
ATOM     12  C   LIG    1       27.006 -22.574   7.340  0.00  0.00    +0.023 A 
ENDROOT
BRANCH   8  13
ATOM     13  C   LIG    1       25.295 -25.043   6.299  0.00  0.00    +0.019 A 
ATOM     14  C   LIG    1       25.422 -25.650   5.039  0.00  0.00    +0.050 A 
ATOM     15 CL   LIG    1       24.927 -24.919   3.553  0.00  0.00    -0.083 Cl
ATOM     16  C   LIG    1       25.903 -26.965   4.941  0.00  0.00    +0.021 A 
ATOM     17  C   LIG    1       26.211 -27.701   6.085  0.00  0.00    +0.002 A 
ATOM     18  C   LIG    1       26.043 -27.126   7.339  0.00  0.00    +0.001 A 
ATOM     19  C   LIG    1       25.594 -25.809   7.444  0.00  0.00    +0.011 A 
ENDBRANCH   8  13
BRANCH   1  21
ATOM     20  C   LIG    1       29.692 -19.867   6.972  0.00  0.00    +0.009 C 
ATOM     21  C   LIG    1       29.134 -21.121   7.633  0.00  0.00    +0.039 C 
ENDBRANCH   1  21
TORSDOF 2
ENDMDL
MODEL 4
REMARK VINA RESULT:      -7.5      3.086      6.002
REMARK  Name = *****
REMARK                            x       y       z     vdW  Elec       q    Type
REMARK                         _______ _______ _______ _____ _____    ______ ____
ROOT
ATOM      1  C   LIG    1       28.146 -20.824   6.981  0.00  0.00    -0.008 A 
ATOM      2  S   LIG    1       27.834 -19.713   5.726  0.00  0.00    -0.078 S 
ATOM      3  C   LIG    1       26.250 -20.304   5.484  0.00  0.00    +0.084 A 
ATOM      4  N   LIG    1       25.453 -19.649   4.537  0.00  0.00    -0.267 N 
ATOM      5  C   LIG    1       24.059 -19.655   4.681  0.00  0.00    +0.241 C 
ATOM      6  C   LIG    1       23.490 -20.228   5.974  0.00  0.00    +0.238 C 
ATOM      7  N   LIG    1       23.607 -21.683   5.996  0.00  0.00    -0.273 NA
ATOM      8  C   LIG    1       24.770 -22.221   6.150  0.00  0.00    +0.077 C 
ATOM      9  O   LIG    1       23.303 -19.134   3.856  0.00  0.00    -0.273 OA
ATOM     10  C   LIG    1       25.997 -18.866   3.433  0.00  0.00    +0.139 C 
ATOM     11  C   LIG    1       25.980 -21.408   6.278  0.00  0.00    +0.029 A 
ATOM     12  C   LIG    1       27.066 -21.656   7.191  0.00  0.00    +0.023 A 
ENDROOT
BRANCH   8  13
ATOM     13  C   LIG    1       24.842 -23.716   6.231  0.00  0.00    +0.019 A 
ATOM     14  C   LIG    1       23.754 -24.575   6.450  0.00  0.00    +0.050 A 
ATOM     15 CL   LIG    1       22.140 -24.040   6.762  0.00  0.00    -0.083 Cl
ATOM     16  C   LIG    1       23.958 -25.962   6.508  0.00  0.00    +0.021 A 
ATOM     17  C   LIG    1       25.240 -26.501   6.400  0.00  0.00    +0.002 A 
ATOM     18  C   LIG    1       26.330 -25.657   6.232  0.00  0.00    +0.001 A 
ATOM     19  C   LIG    1       26.132 -24.278   6.143  0.00  0.00    +0.011 A 
ENDBRANCH   8  13
BRANCH   1  21
ATOM     20  C   LIG    1       30.368 -19.696   7.178  0.00  0.00    +0.009 C 
ATOM     21  C   LIG    1       29.474 -20.824   7.676  0.00  0.00    +0.039 C 
ENDBRANCH   1  21
TORSDOF 2
ENDMDL
MODEL 5
REMARK VINA RESULT:      -7.3      7.431     10.295
REMARK  Name = *****
REMARK                            x       y       z     vdW  Elec       q    Type
REMARK                         _______ _______ _______ _____ _____    ______ ____
ROOT
ATOM      1  C   LIG    1       26.234 -32.625   5.148  0.00  0.00    -0.008 A 
ATOM      2  S   LIG    1       26.511 -33.551   6.553  0.00  0.00    -0.078 S 
ATOM      3  C   LIG    1       25.610 -32.483   7.535  0.00  0.00    +0.084 A 
ATOM      4  N   LIG    1       25.441 -32.829   8.881  0.00  0.00    -0.267 N 
ATOM      5  C   LIG    1       24.307 -32.385   9.574  0.00  0.00    +0.241 C 
ATOM      6  C   LIG    1       23.217 -31.691   8.764  0.00  0.00    +0.238 C 
ATOM      7  N   LIG    1       23.635 -30.349   8.370  0.00  0.00    -0.273 NA
ATOM      8  C   LIG    1       24.541 -30.212   7.461  0.00  0.00    +0.077 C 
ATOM      9  O   LIG    1       24.124 -32.620  10.772  0.00  0.00    -0.273 OA
ATOM     10  C   LIG    1       26.346 -33.718   9.601  0.00  0.00    +0.139 C 
ATOM     11  C   LIG    1       25.178 -31.368   6.832  0.00  0.00    +0.029 A 
ATOM     12  C   LIG    1       25.490 -31.499   5.431  0.00  0.00    +0.023 A 
ENDROOT
BRANCH   8  13
ATOM     13  C   LIG    1       24.897 -28.819   7.037  0.00  0.00    +0.019 A 
ATOM     14  C   LIG    1       25.826 -27.984   7.676  0.00  0.00    +0.050 A 
ATOM     15 CL   LIG    1       26.657 -28.391   9.137  0.00  0.00    -0.083 Cl
ATOM     16  C   LIG    1       26.067 -26.693   7.178  0.00  0.00    +0.021 A 
ATOM     17  C   LIG    1       25.358 -26.208   6.080  0.00  0.00    +0.002 A 
ATOM     18  C   LIG    1       24.401 -27.009   5.469  0.00  0.00    +0.001 A 
ATOM     19  C   LIG    1       24.177 -28.304   5.940  0.00  0.00    +0.011 A 
ENDBRANCH   8  13
BRANCH   1  21
ATOM     20  C   LIG    1       25.843 -32.776   2.684  0.00  0.00    +0.009 C 
ATOM     21  C   LIG    1       26.803 -33.062   3.832  0.00  0.00    +0.039 C 
ENDBRANCH   1  21
TORSDOF 2
ENDMDL
MODEL 6
REMARK VINA RESULT:      -7.0      7.050      9.386
REMARK  Name = *****
REMARK                            x       y       z     vdW  Elec       q    Type
REMARK                         _______ _______ _______ _____ _____    ______ ____
ROOT
ATOM      1  C   LIG    1       24.674 -27.873   5.965  0.00  0.00    -0.008 A 
ATOM      2  S   LIG    1       25.171 -29.200   5.015  0.00  0.00    -0.078 S 
ATOM      3  C   LIG    1       25.073 -30.284   6.332  0.00  0.00    +0.084 A 
ATOM      4  N   LIG    1       25.331 -31.637   6.075  0.00  0.00    -0.267 N 
ATOM      5  C   LIG    1       24.733 -32.620   6.875  0.00  0.00    +0.241 C 
ATOM      6  C   LIG    1       23.680 -32.163   7.879  0.00  0.00    +0.238 C 
ATOM      7  N   LIG    1       24.299 -31.469   9.005  0.00  0.00    -0.273 NA
ATOM      8  C   LIG    1       24.789 -30.289   8.826  0.00  0.00    +0.077 C 
ATOM      9  O   LIG    1       24.956 -33.825   6.727  0.00  0.00    -0.273 OA
ATOM     10  C   LIG    1       26.130 -32.102   4.947  0.00  0.00    +0.139 C 
ATOM     11  C   LIG    1       24.763 -29.636   7.518  0.00  0.00    +0.029 A 
ATOM     12  C   LIG    1       24.467 -28.247   7.276  0.00  0.00    +0.023 A 
ENDROOT
BRANCH   8  13
ATOM     13  C   LIG    1       25.359 -29.583  10.020  0.00  0.00    +0.019 A 
ATOM     14  C   LIG    1       24.667 -29.303  11.209  0.00  0.00    +0.050 A 
ATOM     15 CL   LIG    1       22.992 -29.645  11.465  0.00  0.00    -0.083 Cl
ATOM     16  C   LIG    1       25.318 -28.630  12.255  0.00  0.00    +0.021 A 
ATOM     17  C   LIG    1       26.633 -28.189  12.112  0.00  0.00    +0.002 A 
ATOM     18  C   LIG    1       27.311 -28.418  10.921  0.00  0.00    +0.001 A 
ATOM     19  C   LIG    1       26.681 -29.113   9.887  0.00  0.00    +0.011 A 
ENDBRANCH   8  13
BRANCH   1  21
ATOM     20  C   LIG    1       24.081 -25.479   6.369  0.00  0.00    +0.009 C 
ATOM     21  C   LIG    1       24.543 -26.512   5.350  0.00  0.00    +0.039 C 
ENDBRANCH   1  21
TORSDOF 2
ENDMDL
MODEL 7
REMARK VINA RESULT:      -6.9      6.233      9.008
REMARK  Name = *****
REMARK                            x       y       z     vdW  Elec       q    Type
REMARK                         _______ _______ _______ _____ _____    ______ ____
ROOT
ATOM      1  C   LIG    1       26.359 -28.836  10.091  0.00  0.00    -0.008 A 
ATOM      2  S   LIG    1       25.254 -30.117  10.307  0.00  0.00    -0.078 S 
ATOM      3  C   LIG    1       24.860 -30.168   8.646  0.00  0.00    +0.084 A 
ATOM      4  N   LIG    1       23.974 -31.166   8.222  0.00  0.00    -0.267 N 
ATOM      5  C   LIG    1       24.050 -31.648   6.908  0.00  0.00    +0.241 C 
ATOM      6  C   LIG    1       25.225 -31.180   6.056  0.00  0.00    +0.238 C 
ATOM      7  N   LIG    1       25.054 -29.788   5.652  0.00  0.00    -0.273 NA
ATOM      8  C   LIG    1       25.188 -28.853   6.532  0.00  0.00    +0.077 C 
ATOM      9  O   LIG    1       23.269 -32.494   6.463  0.00  0.00    -0.273 OA
ATOM     10  C   LIG    1       23.013 -31.816   9.107  0.00  0.00    +0.139 C 
ATOM     11  C   LIG    1       25.482 -29.155   7.932  0.00  0.00    +0.029 A 
ATOM     12  C   LIG    1       26.403 -28.433   8.773  0.00  0.00    +0.023 A 
ENDROOT
BRANCH   8  13
ATOM     13  C   LIG    1       25.068 -27.434   6.065  0.00  0.00    +0.019 A 
ATOM     14  C   LIG    1       25.931 -26.798   5.158  0.00  0.00    +0.050 A 
ATOM     15 CL   LIG    1       27.351 -27.524   4.492  0.00  0.00    -0.083 Cl
ATOM     16  C   LIG    1       25.709 -25.457   4.805  0.00  0.00    +0.021 A 
ATOM     17  C   LIG    1       24.669 -24.729   5.381  0.00  0.00    +0.002 A 
ATOM     18  C   LIG    1       23.839 -25.335   6.316  0.00  0.00    +0.001 A 
ATOM     19  C   LIG    1       24.034 -26.676   6.651  0.00  0.00    +0.011 A 
ENDBRANCH   8  13
BRANCH   1  21
ATOM     20  C   LIG    1       28.214 -29.224  11.720  0.00  0.00    +0.009 C 
ATOM     21  C   LIG    1       27.109 -28.280  11.263  0.00  0.00    +0.039 C 
ENDBRANCH   1  21
TORSDOF 2
ENDMDL
MODEL 8
REMARK VINA RESULT:      -6.9      7.386     10.004
REMARK  Name = *****
REMARK                            x       y       z     vdW  Elec       q    Type
REMARK                         _______ _______ _______ _____ _____    ______ ____
ROOT
ATOM      1  C   LIG    1       27.144 -29.552  10.962  0.00  0.00    -0.008 A 
ATOM      2  S   LIG    1       25.764 -29.602  11.962  0.00  0.00    -0.078 S 
ATOM      3  C   LIG    1       24.707 -29.796  10.634  0.00  0.00    +0.084 A 
ATOM      4  N   LIG    1       23.346 -29.972  10.912  0.00  0.00    -0.267 N 
ATOM      5  C   LIG    1       22.543 -30.691  10.016  0.00  0.00    +0.241 C 
ATOM      6  C   LIG    1       23.243 -31.404   8.864  0.00  0.00    +0.238 C 
ATOM      7  N   LIG    1       23.698 -30.449   7.859  0.00  0.00    -0.273 NA
ATOM      8  C   LIG    1       24.700 -29.680   8.126  0.00  0.00    +0.077 C 
ATOM      9  O   LIG    1       21.329 -30.841  10.183  0.00  0.00    -0.273 OA
ATOM     10  C   LIG    1       22.713 -29.520  12.146  0.00  0.00    +0.139 C 
ATOM     11  C   LIG    1       25.376 -29.724   9.422  0.00  0.00    +0.029 A 
ATOM     12  C   LIG    1       26.800 -29.651   9.630  0.00  0.00    +0.023 A 
ENDROOT
BRANCH   8  13
ATOM     13  C   LIG    1       25.178 -28.758   7.046  0.00  0.00    +0.019 A 
ATOM     14  C   LIG    1       25.436 -29.123   5.715  0.00  0.00    +0.050 A 
ATOM     15 CL   LIG    1       25.334 -30.741   5.113  0.00  0.00    -0.083 Cl
ATOM     16  C   LIG    1       25.885 -28.160   4.798  0.00  0.00    +0.021 A 
ATOM     17  C   LIG    1       26.128 -26.847   5.203  0.00  0.00    +0.002 A 
ATOM     18  C   LIG    1       25.923 -26.487   6.529  0.00  0.00    +0.001 A 
ATOM     19  C   LIG    1       25.448 -27.431   7.440  0.00  0.00    +0.011 A 
ENDBRANCH   8  13
BRANCH   1  21
ATOM     20  C   LIG    1       28.460 -29.464  13.085  0.00  0.00    +0.009 C 
ATOM     21  C   LIG    1       28.507 -29.389  11.565  0.00  0.00    +0.039 C 
ENDBRANCH   1  21
TORSDOF 2
ENDMDL
MODEL 9
REMARK VINA RESULT:      -6.9      9.004     11.078
REMARK  Name = *****
REMARK                            x       y       z     vdW  Elec       q    Type
REMARK                         _______ _______ _______ _____ _____    ______ ____
ROOT
ATOM      1  C   LIG    1       24.846 -29.842   8.913  0.00  0.00    -0.008 A 
ATOM      2  S   LIG    1       26.488 -29.805   9.374  0.00  0.00    -0.078 S 
ATOM      3  C   LIG    1       26.107 -29.825  11.039  0.00  0.00    +0.084 A 
ATOM      4  N   LIG    1       27.173 -29.879  11.945  0.00  0.00    -0.267 N 
ATOM      5  C   LIG    1       26.984 -30.468  13.202  0.00  0.00    +0.241 C 
ATOM      6  C   LIG    1       25.662 -31.188  13.449  0.00  0.00    +0.238 C 
ATOM      7  N   LIG    1       24.571 -30.232  13.612  0.00  0.00    -0.273 NA
ATOM      8  C   LIG    1       24.142 -29.581  12.583  0.00  0.00    +0.077 C 
ATOM      9  O   LIG    1       27.872 -30.505  14.060  0.00  0.00    -0.273 OA
ATOM     10  C   LIG    1       28.523 -29.430  11.624  0.00  0.00    +0.139 C 
ATOM     11  C   LIG    1       24.739 -29.758  11.260  0.00  0.00    +0.029 A 
ATOM     12  C   LIG    1       24.018 -29.838  10.016  0.00  0.00    +0.023 A 
ENDROOT
BRANCH   8  13
ATOM     13  C   LIG    1       22.978 -28.657  12.779  0.00  0.00    +0.019 A 
ATOM     14  C   LIG    1       21.631 -28.983  12.557  0.00  0.00    +0.050 A 
ATOM     15 CL   LIG    1       21.088 -30.496  11.921  0.00  0.00    -0.083 Cl
ATOM     16  C   LIG    1       20.633 -28.021  12.776  0.00  0.00    +0.021 A 
ATOM     17  C   LIG    1       20.964 -26.723  13.165  0.00  0.00    +0.002 A 
ATOM     18  C   LIG    1       22.298 -26.377  13.340  0.00  0.00    +0.001 A 
ATOM     19  C   LIG    1       23.295 -27.336  13.154  0.00  0.00    +0.011 A 
ENDBRANCH   8  13
BRANCH   1  21
ATOM     20  C   LIG    1       24.721 -28.490   6.815  0.00  0.00    +0.009 C 
ATOM     21  C   LIG    1       24.470 -29.845   7.462  0.00  0.00    +0.039 C 
ENDBRANCH   1  21
TORSDOF 2
ENDMDL
