MODEL 1
REMARK VINA RESULT:      -7.9      0.000      0.000
REMARK  Name = *****
REMARK                            x       y       z     vdW  Elec       q    Type
REMARK                         _______ _______ _______ _____ _____    ______ ____
ROOT
ATOM      1  C   LIG    1       29.631 -19.147   7.118  0.00  0.00    +0.236 C 
ATOM      2  N   LIG    1       28.586 -20.034   6.956  0.00  0.00    -0.310 N 
ATOM      3  H   LIG    1       28.591 -20.878   7.530  0.00  0.00    +0.149 HD
ATOM      4  O   LIG    1       29.964 -18.362   6.226  0.00  0.00    -0.274 OA
ENDROOT
BRANCH   1   5
ATOM      5  C   LIG    1       30.427 -19.286   8.441  0.00  0.00    +0.185 C 
BRANCH   5   6
ATOM      6  N   LIG    1       30.615 -17.967   9.066  0.00  0.00    -0.302 N 
ATOM      7  H   LIG    1       30.767 -17.174   8.460  0.00  0.00    +0.149 HD
ATOM      8  C   LIG    1       30.722 -17.823  10.429  0.00  0.00    +0.211 C 
ATOM      9  O   LIG    1       30.638 -18.762  11.207  0.00  0.00    -0.276 OA
ATOM     10  C   LIG    1       30.878 -16.401  10.897  0.00  0.00    +0.109 C 
ENDBRANCH   5   6
BRANCH   5  11
ATOM     11  C   LIG    1       31.774 -19.994   8.169  0.00  0.00    +0.191 C 
BRANCH  11  13
ATOM     12  C   LIG    1       31.099 -21.991   9.258  0.00  0.00    +0.194 C 
ATOM     13  O   LIG    1       32.073 -20.949   9.201  0.00  0.00    -0.381 OA
ENDBRANCH  11  13
ENDBRANCH   5  11
ENDBRANCH   1   5
BRANCH   2  14
ATOM     14  C   LIG    1       27.766 -20.024   5.770  0.00  0.00    +0.139 C 
BRANCH  14  15
ATOM     15  C   LIG    1       26.325 -20.358   6.066  0.00  0.00    -0.030 A 
ATOM     16  C   LIG    1       25.377 -20.361   5.032  0.00  0.00    +0.005 A 
ATOM     17  C   LIG    1       24.029 -20.612   5.301  0.00  0.00    +0.000 A 
ATOM     18  C   LIG    1       23.613 -20.865   6.606  0.00  0.00    +0.000 A 
ATOM     19  C   LIG    1       24.544 -20.876   7.642  0.00  0.00    +0.000 A 
ATOM     20  C   LIG    1       25.893 -20.622   7.375  0.00  0.00    +0.005 A 
ENDBRANCH  14  15
ENDBRANCH   2  14
TORSDOF 6
ENDMDL
MODEL 2
REMARK VINA RESULT:      -7.6      1.219      2.604
REMARK  Name = *****
REMARK                            x       y       z     vdW  Elec       q    Type
REMARK                         _______ _______ _______ _____ _____    ______ ____
ROOT
ATOM      1  C   LIG    1       29.549 -20.782   8.199  0.00  0.00    +0.236 C 
ATOM      2  N   LIG    1       28.284 -20.546   7.699  0.00  0.00    -0.310 N 
ATOM      3  H   LIG    1       28.018 -19.575   7.530  0.00  0.00    +0.149 HD
ATOM      4  O   LIG    1       29.819 -21.806   8.832  0.00  0.00    -0.274 OA
ENDROOT
BRANCH   1   5
ATOM      5  C   LIG    1       30.567 -19.629   8.012  0.00  0.00    +0.185 C 
BRANCH   5   6
ATOM      6  N   LIG    1       30.215 -18.490   8.875  0.00  0.00    -0.302 N 
ATOM      7  H   LIG    1       29.333 -18.028   8.711  0.00  0.00    +0.149 HD
ATOM      8  C   LIG    1       31.105 -17.973   9.788  0.00  0.00    +0.211 C 
ATOM      9  O   LIG    1       32.222 -18.437   9.965  0.00  0.00    -0.276 OA
ATOM     10  C   LIG    1       30.567 -16.832  10.608  0.00  0.00    +0.109 C 
ENDBRANCH   5   6
BRANCH   5  11
ATOM     11  C   LIG    1       30.634 -19.226   6.522  0.00  0.00    +0.191 C 
BRANCH  11  13
ATOM     12  C   LIG    1       28.939 -18.284   5.155  0.00  0.00    +0.194 C 
ATOM     13  O   LIG    1       29.816 -18.072   6.261  0.00  0.00    -0.381 OA
ENDBRANCH  11  13
ENDBRANCH   5  11
ENDBRANCH   1   5
BRANCH   2  14
ATOM     14  C   LIG    1       27.234 -21.529   7.810  0.00  0.00    +0.139 C 
BRANCH  14  15
ATOM     15  C   LIG    1       25.968 -21.096   7.115  0.00  0.00    -0.030 A 
ATOM     16  C   LIG    1       24.737 -21.175   7.783  0.00  0.00    +0.005 A 
ATOM     17  C   LIG    1       23.549 -20.832   7.132  0.00  0.00    +0.000 A 
ATOM     18  C   LIG    1       23.577 -20.404   5.807  0.00  0.00    +0.000 A 
ATOM     19  C   LIG    1       24.793 -20.310   5.133  0.00  0.00    +0.000 A 
ATOM     20  C   LIG    1       25.982 -20.656   5.782  0.00  0.00    +0.005 A 
ENDBRANCH  14  15
ENDBRANCH   2  14
TORSDOF 6
ENDMDL
MODEL 3
REMARK VINA RESULT:      -7.6      1.312      2.546
REMARK  Name = *****
REMARK                            x       y       z     vdW  Elec       q    Type
REMARK                         _______ _______ _______ _____ _____    ______ ____
ROOT
ATOM      1  C   LIG    1       29.543 -19.028   6.336  0.00  0.00    +0.236 C 
ATOM      2  N   LIG    1       28.535 -19.969   6.296  0.00  0.00    -0.310 N 
ATOM      3  H   LIG    1       28.709 -20.865   6.753  0.00  0.00    +0.149 HD
ATOM      4  O   LIG    1       29.632 -18.131   5.492  0.00  0.00    -0.274 OA
ENDROOT
BRANCH   1   5
ATOM      5  C   LIG    1       30.615 -19.241   7.435  0.00  0.00    +0.185 C 
BRANCH   5   6
ATOM      6  N   LIG    1       30.389 -20.518   8.130  0.00  0.00    -0.302 N 
ATOM      7  H   LIG    1       29.501 -20.980   7.993  0.00  0.00    +0.149 HD
ATOM      8  C   LIG    1       31.289 -21.012   9.045  0.00  0.00    +0.211 C 
ATOM      9  O   LIG    1       32.338 -20.448   9.317  0.00  0.00    -0.276 OA
ATOM     10  C   LIG    1       30.914 -22.345   9.635  0.00  0.00    +0.109 C 
ENDBRANCH   5   6
BRANCH   5  11
ATOM     11  C   LIG    1       30.609 -18.043   8.411  0.00  0.00    +0.191 C 
BRANCH  11  13
ATOM     12  C   LIG    1       32.293 -16.889   9.620  0.00  0.00    +0.194 C 
ATOM     13  O   LIG    1       31.840 -17.306   8.331  0.00  0.00    -0.381 OA
ENDBRANCH  11  13
ENDBRANCH   5  11
ENDBRANCH   1   5
BRANCH   2  14
ATOM     14  C   LIG    1       27.476 -19.899   5.319  0.00  0.00    +0.139 C 
BRANCH  14  15
ATOM     15  C   LIG    1       26.139 -20.296   5.893  0.00  0.00    -0.030 A 
ATOM     16  C   LIG    1       25.010 -20.363   5.065  0.00  0.00    +0.005 A 
ATOM     17  C   LIG    1       23.754 -20.674   5.593  0.00  0.00    +0.000 A 
ATOM     18  C   LIG    1       23.613 -20.924   6.956  0.00  0.00    +0.000 A 
ATOM     19  C   LIG    1       24.727 -20.872   7.791  0.00  0.00    +0.000 A 
ATOM     20  C   LIG    1       25.983 -20.558   7.263  0.00  0.00    +0.005 A 
ENDBRANCH  14  15
ENDBRANCH   2  14
TORSDOF 6
ENDMDL
MODEL 4
REMARK VINA RESULT:      -7.5      1.865      3.264
REMARK  Name = *****
REMARK                            x       y       z     vdW  Elec       q    Type
REMARK                         _______ _______ _______ _____ _____    ______ ____
ROOT
ATOM      1  C   LIG    1       27.381 -20.749   7.737  0.00  0.00    +0.236 C 
ATOM      2  N   LIG    1       26.785 -21.370   6.657  0.00  0.00    -0.310 N 
ATOM      3  H   LIG    1       27.281 -21.342   5.766  0.00  0.00    +0.149 HD
ATOM      4  O   LIG    1       26.724 -20.344   8.700  0.00  0.00    -0.274 OA
ENDROOT
BRANCH   1   5
ATOM      5  C   LIG    1       28.903 -20.491   7.604  0.00  0.00    +0.185 C 
BRANCH   5   6
ATOM      6  N   LIG    1       29.297 -19.322   8.406  0.00  0.00    -0.302 N 
ATOM      7  H   LIG    1       28.606 -18.604   8.565  0.00  0.00    +0.149 HD
ATOM      8  C   LIG    1       30.596 -19.133   8.817  0.00  0.00    +0.211 C 
ATOM      9  O   LIG    1       31.493 -19.927   8.575  0.00  0.00    -0.276 OA
ATOM     10  C   LIG    1       30.813 -17.903   9.657  0.00  0.00    +0.109 C 
ENDBRANCH   5   6
BRANCH   5  11
ATOM     11  C   LIG    1       29.276 -20.321   6.113  0.00  0.00    +0.191 C 
BRANCH  11  13
ATOM     12  C   LIG    1       29.174 -18.129   5.211  0.00  0.00    +0.194 C 
ATOM     13  O   LIG    1       28.449 -19.329   5.484  0.00  0.00    -0.381 OA
ENDBRANCH  11  13
ENDBRANCH   5  11
ENDBRANCH   1   5
BRANCH   2  14
ATOM     14  C   LIG    1       25.374 -21.664   6.642  0.00  0.00    +0.139 C 
BRANCH  14  15
ATOM     15  C   LIG    1       24.601 -20.718   5.756  0.00  0.00    -0.030 A 
ATOM     16  C   LIG    1       23.276 -20.383   6.072  0.00  0.00    +0.005 A 
ATOM     17  C   LIG    1       22.530 -19.554   5.230  0.00  0.00    +0.000 A 
ATOM     18  C   LIG    1       23.100 -19.048   4.064  0.00  0.00    +0.000 A 
ATOM     19  C   LIG    1       24.418 -19.364   3.741  0.00  0.00    +0.000 A 
ATOM     20  C   LIG    1       25.165 -20.195   4.582  0.00  0.00    +0.005 A 
ENDBRANCH  14  15
ENDBRANCH   2  14
TORSDOF 6
ENDMDL
MODEL 5
REMARK VINA RESULT:      -7.5      3.908      7.430
REMARK  Name = *****
REMARK                            x       y       z     vdW  Elec       q    Type
REMARK                         _______ _______ _______ _____ _____    ______ ____
ROOT
ATOM      1  C   LIG    1       25.162 -22.036   6.889  0.00  0.00    +0.236 C 
ATOM      2  N   LIG    1       26.534 -22.162   6.807  0.00  0.00    -0.310 N 
ATOM      3  H   LIG    1       26.905 -22.851   6.151  0.00  0.00    +0.149 HD
ATOM      4  O   LIG    1       24.608 -21.592   7.898  0.00  0.00    -0.274 OA
ENDROOT
BRANCH   1   5
ATOM      5  C   LIG    1       24.365 -22.595   5.683  0.00  0.00    +0.185 C 
BRANCH   5   6
ATOM      6  N   LIG    1       25.009 -23.813   5.164  0.00  0.00    -0.302 N 
ATOM      7  H   LIG    1       25.695 -23.708   4.431  0.00  0.00    +0.149 HD
ATOM      8  C   LIG    1       24.603 -25.067   5.555  0.00  0.00    +0.211 C 
ATOM      9  O   LIG    1       23.715 -25.254   6.373  0.00  0.00    -0.276 OA
ATOM     10  C   LIG    1       25.393 -26.197   4.950  0.00  0.00    +0.109 C 
ENDBRANCH   5   6
BRANCH   5  11
ATOM     11  C   LIG    1       24.229 -21.505   4.596  0.00  0.00    +0.191 C 
BRANCH  11  13
ATOM     12  C   LIG    1       25.134 -19.478   3.760  0.00  0.00    +0.194 C 
ATOM     13  O   LIG    1       25.154 -20.429   4.824  0.00  0.00    -0.381 OA
ENDBRANCH  11  13
ENDBRANCH   5  11
ENDBRANCH   1   5
BRANCH   2  14
ATOM     14  C   LIG    1       27.399 -21.693   7.861  0.00  0.00    +0.139 C 
BRANCH  14  15
ATOM     15  C   LIG    1       28.479 -20.773   7.350  0.00  0.00    -0.030 A 
ATOM     16  C   LIG    1       29.747 -20.776   7.949  0.00  0.00    +0.005 A 
ATOM     17  C   LIG    1       30.739 -19.889   7.523  0.00  0.00    +0.000 A 
ATOM     18  C   LIG    1       30.477 -18.989   6.493  0.00  0.00    +0.000 A 
ATOM     19  C   LIG    1       29.225 -18.980   5.881  0.00  0.00    +0.000 A 
ATOM     20  C   LIG    1       28.231 -19.866   6.308  0.00  0.00    +0.005 A 
ENDBRANCH  14  15
ENDBRANCH   2  14
TORSDOF 6
ENDMDL
MODEL 6
REMARK VINA RESULT:      -7.4      3.681      7.334
REMARK  Name = *****
REMARK                            x       y       z     vdW  Elec       q    Type
REMARK                         _______ _______ _______ _____ _____    ______ ____
ROOT
ATOM      1  C   LIG    1       25.539 -20.444   4.847  0.00  0.00    +0.236 C 
ATOM      2  N   LIG    1       26.643 -20.493   5.675  0.00  0.00    -0.310 N 
ATOM      3  H   LIG    1       26.501 -20.829   6.628  0.00  0.00    +0.149 HD
ATOM      4  O   LIG    1       25.486 -19.683   3.876  0.00  0.00    -0.274 OA
ENDROOT
BRANCH   1   5
ATOM      5  C   LIG    1       24.336 -21.317   5.283  0.00  0.00    +0.185 C 
BRANCH   5   6
ATOM      6  N   LIG    1       24.552 -22.719   4.892  0.00  0.00    -0.302 N 
ATOM      7  H   LIG    1       24.200 -23.019   3.995  0.00  0.00    +0.149 HD
ATOM      8  C   LIG    1       25.089 -23.638   5.763  0.00  0.00    +0.211 C 
ATOM      9  O   LIG    1       25.450 -23.350   6.895  0.00  0.00    -0.276 OA
ATOM     10  C   LIG    1       25.270 -25.016   5.186  0.00  0.00    +0.109 C 
ENDBRANCH   5   6
BRANCH   5  11
ATOM     11  C   LIG    1       23.031 -20.745   4.686  0.00  0.00    +0.191 C 
BRANCH  11  13
ATOM     12  C   LIG    1       22.217 -18.518   4.591  0.00  0.00    +0.194 C 
ATOM     13  O   LIG    1       22.572 -19.610   5.440  0.00  0.00    -0.381 OA
ENDBRANCH  11  13
ENDBRANCH   5  11
ENDBRANCH   1   5
BRANCH   2  14
ATOM     14  C   LIG    1       27.830 -19.724   5.395  0.00  0.00    +0.139 C 
BRANCH  14  15
ATOM     15  C   LIG    1       28.910 -19.942   6.424  0.00  0.00    -0.030 A 
ATOM     16  C   LIG    1       30.013 -19.077   6.481  0.00  0.00    +0.005 A 
ATOM     17  C   LIG    1       31.049 -19.300   7.391  0.00  0.00    +0.000 A 
ATOM     18  C   LIG    1       30.995 -20.389   8.258  0.00  0.00    +0.000 A 
ATOM     19  C   LIG    1       29.901 -21.252   8.221  0.00  0.00    +0.000 A 
ATOM     20  C   LIG    1       28.865 -21.031   7.309  0.00  0.00    +0.005 A 
ENDBRANCH  14  15
ENDBRANCH   2  14
TORSDOF 6
ENDMDL
MODEL 7
REMARK VINA RESULT:      -7.3      3.727      7.130
REMARK  Name = *****
REMARK                            x       y       z     vdW  Elec       q    Type
REMARK                         _______ _______ _______ _____ _____    ______ ____
ROOT
ATOM      1  C   LIG    1       25.025 -21.422   7.000  0.00  0.00    +0.236 C 
ATOM      2  N   LIG    1       26.245 -21.992   6.695  0.00  0.00    -0.310 N 
ATOM      3  H   LIG    1       26.249 -22.770   6.035  0.00  0.00    +0.149 HD
ATOM      4  O   LIG    1       24.837 -20.811   8.056  0.00  0.00    -0.274 OA
ENDROOT
BRANCH   1   5
ATOM      5  C   LIG    1       23.885 -21.701   5.988  0.00  0.00    +0.185 C 
BRANCH   5   6
ATOM      6  N   LIG    1       23.072 -20.491   5.787  0.00  0.00    -0.302 N 
ATOM      7  H   LIG    1       22.361 -20.281   6.471  0.00  0.00    +0.149 HD
ATOM      8  C   LIG    1       23.170 -19.738   4.640  0.00  0.00    +0.211 C 
ATOM      9  O   LIG    1       23.950 -19.999   3.737  0.00  0.00    -0.276 OA
ATOM     10  C   LIG    1       22.289 -18.518   4.617  0.00  0.00    +0.109 C 
ENDBRANCH   5   6
BRANCH   5  11
ATOM     11  C   LIG    1       23.034 -22.895   6.476  0.00  0.00    +0.191 C 
BRANCH  11  13
ATOM     12  C   LIG    1       23.964 -25.064   6.227  0.00  0.00    +0.194 C 
ATOM     13  O   LIG    1       23.861 -23.913   7.065  0.00  0.00    -0.381 OA
ENDBRANCH  11  13
ENDBRANCH   5  11
ENDBRANCH   1   5
BRANCH   2  14
ATOM     14  C   LIG    1       27.392 -21.822   7.553  0.00  0.00    +0.139 C 
BRANCH  14  15
ATOM     15  C   LIG    1       28.345 -20.775   7.035  0.00  0.00    -0.030 A 
ATOM     16  C   LIG    1       29.588 -20.584   7.657  0.00  0.00    +0.005 A 
ATOM     17  C   LIG    1       30.457 -19.580   7.224  0.00  0.00    +0.000 A 
ATOM     18  C   LIG    1       30.096 -18.755   6.162  0.00  0.00    +0.000 A 
ATOM     19  C   LIG    1       28.870 -18.938   5.526  0.00  0.00    +0.000 A 
ATOM     20  C   LIG    1       27.998 -19.941   5.960  0.00  0.00    +0.005 A 
ENDBRANCH  14  15
ENDBRANCH   2  14
TORSDOF 6
ENDMDL
MODEL 8
REMARK VINA RESULT:      -7.2      3.960      5.821
REMARK  Name = *****
REMARK                            x       y       z     vdW  Elec       q    Type
REMARK                         _______ _______ _______ _____ _____    ______ ____
ROOT
ATOM      1  C   LIG    1       24.586 -22.495   7.198  0.00  0.00    +0.236 C 
ATOM      2  N   LIG    1       24.034 -22.502   5.934  0.00  0.00    -0.310 N 
ATOM      3  H   LIG    1       24.647 -22.743   5.154  0.00  0.00    +0.149 HD
ATOM      4  O   LIG    1       24.103 -21.827   8.117  0.00  0.00    -0.274 OA
ENDROOT
BRANCH   1   5
ATOM      5  C   LIG    1       25.912 -23.283   7.354  0.00  0.00    +0.185 C 
BRANCH   5   6
ATOM      6  N   LIG    1       27.042 -22.490   6.847  0.00  0.00    -0.302 N 
ATOM      7  H   LIG    1       27.391 -22.700   5.923  0.00  0.00    +0.149 HD
ATOM      8  C   LIG    1       27.702 -21.583   7.643  0.00  0.00    +0.211 C 
ATOM      9  O   LIG    1       27.380 -21.354   8.799  0.00  0.00    -0.276 OA
ATOM     10  C   LIG    1       28.812 -20.836   6.953  0.00  0.00    +0.109 C 
ENDBRANCH   5   6
BRANCH   5  11
ATOM     11  C   LIG    1       25.795 -24.647   6.637  0.00  0.00    +0.191 C 
BRANCH  11  13
ATOM     12  C   LIG    1       24.233 -26.215   5.782  0.00  0.00    +0.194 C 
ATOM     13  O   LIG    1       24.457 -25.164   6.722  0.00  0.00    -0.381 OA
ENDBRANCH  11  13
ENDBRANCH   5  11
ENDBRANCH   1   5
BRANCH   2  14
ATOM     14  C   LIG    1       22.806 -21.803   5.643  0.00  0.00    +0.139 C 
BRANCH  14  15
ATOM     15  C   LIG    1       23.047 -20.487   4.948  0.00  0.00    -0.030 A 
ATOM     16  C   LIG    1       24.257 -20.255   4.279  0.00  0.00    +0.005 A 
ATOM     17  C   LIG    1       24.516 -19.020   3.679  0.00  0.00    +0.000 A 
ATOM     18  C   LIG    1       23.567 -18.001   3.740  0.00  0.00    +0.000 A 
ATOM     19  C   LIG    1       22.356 -18.219   4.392  0.00  0.00    +0.000 A 
ATOM     20  C   LIG    1       22.096 -19.454   4.995  0.00  0.00    +0.005 A 
ENDBRANCH  14  15
ENDBRANCH   2  14
TORSDOF 6
ENDMDL
MODEL 9
REMARK VINA RESULT:      -7.1      2.120      3.653
REMARK  Name = *****
REMARK                            x       y       z     vdW  Elec       q    Type
REMARK                         _______ _______ _______ _____ _____    ______ ____
ROOT
ATOM      1  C   LIG    1       28.324 -20.682   7.688  0.00  0.00    +0.236 C 
ATOM      2  N   LIG    1       27.007 -20.292   7.831  0.00  0.00    -0.310 N 
ATOM      3  H   LIG    1       26.766 -19.339   7.556  0.00  0.00    +0.149 HD
ATOM      4  O   LIG    1       28.809 -21.596   8.360  0.00  0.00    -0.274 OA
ENDROOT
BRANCH   1   5
ATOM      5  C   LIG    1       29.174 -19.823   6.718  0.00  0.00    +0.185 C 
BRANCH   5   6
ATOM      6  N   LIG    1       29.840 -18.733   7.449  0.00  0.00    -0.302 N 
ATOM      7  H   LIG    1       29.358 -17.849   7.521  0.00  0.00    +0.149 HD
ATOM      8  C   LIG    1       31.132 -18.853   7.906  0.00  0.00    +0.211 C 
ATOM      9  O   LIG    1       31.795 -19.870   7.766  0.00  0.00    -0.276 OA
ATOM     10  C   LIG    1       31.642 -17.655   8.660  0.00  0.00    +0.109 C 
ENDBRANCH   5   6
BRANCH   5  11
ATOM     11  C   LIG    1       28.283 -19.291   5.573  0.00  0.00    +0.191 C 
BRANCH  11  13
ATOM     12  C   LIG    1       26.135 -19.811   4.710  0.00  0.00    +0.194 C 
ATOM     13  O   LIG    1       27.419 -20.323   5.069  0.00  0.00    -0.381 OA
ENDBRANCH  11  13
ENDBRANCH   5  11
ENDBRANCH   1   5
BRANCH   2  14
ATOM     14  C   LIG    1       26.104 -20.996   8.707  0.00  0.00    +0.139 C 
BRANCH  14  15
ATOM     15  C   LIG    1       25.249 -21.994   7.968  0.00  0.00    -0.030 A 
ATOM     16  C   LIG    1       25.792 -23.222   7.563  0.00  0.00    +0.005 A 
ATOM     17  C   LIG    1       25.028 -24.132   6.828  0.00  0.00    +0.000 A 
ATOM     18  C   LIG    1       23.712 -23.827   6.490  0.00  0.00    +0.000 A 
ATOM     19  C   LIG    1       23.154 -22.616   6.893  0.00  0.00    +0.000 A 
ATOM     20  C   LIG    1       23.918 -21.703   7.627  0.00  0.00    +0.005 A 
ENDBRANCH  14  15
ENDBRANCH   2  14
TORSDOF 6
ENDMDL
