MODEL 1
REMARK VINA RESULT:       0.4      0.000      0.000
REMARK  Name = *****
REMARK                            x       y       z     vdW  Elec       q    Type
REMARK                         _______ _______ _______ _____ _____    ______ ____
ROOT
ATOM      1  C   LIG    1       26.444 -19.745   5.608  0.00  0.00    +0.115 C 
ATOM      2  C   LIG    1       25.033 -19.655   4.976  0.00  0.00    +0.153 C 
ATOM      3  C   LIG    1       24.776 -18.307   4.261  0.00  0.00    +0.115 C 
ATOM      4  C   LIG    1       25.884 -18.042   3.200  0.00  0.00    +0.173 C 
ATOM      5  C   LIG    1       27.290 -18.146   3.792  0.00  0.00    +0.182 C 
ATOM      6  O   LIG    1       27.478 -17.059   4.718  0.00  0.00    -0.338 OA
ATOM      7  C   LIG    1       27.494 -15.816   3.997  0.00  0.00    +0.319 C 
ATOM      8  C   LIG    1       26.179 -15.622   3.165  0.00  0.00    +0.281 C 
ATOM      9  C   LIG    1       25.162 -14.860   4.034  0.00  0.00    +0.200 C 
ATOM     10  O   LIG    1       23.964 -15.147   4.051  0.00  0.00    -0.291 OA
ATOM     11  C   LIG    1       25.679 -13.673   4.820  0.00  0.00    +0.111 C 
ATOM     12  C   LIG    1       27.187 -13.535   4.663  0.00  0.00    +0.126 C 
ATOM     13  C   LIG    1       27.751 -12.511   5.639  0.00  0.00    +0.038 C 
ATOM     14  O   LIG    1       27.784 -14.793   4.957  0.00  0.00    -0.343 OA
ATOM     15  O   LIG    1       25.702 -16.790   2.513  0.00  0.00    -0.331 OA
ATOM     16  C   LIG    1       27.520 -19.475   4.521  0.00  0.00    +0.165 C 
ENDROOT
BRANCH   1  18
ATOM     17  C   LIG    1       25.638 -21.569   7.062  0.00  0.00    +0.101 C 
ATOM     18  N   LIG    1       26.721 -21.065   6.230  0.00  0.00    -0.312 NA
ATOM     19  H   LIG    1       26.890 -21.735   5.474  0.00  0.00    +0.122 HD
ENDBRANCH   1  18
BRANCH   3  20
ATOM     20  N   LIG    1       23.462 -18.308   3.557  0.00  0.00    -0.312 NA
ATOM     21  H   LIG    1       23.409 -17.421   3.039  0.00  0.00    +0.122 HD
ATOM     22  C   LIG    1       22.318 -18.359   4.460  0.00  0.00    +0.101 C 
ENDBRANCH   3  20
BRANCH   2  23
ATOM     23  O   LIG    1       24.855 -20.722   4.029  0.00  0.00    -0.389 OA
ATOM     24  H   LIG    1       24.636 -21.507   4.574  0.00  0.00    +0.210 HD
ENDBRANCH   2  23
BRANCH   8  25
ATOM     25  O   LIG    1       26.435 -14.721   2.074  0.00  0.00    -0.355 OA
ATOM     26  H   LIG    1       26.099 -15.206   1.298  0.00  0.00    +0.213 HD
ENDBRANCH   8  25
BRANCH  16  27
ATOM     27  O   LIG    1       28.840 -19.444   5.086  0.00  0.00    -0.388 OA
ATOM     28  H   LIG    1       29.433 -19.123   4.382  0.00  0.00    +0.210 HD
ENDBRANCH  16  27
TORSDOF 5
ENDMDL
MODEL 2
REMARK VINA RESULT:       1.1      2.186      5.951
REMARK  Name = *****
REMARK                            x       y       z     vdW  Elec       q    Type
REMARK                         _______ _______ _______ _____ _____    ______ ____
ROOT
ATOM      1  C   LIG    1       25.932 -14.509   4.739  0.00  0.00    +0.115 C 
ATOM      2  C   LIG    1       27.339 -15.155   4.674  0.00  0.00    +0.153 C 
ATOM      3  C   LIG    1       27.291 -16.676   4.393  0.00  0.00    +0.115 C 
ATOM      4  C   LIG    1       26.484 -16.957   3.091  0.00  0.00    +0.173 C 
ATOM      5  C   LIG    1       25.098 -16.312   3.118  0.00  0.00    +0.182 C 
ATOM      6  O   LIG    1       24.307 -16.970   4.126  0.00  0.00    -0.338 OA
ATOM      7  C   LIG    1       24.052 -18.326   3.721  0.00  0.00    +0.319 C 
ATOM      8  C   LIG    1       25.390 -19.104   3.462  0.00  0.00    +0.281 C 
ATOM      9  C   LIG    1       25.809 -19.797   4.770  0.00  0.00    +0.200 C 
ATOM     10  O   LIG    1       26.982 -19.843   5.145  0.00  0.00    -0.291 OA
ATOM     11  C   LIG    1       24.724 -20.505   5.555  0.00  0.00    +0.111 C 
ATOM     12  C   LIG    1       23.361 -20.286   4.913  0.00  0.00    +0.126 C 
ATOM     13  C   LIG    1       22.239 -20.773   5.822  0.00  0.00    +0.038 C 
ATOM     14  O   LIG    1       23.182 -18.889   4.710  0.00  0.00    -0.343 OA
ATOM     15  O   LIG    1       26.397 -18.362   2.790  0.00  0.00    -0.331 OA
ATOM     16  C   LIG    1       25.159 -14.811   3.426  0.00  0.00    +0.165 C 
ENDROOT
BRANCH   1  18
ATOM     17  C   LIG    1       24.684 -12.439   5.236  0.00  0.00    +0.101 C 
ATOM     18  N   LIG    1       25.976 -13.037   4.935  0.00  0.00    -0.312 NA
ATOM     19  H   LIG    1       26.613 -12.847   5.714  0.00  0.00    +0.122 HD
ENDBRANCH   1  18
BRANCH   3  20
ATOM     20  N   LIG    1       28.661 -17.237   4.209  0.00  0.00    -0.312 NA
ATOM     21  H   LIG    1       28.608 -17.878   3.406  0.00  0.00    +0.122 HD
ATOM     22  C   LIG    1       29.134 -18.006   5.355  0.00  0.00    +0.101 C 
ENDBRANCH   3  20
BRANCH   2  23
ATOM     23  O   LIG    1       28.120 -14.519   3.648  0.00  0.00    -0.389 OA
ATOM     24  H   LIG    1       29.048 -14.602   3.954  0.00  0.00    +0.210 HD
ENDBRANCH   2  23
BRANCH   8  25
ATOM     25  O   LIG    1       25.135 -20.198   2.564  0.00  0.00    -0.355 OA
ATOM     26  H   LIG    1       26.024 -20.564   2.399  0.00  0.00    +0.213 HD
ENDBRANCH   8  25
BRANCH  16  27
ATOM     27  O   LIG    1       23.811 -14.320   3.487  0.00  0.00    -0.388 OA
ATOM     28  H   LIG    1       23.234 -15.073   3.264  0.00  0.00    +0.210 HD
ENDBRANCH  16  27
TORSDOF 5
ENDMDL
