MODEL 1
REMARK VINA RESULT:      -6.6      0.000      0.000
REMARK  Name = *****
REMARK                            x       y       z     vdW  Elec       q    Type
REMARK                         _______ _______ _______ _____ _____    ______ ____
ROOT
ATOM      1  C   LIG    1       25.936 -21.526   6.158  0.00  0.00    +0.146 C 
ENDROOT
BRANCH   1   2
ATOM      2  C   LIG    1       25.718 -23.057   6.021  0.00  0.00    -0.004 A 
ATOM      3  C   LIG    1       25.085 -23.598   4.888  0.00  0.00    +0.007 A 
ATOM      4  C   LIG    1       24.823 -24.966   4.747  0.00  0.00    +0.000 A 
ATOM      5  C   LIG    1       25.262 -25.861   5.710  0.00  0.00    +0.000 A 
ATOM      6  C   LIG    1       25.957 -25.378   6.813  0.00  0.00    +0.000 A 
ATOM      7  C   LIG    1       26.172 -23.995   6.975  0.00  0.00    +0.007 A 
ENDBRANCH   1   2
BRANCH   1   8
ATOM      8  C   LIG    1       27.357 -21.159   6.801  0.00  0.00    +0.049 C 
ATOM      9  C   LIG    1       27.194 -20.258   8.069  0.00  0.00    +0.013 C 
BRANCH   8  10
ATOM     10  C   LIG    1       28.406 -20.428   5.885  0.00  0.00    +0.091 C 
BRANCH  10  11
ATOM     11  N   LIG    1       29.093 -19.185   6.288  0.00  0.00    -0.308 NA
ATOM     12  C   LIG    1       29.130 -18.134   5.268  0.00  0.00    +0.104 C 
ATOM     13  C   LIG    1       30.473 -19.483   6.702  0.00  0.00    +0.104 C 
ENDBRANCH  10  11
ENDBRANCH   8  10
ENDBRANCH   1   8
BRANCH   1  14
ATOM     14  O   LIG    1       24.798 -21.002   6.931  0.00  0.00    -0.453 OA
BRANCH  14  15
ATOM     15  C   LIG    1       24.144 -21.603   7.970  0.00  0.00    +0.308 C 
ATOM     16  O   LIG    1       24.619 -21.943   9.026  0.00  0.00    -0.251 OA
BRANCH  15  18
ATOM     17  C   LIG    1       22.518 -23.319   6.978  0.00  0.00    +0.015 C 
ATOM     18  C   LIG    1       22.706 -21.915   7.535  0.00  0.00    +0.117 C 
ENDBRANCH  15  18
ENDBRANCH  14  15
ENDBRANCH   1  14
BRANCH   1  19
ATOM     19  C   LIG    1       25.752 -20.744   4.780  0.00  0.00    +0.088 C 
BRANCH  19  20
ATOM     20  C   LIG    1       24.460 -19.995   4.409  0.00  0.00    -0.043 A 
ATOM     21  C   LIG    1       24.491 -18.652   4.000  0.00  0.00    +0.004 A 
ATOM     22  C   LIG    1       23.322 -17.885   3.903  0.00  0.00    +0.000 A 
ATOM     23  C   LIG    1       22.085 -18.450   4.187  0.00  0.00    +0.000 A 
ATOM     24  C   LIG    1       22.018 -19.797   4.530  0.00  0.00    +0.000 A 
ATOM     25  C   LIG    1       23.192 -20.561   4.641  0.00  0.00    +0.004 A 
ENDBRANCH  19  20
ENDBRANCH   1  19
TORSDOF 9
ENDMDL
MODEL 2
REMARK VINA RESULT:      -6.5      2.065      5.549
REMARK  Name = *****
REMARK                            x       y       z     vdW  Elec       q    Type
REMARK                         _______ _______ _______ _____ _____    ______ ____
ROOT
ATOM      1  C   LIG    1       25.505 -21.225   6.341  0.00  0.00    +0.146 C 
ENDROOT
BRANCH   1   2
ATOM      2  C   LIG    1       25.445 -22.772   6.205  0.00  0.00    -0.004 A 
ATOM      3  C   LIG    1       25.817 -23.606   7.274  0.00  0.00    +0.007 A 
ATOM      4  C   LIG    1       25.827 -25.002   7.177  0.00  0.00    +0.000 A 
ATOM      5  C   LIG    1       25.382 -25.623   6.020  0.00  0.00    +0.000 A 
ATOM      6  C   LIG    1       24.935 -24.837   4.964  0.00  0.00    +0.000 A 
ATOM      7  C   LIG    1       24.976 -23.432   5.048  0.00  0.00    +0.007 A 
ENDBRANCH   1   2
BRANCH   1   8
ATOM      8  C   LIG    1       24.057 -20.564   6.513  0.00  0.00    +0.049 C 
ATOM      9  C   LIG    1       23.560 -20.656   7.994  0.00  0.00    +0.013 C 
BRANCH   8  10
ATOM     10  C   LIG    1       22.885 -21.130   5.630  0.00  0.00    +0.091 C 
BRANCH  10  11
ATOM     11  N   LIG    1       22.251 -20.356   4.546  0.00  0.00    -0.308 NA
ATOM     12  C   LIG    1       22.250 -18.903   4.734  0.00  0.00    +0.104 C 
ATOM     13  C   LIG    1       20.863 -20.804   4.351  0.00  0.00    +0.104 C 
ENDBRANCH  10  11
ENDBRANCH   8  10
ENDBRANCH   1   8
BRANCH   1  14
ATOM     14  O   LIG    1       26.237 -20.724   5.167  0.00  0.00    -0.453 OA
BRANCH  14  15
ATOM     15  C   LIG    1       25.740 -20.005   4.115  0.00  0.00    +0.308 C 
ATOM     16  O   LIG    1       25.050 -20.421   3.215  0.00  0.00    -0.251 OA
BRANCH  15  18
ATOM     17  C   LIG    1       25.632 -17.602   3.231  0.00  0.00    +0.015 C 
ATOM     18  C   LIG    1       26.313 -18.584   4.173  0.00  0.00    +0.117 C 
ENDBRANCH  15  18
ENDBRANCH  14  15
ENDBRANCH   1  14
BRANCH   1  19
ATOM     19  C   LIG    1       26.461 -20.741   7.523  0.00  0.00    +0.088 C 
BRANCH  19  20
ATOM     20  C   LIG    1       27.981 -20.572   7.354  0.00  0.00    -0.043 A 
ATOM     21  C   LIG    1       28.886 -21.386   8.055  0.00  0.00    +0.004 A 
ATOM     22  C   LIG    1       30.254 -21.086   8.112  0.00  0.00    +0.000 A 
ATOM     23  C   LIG    1       30.759 -19.978   7.444  0.00  0.00    +0.000 A 
ATOM     24  C   LIG    1       29.896 -19.191   6.687  0.00  0.00    +0.000 A 
ATOM     25  C   LIG    1       28.522 -19.484   6.643  0.00  0.00    +0.004 A 
ENDBRANCH  19  20
ENDBRANCH   1  19
TORSDOF 9
ENDMDL
MODEL 3
REMARK VINA RESULT:      -6.4      1.397      2.605
REMARK  Name = *****
REMARK                            x       y       z     vdW  Elec       q    Type
REMARK                         _______ _______ _______ _____ _____    ______ ____
ROOT
ATOM      1  C   LIG    1       26.070 -21.593   6.431  0.00  0.00    +0.146 C 
ENDROOT
BRANCH   1   2
ATOM      2  C   LIG    1       25.610 -23.066   6.253  0.00  0.00    -0.004 A 
ATOM      3  C   LIG    1       25.834 -24.020   7.262  0.00  0.00    +0.007 A 
ATOM      4  C   LIG    1       25.483 -25.367   7.122  0.00  0.00    +0.000 A 
ATOM      5  C   LIG    1       24.814 -25.798   5.986  0.00  0.00    +0.000 A 
ATOM      6  C   LIG    1       24.507 -24.873   4.994  0.00  0.00    +0.000 A 
ATOM      7  C   LIG    1       24.909 -23.529   5.118  0.00  0.00    +0.007 A 
ENDBRANCH   1   2
BRANCH   1   8
ATOM      8  C   LIG    1       27.037 -21.397   7.693  0.00  0.00    +0.049 C 
ATOM      9  C   LIG    1       26.494 -20.295   8.662  0.00  0.00    +0.013 C 
BRANCH   8  10
ATOM     10  C   LIG    1       28.538 -21.019   7.411  0.00  0.00    +0.091 C 
BRANCH  10  11
ATOM     11  N   LIG    1       29.432 -20.461   8.444  0.00  0.00    -0.308 NA
ATOM     12  C   LIG    1       29.958 -19.124   8.157  0.00  0.00    +0.104 C 
ATOM     13  C   LIG    1       30.566 -21.370   8.674  0.00  0.00    +0.104 C 
ENDBRANCH  10  11
ENDBRANCH   8  10
ENDBRANCH   1   8
BRANCH   1  14
ATOM     14  O   LIG    1       24.850 -20.773   6.503  0.00  0.00    -0.453 OA
BRANCH  14  15
ATOM     15  C   LIG    1       23.600 -21.164   6.895  0.00  0.00    +0.308 C 
ATOM     16  O   LIG    1       23.295 -21.663   7.951  0.00  0.00    -0.251 OA
BRANCH  15  18
ATOM     17  C   LIG    1       22.451 -19.556   5.263  0.00  0.00    +0.015 C 
ATOM     18  C   LIG    1       22.636 -20.997   5.713  0.00  0.00    +0.117 C 
ENDBRANCH  15  18
ENDBRANCH  14  15
ENDBRANCH   1  14
BRANCH   1  19
ATOM     19  C   LIG    1       26.761 -20.994   5.125  0.00  0.00    +0.088 C 
BRANCH  19  20
ATOM     20  C   LIG    1       26.544 -19.546   4.651  0.00  0.00    -0.043 A 
ATOM     21  C   LIG    1       25.412 -19.188   3.902  0.00  0.00    +0.004 A 
ATOM     22  C   LIG    1       25.321 -17.950   3.252  0.00  0.00    +0.000 A 
ATOM     23  C   LIG    1       26.351 -17.023   3.357  0.00  0.00    +0.000 A 
ATOM     24  C   LIG    1       27.456 -17.325   4.148  0.00  0.00    +0.000 A 
ATOM     25  C   LIG    1       27.552 -18.573   4.787  0.00  0.00    +0.004 A 
ENDBRANCH  19  20
ENDBRANCH   1  19
TORSDOF 9
ENDMDL
MODEL 4
REMARK VINA RESULT:      -6.3      7.012     10.431
REMARK  Name = *****
REMARK                            x       y       z     vdW  Elec       q    Type
REMARK                         _______ _______ _______ _____ _____    ______ ____
ROOT
ATOM      1  C   LIG    1       25.566 -29.957   8.944  0.00  0.00    +0.146 C 
ENDROOT
BRANCH   1   2
ATOM      2  C   LIG    1       25.322 -28.942   7.793  0.00  0.00    -0.004 A 
ATOM      3  C   LIG    1       26.077 -27.760   7.701  0.00  0.00    +0.007 A 
ATOM      4  C   LIG    1       25.856 -26.795   6.712  0.00  0.00    +0.000 A 
ATOM      5  C   LIG    1       24.913 -27.019   5.720  0.00  0.00    +0.000 A 
ATOM      6  C   LIG    1       24.194 -28.209   5.730  0.00  0.00    +0.000 A 
ATOM      7  C   LIG    1       24.385 -29.153   6.758  0.00  0.00    +0.007 A 
ENDBRANCH   1   2
BRANCH   1   8
ATOM      8  C   LIG    1       25.540 -31.478   8.441  0.00  0.00    +0.049 C 
ATOM      9  C   LIG    1       26.055 -32.454   9.551  0.00  0.00    +0.013 C 
BRANCH   8  10
ATOM     10  C   LIG    1       26.356 -31.833   7.144  0.00  0.00    +0.091 C 
BRANCH  10  11
ATOM     11  N   LIG    1       25.760 -32.529   5.987  0.00  0.00    -0.308 NA
ATOM     12  C   LIG    1       25.835 -31.804   4.717  0.00  0.00    +0.104 C 
ATOM     13  C   LIG    1       24.350 -32.847   6.262  0.00  0.00    +0.104 C 
ENDBRANCH  10  11
ENDBRANCH   8  10
ENDBRANCH   1   8
BRANCH   1  14
ATOM     14  O   LIG    1       24.563 -29.672   9.982  0.00  0.00    -0.453 OA
BRANCH  14  15
ATOM     15  C   LIG    1       23.356 -30.287  10.171  0.00  0.00    +0.308 C 
ATOM     16  O   LIG    1       22.573 -30.626   9.317  0.00  0.00    -0.251 OA
BRANCH  15  18
ATOM     17  C   LIG    1       23.091 -29.015  12.381  0.00  0.00    +0.015 C 
ATOM     18  C   LIG    1       23.071 -30.363  11.676  0.00  0.00    +0.117 C 
ENDBRANCH  15  18
ENDBRANCH  14  15
ENDBRANCH   1  14
BRANCH   1  19
ATOM     19  C   LIG    1       26.917 -29.678   9.744  0.00  0.00    +0.088 C 
BRANCH  19  20
ATOM     20  C   LIG    1       26.944 -29.062  11.154  0.00  0.00    -0.043 A 
ATOM     21  C   LIG    1       26.871 -29.867  12.301  0.00  0.00    +0.004 A 
ATOM     22  C   LIG    1       26.640 -29.320  13.571  0.00  0.00    +0.000 A 
ATOM     23  C   LIG    1       26.503 -27.947  13.731  0.00  0.00    +0.000 A 
ATOM     24  C   LIG    1       26.637 -27.118  12.620  0.00  0.00    +0.000 A 
ATOM     25  C   LIG    1       26.854 -27.670  11.345  0.00  0.00    +0.004 A 
ENDBRANCH  19  20
ENDBRANCH   1  19
TORSDOF 9
ENDMDL
MODEL 5
REMARK VINA RESULT:      -6.0      7.025     10.579
REMARK  Name = *****
REMARK                            x       y       z     vdW  Elec       q    Type
REMARK                         _______ _______ _______ _____ _____    ______ ____
ROOT
ATOM      1  C   LIG    1       25.340 -30.556   8.922  0.00  0.00    +0.146 C 
ENDROOT
BRANCH   1   2
ATOM      2  C   LIG    1       26.059 -29.853  10.107  0.00  0.00    -0.004 A 
ATOM      3  C   LIG    1       25.351 -29.017  10.988  0.00  0.00    +0.007 A 
ATOM      4  C   LIG    1       25.969 -28.325  12.036  0.00  0.00    +0.000 A 
ATOM      5  C   LIG    1       27.319 -28.511  12.292  0.00  0.00    +0.000 A 
ATOM      6  C   LIG    1       28.043 -29.387  11.490  0.00  0.00    +0.000 A 
ATOM      7  C   LIG    1       27.427 -30.040  10.405  0.00  0.00    +0.007 A 
ENDBRANCH   1   2
BRANCH   1   8
ATOM      8  C   LIG    1       24.457 -31.807   9.390  0.00  0.00    +0.049 C 
ATOM      9  C   LIG    1       22.992 -31.377   9.731  0.00  0.00    +0.013 C 
BRANCH   8  10
ATOM     10  C   LIG    1       24.961 -32.634  10.630  0.00  0.00    +0.091 C 
BRANCH  10  11
ATOM     11  N   LIG    1       24.355 -32.520  11.971  0.00  0.00    -0.308 NA
ATOM     12  C   LIG    1       25.263 -32.073  13.030  0.00  0.00    +0.104 C 
ATOM     13  C   LIG    1       23.768 -33.808  12.370  0.00  0.00    +0.104 C 
ENDBRANCH  10  11
ENDBRANCH   8  10
ENDBRANCH   1   8
BRANCH   1  14
ATOM     14  O   LIG    1       26.380 -30.913   7.945  0.00  0.00    -0.453 OA
BRANCH  14  15
ATOM     15  C   LIG    1       26.601 -32.131   7.364  0.00  0.00    +0.308 C 
ATOM     16  O   LIG    1       27.143 -33.086   7.866  0.00  0.00    -0.251 OA
BRANCH  15  18
ATOM     17  C   LIG    1       24.703 -32.405   5.663  0.00  0.00    +0.015 C 
ATOM     18  C   LIG    1       26.167 -32.063   5.894  0.00  0.00    +0.117 C 
ENDBRANCH  15  18
ENDBRANCH  14  15
ENDBRANCH   1  14
BRANCH   1  19
ATOM     19  C   LIG    1       24.443 -29.558   8.059  0.00  0.00    +0.088 C 
BRANCH  19  20
ATOM     20  C   LIG    1       25.034 -28.578   7.030  0.00  0.00    -0.043 A 
ATOM     21  C   LIG    1       25.832 -27.496   7.431  0.00  0.00    +0.004 A 
ATOM     22  C   LIG    1       26.166 -26.459   6.548  0.00  0.00    +0.000 A 
ATOM     23  C   LIG    1       25.731 -26.493   5.229  0.00  0.00    +0.000 A 
ATOM     24  C   LIG    1       24.993 -27.587   4.786  0.00  0.00    +0.000 A 
ATOM     25  C   LIG    1       24.648 -28.618   5.676  0.00  0.00    +0.004 A 
ENDBRANCH  19  20
ENDBRANCH   1  19
TORSDOF 9
ENDMDL
MODEL 6
REMARK VINA RESULT:      -6.0      1.118      1.637
REMARK  Name = *****
REMARK                            x       y       z     vdW  Elec       q    Type
REMARK                         _______ _______ _______ _____ _____    ______ ____
ROOT
ATOM      1  C   LIG    1       25.587 -22.072   6.467  0.00  0.00    +0.146 C 
ENDROOT
BRANCH   1   2
ATOM      2  C   LIG    1       25.475 -23.593   6.174  0.00  0.00    -0.004 A 
ATOM      3  C   LIG    1       25.788 -24.544   7.161  0.00  0.00    +0.007 A 
ATOM      4  C   LIG    1       25.750 -25.923   6.923  0.00  0.00    +0.000 A 
ATOM      5  C   LIG    1       25.314 -26.406   5.699  0.00  0.00    +0.000 A 
ATOM      6  C   LIG    1       24.924 -25.502   4.718  0.00  0.00    +0.000 A 
ATOM      7  C   LIG    1       25.013 -24.115   4.945  0.00  0.00    +0.007 A 
ENDBRANCH   1   2
BRANCH   1   8
ATOM      8  C   LIG    1       26.513 -21.754   7.735  0.00  0.00    +0.049 C 
ATOM      9  C   LIG    1       26.117 -20.397   8.405  0.00  0.00    +0.013 C 
BRANCH   8  10
ATOM     10  C   LIG    1       28.067 -21.682   7.505  0.00  0.00    +0.091 C 
BRANCH  10  11
ATOM     11  N   LIG    1       28.872 -20.489   7.832  0.00  0.00    -0.308 NA
ATOM     12  C   LIG    1       29.090 -19.560   6.720  0.00  0.00    +0.104 C 
ATOM     13  C   LIG    1       30.181 -20.895   8.367  0.00  0.00    +0.104 C 
ENDBRANCH  10  11
ENDBRANCH   8  10
ENDBRANCH   1   8
BRANCH   1  14
ATOM     14  O   LIG    1       24.213 -21.564   6.611  0.00  0.00    -0.453 OA
BRANCH  14  15
ATOM     15  C   LIG    1       23.241 -22.008   7.464  0.00  0.00    +0.308 C 
ATOM     16  O   LIG    1       23.115 -21.723   8.630  0.00  0.00    -0.251 OA
BRANCH  15  18
ATOM     17  C   LIG    1       21.568 -22.499   5.586  0.00  0.00    +0.015 C 
ATOM     18  C   LIG    1       22.389 -23.057   6.739  0.00  0.00    +0.117 C 
ENDBRANCH  15  18
ENDBRANCH  14  15
ENDBRANCH   1  14
BRANCH   1  19
ATOM     19  C   LIG    1       26.090 -21.230   5.209  0.00  0.00    +0.088 C 
BRANCH  19  20
ATOM     20  C   LIG    1       25.220 -20.175   4.505  0.00  0.00    -0.043 A 
ATOM     21  C   LIG    1       25.794 -19.045   3.900  0.00  0.00    +0.004 A 
ATOM     22  C   LIG    1       25.014 -17.958   3.481  0.00  0.00    +0.000 A 
ATOM     23  C   LIG    1       23.633 -17.985   3.631  0.00  0.00    +0.000 A 
ATOM     24  C   LIG    1       23.031 -19.120   4.166  0.00  0.00    +0.000 A 
ATOM     25  C   LIG    1       23.816 -20.203   4.599  0.00  0.00    +0.004 A 
ENDBRANCH  19  20
ENDBRANCH   1  19
TORSDOF 9
ENDMDL
MODEL 7
REMARK VINA RESULT:      -6.0      7.024      9.863
REMARK  Name = *****
REMARK                            x       y       z     vdW  Elec       q    Type
REMARK                         _______ _______ _______ _____ _____    ______ ____
ROOT
ATOM      1  C   LIG    1       25.087 -31.231   8.187  0.00  0.00    +0.146 C 
ENDROOT
BRANCH   1   2
ATOM      2  C   LIG    1       25.077 -31.862   6.768  0.00  0.00    -0.004 A 
ATOM      3  C   LIG    1       23.969 -32.600   6.313  0.00  0.00    +0.007 A 
ATOM      4  C   LIG    1       23.940 -33.228   5.063  0.00  0.00    +0.000 A 
ATOM      5  C   LIG    1       24.997 -33.072   4.180  0.00  0.00    +0.000 A 
ATOM      6  C   LIG    1       26.082 -32.290   4.560  0.00  0.00    +0.000 A 
ATOM      7  C   LIG    1       26.129 -31.703   5.839  0.00  0.00    +0.007 A 
ENDBRANCH   1   2
BRANCH   1   8
ATOM      8  C   LIG    1       26.553 -31.180   8.830  0.00  0.00    +0.049 C 
ATOM      9  C   LIG    1       27.159 -32.614   8.982  0.00  0.00    +0.013 C 
BRANCH   8  10
ATOM     10  C   LIG    1       26.710 -30.496  10.238  0.00  0.00    +0.091 C 
BRANCH  10  11
ATOM     11  N   LIG    1       27.605 -29.346  10.476  0.00  0.00    -0.308 NA
ATOM     12  C   LIG    1       28.569 -29.521  11.564  0.00  0.00    +0.104 C 
ATOM     13  C   LIG    1       26.811 -28.137  10.742  0.00  0.00    +0.104 C 
ENDBRANCH  10  11
ENDBRANCH   8  10
ENDBRANCH   1   8
BRANCH   1  14
ATOM     14  O   LIG    1       24.124 -31.992   8.998  0.00  0.00    -0.453 OA
BRANCH  14  15
ATOM     15  C   LIG    1       23.143 -31.501   9.814  0.00  0.00    +0.308 C 
ATOM     16  O   LIG    1       22.185 -30.844   9.483  0.00  0.00    -0.251 OA
BRANCH  15  18
ATOM     17  C   LIG    1       24.337 -33.067  11.455  0.00  0.00    +0.015 C 
ATOM     18  C   LIG    1       23.518 -31.798  11.271  0.00  0.00    +0.117 C 
ENDBRANCH  15  18
ENDBRANCH  14  15
ENDBRANCH   1  14
BRANCH   1  19
ATOM     19  C   LIG    1       24.432 -29.777   8.226  0.00  0.00    +0.088 C 
BRANCH  19  20
ATOM     20  C   LIG    1       24.744 -28.689   7.183  0.00  0.00    -0.043 A 
ATOM     21  C   LIG    1       24.167 -28.722   5.903  0.00  0.00    +0.004 A 
ATOM     22  C   LIG    1       24.627 -27.897   4.867  0.00  0.00    +0.000 A 
ATOM     23  C   LIG    1       25.660 -26.996   5.092  0.00  0.00    +0.000 A 
ATOM     24  C   LIG    1       26.206 -26.895   6.369  0.00  0.00    +0.000 A 
ATOM     25  C   LIG    1       25.754 -27.733   7.402  0.00  0.00    +0.004 A 
ENDBRANCH  19  20
ENDBRANCH   1  19
TORSDOF 9
ENDMDL
MODEL 8
REMARK VINA RESULT:      -5.8      6.769     10.335
REMARK  Name = *****
REMARK                            x       y       z     vdW  Elec       q    Type
REMARK                         _______ _______ _______ _____ _____    ______ ____
ROOT
ATOM      1  C   LIG    1       25.189 -30.618   8.581  0.00  0.00    +0.146 C 
ENDROOT
BRANCH   1   2
ATOM      2  C   LIG    1       24.495 -30.843   9.952  0.00  0.00    -0.004 A 
ATOM      3  C   LIG    1       23.542 -29.931  10.438  0.00  0.00    +0.007 A 
ATOM      4  C   LIG    1       22.930 -30.068  11.689  0.00  0.00    +0.000 A 
ATOM      5  C   LIG    1       23.193 -31.180  12.474  0.00  0.00    +0.000 A 
ATOM      6  C   LIG    1       24.074 -32.146  12.001  0.00  0.00    +0.000 A 
ATOM      7  C   LIG    1       24.726 -31.976  10.764  0.00  0.00    +0.007 A 
ENDBRANCH   1   2
BRANCH   1   8
ATOM      8  C   LIG    1       25.423 -31.983   7.776  0.00  0.00    +0.049 C 
ATOM      9  C   LIG    1       26.926 -32.162   7.381  0.00  0.00    +0.013 C 
BRANCH   8  10
ATOM     10  C   LIG    1       24.602 -32.199   6.452  0.00  0.00    +0.091 C 
BRANCH  10  11
ATOM     11  N   LIG    1       23.225 -32.728   6.439  0.00  0.00    -0.308 NA
ATOM     12  C   LIG    1       22.857 -33.539   7.603  0.00  0.00    +0.104 C 
ATOM     13  C   LIG    1       23.002 -33.525   5.223  0.00  0.00    +0.104 C 
ENDBRANCH  10  11
ENDBRANCH   8  10
ENDBRANCH   1   8
BRANCH   1  14
ATOM     14  O   LIG    1       26.436 -29.884   8.852  0.00  0.00    -0.453 OA
BRANCH  14  15
ATOM     15  C   LIG    1       27.082 -29.744  10.049  0.00  0.00    +0.308 C 
ATOM     16  O   LIG    1       27.713 -30.591  10.635  0.00  0.00    -0.251 OA
BRANCH  15  18
ATOM     17  C   LIG    1       26.476 -28.353  12.115  0.00  0.00    +0.015 C 
ATOM     18  C   LIG    1       26.769 -28.357  10.622  0.00  0.00    +0.117 C 
ENDBRANCH  15  18
ENDBRANCH  14  15
ENDBRANCH   1  14
BRANCH   1  19
ATOM     19  C   LIG    1       24.418 -29.573   7.657  0.00  0.00    +0.088 C 
BRANCH  19  20
ATOM     20  C   LIG    1       25.139 -28.502   6.820  0.00  0.00    -0.043 A 
ATOM     21  C   LIG    1       25.578 -27.300   7.399  0.00  0.00    +0.004 A 
ATOM     22  C   LIG    1       26.003 -26.218   6.616  0.00  0.00    +0.000 A 
ATOM     23  C   LIG    1       26.027 -26.319   5.231  0.00  0.00    +0.000 A 
ATOM     24  C   LIG    1       25.661 -27.521   4.632  0.00  0.00    +0.000 A 
ATOM     25  C   LIG    1       25.220 -28.600   5.418  0.00  0.00    +0.004 A 
ENDBRANCH  19  20
ENDBRANCH   1  19
TORSDOF 9
ENDMDL
MODEL 9
REMARK VINA RESULT:      -5.8      1.861      5.590
REMARK  Name = *****
REMARK                            x       y       z     vdW  Elec       q    Type
REMARK                         _______ _______ _______ _____ _____    ______ ____
ROOT
ATOM      1  C   LIG    1       25.885 -21.104   6.143  0.00  0.00    +0.146 C 
ENDROOT
BRANCH   1   2
ATOM      2  C   LIG    1       24.958 -20.291   5.198  0.00  0.00    -0.004 A 
ATOM      3  C   LIG    1       25.488 -19.564   4.117  0.00  0.00    +0.007 A 
ATOM      4  C   LIG    1       24.696 -18.778   3.272  0.00  0.00    +0.000 A 
ATOM      5  C   LIG    1       23.318 -18.754   3.433  0.00  0.00    +0.000 A 
ATOM      6  C   LIG    1       22.745 -19.516   4.444  0.00  0.00    +0.000 A 
ATOM      7  C   LIG    1       23.552 -20.265   5.323  0.00  0.00    +0.007 A 
ENDBRANCH   1   2
BRANCH   1   8
ATOM      8  C   LIG    1       25.398 -22.618   6.333  0.00  0.00    +0.049 C 
ATOM      9  C   LIG    1       26.459 -23.465   7.110  0.00  0.00    +0.013 C 
BRANCH   8  10
ATOM     10  C   LIG    1       25.054 -23.443   5.039  0.00  0.00    +0.091 C 
BRANCH  10  11
ATOM     11  N   LIG    1       24.420 -24.775   5.081  0.00  0.00    -0.308 NA
ATOM     12  C   LIG    1       23.760 -25.111   6.345  0.00  0.00    +0.104 C 
ATOM     13  C   LIG    1       25.415 -25.816   4.781  0.00  0.00    +0.104 C 
ENDBRANCH  10  11
ENDBRANCH   8  10
ENDBRANCH   1   8
BRANCH   1  14
ATOM     14  O   LIG    1       25.963 -20.357   7.408  0.00  0.00    -0.453 OA
BRANCH  14  15
ATOM     15  C   LIG    1       25.322 -20.632   8.584  0.00  0.00    +0.308 C 
ATOM     16  O   LIG    1       25.825 -21.027   9.608  0.00  0.00    -0.251 OA
BRANCH  15  18
ATOM     17  C   LIG    1       23.101 -21.803   8.069  0.00  0.00    +0.015 C 
ATOM     18  C   LIG    1       23.810 -20.491   8.368  0.00  0.00    +0.117 C 
ENDBRANCH  15  18
ENDBRANCH  14  15
ENDBRANCH   1  14
BRANCH   1  19
ATOM     19  C   LIG    1       27.413 -21.084   5.685  0.00  0.00    +0.088 C 
BRANCH  19  20
ATOM     20  C   LIG    1       28.524 -20.406   6.505  0.00  0.00    -0.043 A 
ATOM     21  C   LIG    1       29.051 -19.161   6.126  0.00  0.00    +0.004 A 
ATOM     22  C   LIG    1       30.223 -18.651   6.702  0.00  0.00    +0.000 A 
ATOM     23  C   LIG    1       30.884 -19.361   7.696  0.00  0.00    +0.000 A 
ATOM     24  C   LIG    1       30.347 -20.567   8.139  0.00  0.00    +0.000 A 
ATOM     25  C   LIG    1       29.181 -21.084   7.549  0.00  0.00    +0.004 A 
ENDBRANCH  19  20
ENDBRANCH   1  19
TORSDOF 9
ENDMDL
