MODEL 1
REMARK VINA RESULT:       3.5      0.000      0.000
REMARK  Name = *****
REMARK                            x       y       z     vdW  Elec       q    Type
REMARK                         _______ _______ _______ _____ _____    ______ ____
ROOT
ATOM      1  C   LIG    1       26.347 -15.734   3.309  0.00  0.00    +0.153 A 
ATOM      2  C   LIG    1       26.002 -17.057   3.610  0.00  0.00    +0.085 A 
ATOM      3  C   LIG    1       27.130 -17.756   4.154  0.00  0.00    +0.228 A 
ATOM      4  N   LIG    1       28.313 -17.169   4.439  0.00  0.00    -0.201 NA
ATOM      5  C   LIG    1       28.446 -15.879   4.169  0.00  0.00    +0.227 A 
ATOM      6  N   LIG    1       27.521 -15.126   3.577  0.00  0.00    -0.219 NA
ENDROOT
BRANCH   2   7
ATOM      7  C   LIG    1       24.581 -17.566   3.416  0.00  0.00    -0.009 A 
ATOM      8  C   LIG    1       24.032 -18.654   2.797  0.00  0.00    +0.010 A 
ATOM      9  C   LIG    1       22.621 -18.927   2.777  0.00  0.00    +0.016 A 
ATOM     10  C   LIG    1       21.693 -18.092   3.388  0.00  0.00    +0.018 A 
ATOM     11 BR   LIG    1       19.858 -18.462   3.479  0.00  0.00    -0.050 Br
ATOM     12  C   LIG    1       22.195 -17.087   4.129  0.00  0.00    +0.016 A 
ATOM     13  C   LIG    1       23.582 -17.116   4.220  0.00  0.00    +0.010 A 
ENDBRANCH   2   7
BRANCH   1  14
ATOM     14  N   LIG    1       25.557 -14.983   2.407  0.00  0.00    -0.189 N 
ATOM     15  H   LIG    1       25.222 -15.447   1.575  0.00  0.00    +0.176 HD
BRANCH  14  16
ATOM     16  S   LIG    1       24.910 -13.544   2.869  0.00  0.00    +0.110 S 
ATOM     17  O   LIG    1       25.345 -12.488   2.065  0.00  0.00    -0.138 OA
ATOM     18  O   LIG    1       23.510 -13.760   3.279  0.00  0.00    -0.138 OA
BRANCH  16  19
ATOM     19  N   LIG    1       25.768 -13.327   4.310  0.00  0.00    -0.177 NA
ATOM     20  H   LIG    1       26.248 -12.442   4.124  0.00  0.00    +0.149 HD
BRANCH  19  21
ATOM     21  C   LIG    1       24.937 -13.081   5.498  0.00  0.00    +0.107 C 
BRANCH  21  23
ATOM     22  C   LIG    1       23.066 -11.451   6.084  0.00  0.00    +0.005 C 
ATOM     23  C   LIG    1       24.475 -11.625   5.540  0.00  0.00    +0.013 C 
ENDBRANCH  21  23
ENDBRANCH  19  21
ENDBRANCH  16  19
ENDBRANCH  14  16
ENDBRANCH   1  14
BRANCH   3  24
ATOM     24  O   LIG    1       27.313 -19.092   4.416  0.00  0.00    -0.472 OA
BRANCH  24  25
ATOM     25  C   LIG    1       27.862 -19.413   5.656  0.00  0.00    +0.271 C 
BRANCH  25  26
ATOM     26  C   LIG    1       27.156 -19.967   6.840  0.00  0.00    +0.273 C 
BRANCH  26  27
ATOM     27  O   LIG    1       26.686 -21.304   6.761  0.00  0.00    -0.459 OA
BRANCH  27  28
ATOM     28  C   LIG    1       25.418 -21.499   6.245  0.00  0.00    +0.318 A 
ATOM     29  N   LIG    1       24.339 -21.570   7.057  0.00  0.00    -0.202 NA
ATOM     30  C   LIG    1       23.123 -21.425   6.492  0.00  0.00    +0.133 A 
ATOM     31  C   LIG    1       22.948 -21.451   5.138  0.00  0.00    +0.054 A 
ATOM     32 BR   LIG    1       21.243 -21.404   4.364  0.00  0.00    -0.047 Br
ATOM     33  C   LIG    1       24.109 -21.567   4.403  0.00  0.00    +0.133 A 
ATOM     34  N   LIG    1       25.357 -21.549   4.921  0.00  0.00    -0.202 NA
ENDBRANCH  27  28
ENDBRANCH  26  27
ENDBRANCH  25  26
ENDBRANCH  24  25
ENDBRANCH   3  24
TORSDOF 11
ENDMDL
MODEL 2
REMARK VINA RESULT:       3.6      2.879      4.653
REMARK  Name = *****
REMARK                            x       y       z     vdW  Elec       q    Type
REMARK                         _______ _______ _______ _____ _____    ______ ____
ROOT
ATOM      1  C   LIG    1       27.490 -14.396   3.307  0.00  0.00    +0.153 A 
ATOM      2  C   LIG    1       26.945 -15.655   3.584  0.00  0.00    +0.085 A 
ATOM      3  C   LIG    1       25.626 -15.761   3.033  0.00  0.00    +0.228 A 
ATOM      4  N   LIG    1       25.055 -14.813   2.258  0.00  0.00    -0.201 NA
ATOM      5  C   LIG    1       25.747 -13.707   2.021  0.00  0.00    +0.227 A 
ATOM      6  N   LIG    1       26.939 -13.430   2.542  0.00  0.00    -0.219 NA
ENDROOT
BRANCH   2   7
ATOM      7  C   LIG    1       27.751 -16.720   4.315  0.00  0.00    -0.009 A 
ATOM      8  C   LIG    1       28.918 -16.715   5.024  0.00  0.00    +0.010 A 
ATOM      9  C   LIG    1       29.469 -17.884   5.655  0.00  0.00    +0.016 A 
ATOM     10  C   LIG    1       28.851 -19.127   5.585  0.00  0.00    +0.018 A 
ATOM     11 BR   LIG    1       29.474 -20.653   6.478  0.00  0.00    -0.050 Br
ATOM     12  C   LIG    1       27.630 -19.153   5.021  0.00  0.00    +0.016 A 
ATOM     13  C   LIG    1       27.161 -17.890   4.675  0.00  0.00    +0.010 A 
ENDBRANCH   2   7
BRANCH   1  14
ATOM     14  N   LIG    1       28.576 -13.909   4.071  0.00  0.00    -0.189 N 
ATOM     15  H   LIG    1       29.506 -14.017   3.693  0.00  0.00    +0.176 HD
BRANCH  14  16
ATOM     16  S   LIG    1       28.311 -12.889   5.334  0.00  0.00    +0.110 S 
ATOM     17  O   LIG    1       28.139 -13.575   6.539  0.00  0.00    -0.138 OA
ATOM     18  O   LIG    1       29.157 -11.693   5.167  0.00  0.00    -0.138 OA
BRANCH  16  19
ATOM     19  N   LIG    1       26.746 -12.388   4.935  0.00  0.00    -0.177 NA
ATOM     20  H   LIG    1       26.579 -12.919   4.077  0.00  0.00    +0.149 HD
BRANCH  19  21
ATOM     21  C   LIG    1       25.698 -12.817   5.872  0.00  0.00    +0.107 C 
BRANCH  21  23
ATOM     22  C   LIG    1       23.905 -11.475   4.652  0.00  0.00    +0.005 C 
ATOM     23  C   LIG    1       24.334 -12.834   5.185  0.00  0.00    +0.013 C 
ENDBRANCH  21  23
ENDBRANCH  19  21
ENDBRANCH  16  19
ENDBRANCH  14  16
ENDBRANCH   1  14
BRANCH   3  24
ATOM     24  O   LIG    1       24.658 -16.720   3.208  0.00  0.00    -0.472 OA
BRANCH  24  25
ATOM     25  C   LIG    1       23.352 -16.263   3.372  0.00  0.00    +0.271 C 
BRANCH  25  26
ATOM     26  C   LIG    1       22.305 -16.821   4.266  0.00  0.00    +0.273 C 
BRANCH  26  27
ATOM     27  O   LIG    1       21.971 -18.192   4.114  0.00  0.00    -0.459 OA
BRANCH  27  28
ATOM     28  C   LIG    1       22.794 -19.116   4.731  0.00  0.00    +0.318 A 
ATOM     29  N   LIG    1       23.776 -19.741   4.044  0.00  0.00    -0.202 NA
ATOM     30  C   LIG    1       24.738 -20.362   4.758  0.00  0.00    +0.133 A 
ATOM     31  C   LIG    1       24.616 -20.575   6.101  0.00  0.00    +0.054 A 
ATOM     32 BR   LIG    1       25.881 -21.571   7.059  0.00  0.00    -0.047 Br
ATOM     33  C   LIG    1       23.477 -20.050   6.673  0.00  0.00    +0.133 A 
ATOM     34  N   LIG    1       22.572 -19.281   6.029  0.00  0.00    -0.202 NA
ENDBRANCH  27  28
ENDBRANCH  26  27
ENDBRANCH  25  26
ENDBRANCH  24  25
ENDBRANCH   3  24
TORSDOF 11
ENDMDL
MODEL 3
REMARK VINA RESULT:       4.6      3.035      6.748
REMARK  Name = *****
REMARK                            x       y       z     vdW  Elec       q    Type
REMARK                         _______ _______ _______ _____ _____    ______ ____
ROOT
ATOM      1  C   LIG    1       23.464 -19.838   3.812  0.00  0.00    +0.153 A 
ATOM      2  C   LIG    1       24.090 -18.591   3.702  0.00  0.00    +0.085 A 
ATOM      3  C   LIG    1       25.256 -18.688   2.873  0.00  0.00    +0.228 A 
ATOM      4  N   LIG    1       25.613 -19.807   2.205  0.00  0.00    -0.201 NA
ATOM      5  C   LIG    1       24.857 -20.885   2.353  0.00  0.00    +0.227 A 
ATOM      6  N   LIG    1       23.804 -20.970   3.162  0.00  0.00    -0.219 NA
ENDROOT
BRANCH   2   7
ATOM      7  C   LIG    1       23.496 -17.349   4.354  0.00  0.00    -0.009 A 
ATOM      8  C   LIG    1       23.670 -16.005   4.182  0.00  0.00    +0.010 A 
ATOM      9  C   LIG    1       22.949 -15.010   4.929  0.00  0.00    +0.016 A 
ATOM     10  C   LIG    1       22.012 -15.343   5.900  0.00  0.00    +0.018 A 
ATOM     11 BR   LIG    1       20.973 -14.085   6.821  0.00  0.00    -0.050 Br
ATOM     12  C   LIG    1       21.703 -16.649   6.004  0.00  0.00    +0.016 A 
ATOM     13  C   LIG    1       22.330 -17.437   5.045  0.00  0.00    +0.010 A 
ENDBRANCH   2   7
BRANCH   1  14
ATOM     14  N   LIG    1       22.563 -20.088   4.874  0.00  0.00    -0.189 N 
ATOM     15  H   LIG    1       21.582 -20.175   4.650  0.00  0.00    +0.176 HD
BRANCH  14  16
ATOM     16  S   LIG    1       23.123 -20.582   6.339  0.00  0.00    +0.110 S 
ATOM     17  O   LIG    1       23.703 -19.536   7.061  0.00  0.00    -0.138 OA
ATOM     18  O   LIG    1       22.181 -21.566   6.903  0.00  0.00    -0.138 OA
BRANCH  16  19
ATOM     19  N   LIG    1       24.452 -21.487   5.814  0.00  0.00    -0.177 NA
ATOM     20  H   LIG    1       24.570 -21.133   4.861  0.00  0.00    +0.149 HD
BRANCH  19  21
ATOM     21  C   LIG    1       25.717 -21.191   6.502  0.00  0.00    +0.107 C 
BRANCH  21  23
ATOM     22  C   LIG    1       27.987 -20.062   6.225  0.00  0.00    +0.005 C 
ATOM     23  C   LIG    1       26.709 -20.531   5.547  0.00  0.00    +0.013 C 
ENDBRANCH  21  23
ENDBRANCH  19  21
ENDBRANCH  16  19
ENDBRANCH  14  16
ENDBRANCH   1  14
BRANCH   3  24
ATOM     24  O   LIG    1       26.264 -17.785   2.638  0.00  0.00    -0.472 OA
BRANCH  24  25
ATOM     25  C   LIG    1       26.580 -16.920   3.683  0.00  0.00    +0.271 C 
BRANCH  25  26
ATOM     26  C   LIG    1       27.924 -16.647   4.255  0.00  0.00    +0.273 C 
BRANCH  26  27
ATOM     27  O   LIG    1       28.335 -15.293   4.358  0.00  0.00    -0.459 OA
BRANCH  27  28
ATOM     28  C   LIG    1       27.434 -14.326   3.952  0.00  0.00    +0.318 A 
ATOM     29  N   LIG    1       27.125 -14.167   2.646  0.00  0.00    -0.202 NA
ATOM     30  C   LIG    1       26.017 -13.456   2.350  0.00  0.00    +0.133 A 
ATOM     31  C   LIG    1       25.361 -12.716   3.291  0.00  0.00    +0.054 A 
ATOM     32 BR   LIG    1       23.916 -11.610   2.844  0.00  0.00    -0.047 Br
ATOM     33  C   LIG    1       25.875 -12.807   4.567  0.00  0.00    +0.133 A 
ATOM     34  N   LIG    1       26.878 -13.633   4.939  0.00  0.00    -0.202 NA
ENDBRANCH  27  28
ENDBRANCH  26  27
ENDBRANCH  25  26
ENDBRANCH  24  25
ENDBRANCH   3  24
TORSDOF 11
ENDMDL
MODEL 4
REMARK VINA RESULT:       4.8      3.015      6.954
REMARK  Name = *****
REMARK                            x       y       z     vdW  Elec       q    Type
REMARK                         _______ _______ _______ _____ _____    ______ ____
ROOT
ATOM      1  C   LIG    1       27.161 -17.765   4.398  0.00  0.00    +0.153 A 
ATOM      2  C   LIG    1       25.913 -17.570   3.795  0.00  0.00    +0.085 A 
ATOM      3  C   LIG    1       25.846 -16.271   3.193  0.00  0.00    +0.228 A 
ATOM      4  N   LIG    1       26.892 -15.418   3.124  0.00  0.00    -0.201 NA
ATOM      5  C   LIG    1       28.036 -15.795   3.676  0.00  0.00    +0.227 A 
ATOM      6  N   LIG    1       28.218 -16.927   4.350  0.00  0.00    -0.219 NA
ENDROOT
BRANCH   2   7
ATOM      7  C   LIG    1       24.866 -18.675   3.775  0.00  0.00    -0.009 A 
ATOM      8  C   LIG    1       24.827 -19.945   3.273  0.00  0.00    +0.010 A 
ATOM      9  C   LIG    1       23.694 -20.819   3.412  0.00  0.00    +0.016 A 
ATOM     10  C   LIG    1       22.533 -20.432   4.072  0.00  0.00    +0.018 A 
ATOM     11 BR   LIG    1       21.075 -21.571   4.371  0.00  0.00    -0.050 Br
ATOM     12  C   LIG    1       22.577 -19.245   4.705  0.00  0.00    +0.016 A 
ATOM     13  C   LIG    1       23.830 -18.645   4.653  0.00  0.00    +0.010 A 
ENDBRANCH   2   7
BRANCH   1  14
ATOM     14  N   LIG    1       27.325 -18.766   5.384  0.00  0.00    -0.189 N 
ATOM     15  H   LIG    1       26.524 -19.336   5.615  0.00  0.00    +0.176 HD
BRANCH  14  16
ATOM     16  S   LIG    1       28.830 -19.224   5.860  0.00  0.00    +0.110 S 
ATOM     17  O   LIG    1       29.469 -20.015   4.902  0.00  0.00    -0.138 OA
ATOM     18  O   LIG    1       29.466 -18.103   6.577  0.00  0.00    -0.138 OA
BRANCH  16  19
ATOM     19  N   LIG    1       28.393 -20.331   7.062  0.00  0.00    -0.177 NA
ATOM     20  H   LIG    1       27.654 -19.816   7.548  0.00  0.00    +0.149 HD
BRANCH  19  21
ATOM     21  C   LIG    1       27.756 -21.562   6.572  0.00  0.00    +0.107 C 
BRANCH  21  23
ATOM     22  C   LIG    1       25.254 -21.274   6.973  0.00  0.00    +0.005 C 
ATOM     23  C   LIG    1       26.390 -21.256   5.961  0.00  0.00    +0.013 C 
ENDBRANCH  21  23
ENDBRANCH  19  21
ENDBRANCH  16  19
ENDBRANCH  14  16
ENDBRANCH   1  14
BRANCH   3  24
ATOM     24  O   LIG    1       24.781 -15.585   2.661  0.00  0.00    -0.472 OA
BRANCH  24  25
ATOM     25  C   LIG    1       23.890 -15.018   3.570  0.00  0.00    +0.271 C 
BRANCH  25  26
ATOM     26  C   LIG    1       23.039 -13.817   3.371  0.00  0.00    +0.273 C 
BRANCH  26  27
ATOM     27  O   LIG    1       23.522 -12.577   3.865  0.00  0.00    -0.459 OA
BRANCH  27  28
ATOM     28  C   LIG    1       24.890 -12.444   4.010  0.00  0.00    +0.318 A 
ATOM     29  N   LIG    1       25.477 -12.568   5.221  0.00  0.00    -0.202 NA
ATOM     30  C   LIG    1       26.812 -12.760   5.250  0.00  0.00    +0.133 A 
ATOM     31  C   LIG    1       27.590 -12.595   4.140  0.00  0.00    +0.054 A 
ATOM     32 BR   LIG    1       29.458 -12.711   4.219  0.00  0.00    -0.047 Br
ATOM     33  C   LIG    1       26.901 -12.286   2.986  0.00  0.00    +0.133 A 
ATOM     34  N   LIG    1       25.554 -12.247   2.877  0.00  0.00    -0.202 NA
ENDBRANCH  27  28
ENDBRANCH  26  27
ENDBRANCH  25  26
ENDBRANCH  24  25
ENDBRANCH   3  24
TORSDOF 11
ENDMDL
MODEL 5
REMARK VINA RESULT:       5.6      1.047      1.676
REMARK  Name = *****
REMARK                            x       y       z     vdW  Elec       q    Type
REMARK                         _______ _______ _______ _____ _____    ______ ____
ROOT
ATOM      1  C   LIG    1       27.135 -15.422   3.715  0.00  0.00    +0.153 A 
ATOM      2  C   LIG    1       26.584 -16.661   4.062  0.00  0.00    +0.085 A 
ATOM      3  C   LIG    1       27.610 -17.557   4.507  0.00  0.00    +0.228 A 
ATOM      4  N   LIG    1       28.903 -17.199   4.673  0.00  0.00    -0.201 NA
ATOM      5  C   LIG    1       29.243 -15.954   4.376  0.00  0.00    +0.227 A 
ATOM      6  N   LIG    1       28.421 -15.041   3.864  0.00  0.00    -0.219 NA
ENDROOT
BRANCH   2   7
ATOM      7  C   LIG    1       25.081 -16.900   4.008  0.00  0.00    -0.009 A 
ATOM      8  C   LIG    1       23.982 -16.108   4.182  0.00  0.00    +0.010 A 
ATOM      9  C   LIG    1       22.631 -16.584   4.048  0.00  0.00    +0.016 A 
ATOM     10  C   LIG    1       22.337 -17.906   3.733  0.00  0.00    +0.018 A 
ATOM     11 BR   LIG    1       20.600 -18.547   3.444  0.00  0.00    -0.050 Br
ATOM     12  C   LIG    1       23.384 -18.688   3.414  0.00  0.00    +0.016 A 
ATOM     13  C   LIG    1       24.590 -17.997   3.374  0.00  0.00    +0.010 A 
ENDBRANCH   2   7
BRANCH   1  14
ATOM     14  N   LIG    1       26.415 -14.534   2.881  0.00  0.00    -0.189 N 
ATOM     15  H   LIG    1       25.858 -14.931   2.138  0.00  0.00    +0.176 HD
BRANCH  14  16
ATOM     16  S   LIG    1       26.199 -12.966   3.328  0.00  0.00    +0.110 S 
ATOM     17  O   LIG    1       26.179 -12.811   4.716  0.00  0.00    -0.138 OA
ATOM     18  O   LIG    1       26.950 -12.099   2.401  0.00  0.00    -0.138 OA
BRANCH  16  19
ATOM     19  N   LIG    1       24.577 -12.794   2.884  0.00  0.00    -0.177 NA
ATOM     20  H   LIG    1       24.221 -13.737   3.062  0.00  0.00    +0.149 HD
BRANCH  19  21
ATOM     21  C   LIG    1       23.786 -11.907   3.751  0.00  0.00    +0.107 C 
BRANCH  21  23
ATOM     22  C   LIG    1       23.590 -11.447   6.252  0.00  0.00    +0.005 C 
ATOM     23  C   LIG    1       23.657 -12.497   5.154  0.00  0.00    +0.013 C 
ENDBRANCH  21  23
ENDBRANCH  19  21
ENDBRANCH  16  19
ENDBRANCH  14  16
ENDBRANCH   1  14
BRANCH   3  24
ATOM     24  O   LIG    1       27.569 -18.906   4.767  0.00  0.00    -0.472 OA
BRANCH  24  25
ATOM     25  C   LIG    1       28.050 -19.314   6.009  0.00  0.00    +0.271 C 
BRANCH  25  26
ATOM     26  C   LIG    1       27.329 -20.103   7.041  0.00  0.00    +0.273 C 
BRANCH  26  27
ATOM     27  O   LIG    1       26.655 -21.279   6.621  0.00  0.00    -0.459 OA
BRANCH  27  28
ATOM     28  C   LIG    1       25.364 -21.134   6.148  0.00  0.00    +0.318 A 
ATOM     29  N   LIG    1       25.058 -21.411   4.861  0.00  0.00    -0.202 NA
ATOM     30  C   LIG    1       23.755 -21.572   4.551  0.00  0.00    +0.133 A 
ATOM     31  C   LIG    1       22.758 -21.234   5.421  0.00  0.00    +0.054 A 
ATOM     32 BR   LIG    1       20.952 -21.314   4.929  0.00  0.00    -0.047 Br
ATOM     33  C   LIG    1       23.187 -20.784   6.651  0.00  0.00    +0.133 A 
ATOM     34  N   LIG    1       24.475 -20.764   7.062  0.00  0.00    -0.202 NA
ENDBRANCH  27  28
ENDBRANCH  26  27
ENDBRANCH  25  26
ENDBRANCH  24  25
ENDBRANCH   3  24
TORSDOF 11
ENDMDL
MODEL 6
REMARK VINA RESULT:       5.7      2.620      6.791
REMARK  Name = *****
REMARK                            x       y       z     vdW  Elec       q    Type
REMARK                         _______ _______ _______ _____ _____    ______ ____
ROOT
ATOM      1  C   LIG    1       27.380 -18.306   4.514  0.00  0.00    +0.153 A 
ATOM      2  C   LIG    1       26.228 -17.737   3.959  0.00  0.00    +0.085 A 
ATOM      3  C   LIG    1       26.493 -16.397   3.525  0.00  0.00    +0.228 A 
ATOM      4  N   LIG    1       27.717 -15.825   3.550  0.00  0.00    -0.201 NA
ATOM      5  C   LIG    1       28.724 -16.538   4.033  0.00  0.00    +0.227 A 
ATOM      6  N   LIG    1       28.611 -17.756   4.557  0.00  0.00    -0.219 NA
ENDROOT
BRANCH   2   7
ATOM      7  C   LIG    1       24.942 -18.539   3.815  0.00  0.00    -0.009 A 
ATOM      8  C   LIG    1       24.658 -19.846   3.540  0.00  0.00    +0.010 A 
ATOM      9  C   LIG    1       23.321 -20.373   3.484  0.00  0.00    +0.016 A 
ATOM     10  C   LIG    1       22.200 -19.581   3.702  0.00  0.00    +0.018 A 
ATOM     11 BR   LIG    1       20.447 -20.243   3.745  0.00  0.00    -0.050 Br
ATOM     12  C   LIG    1       22.433 -18.322   4.117  0.00  0.00    +0.016 A 
ATOM     13  C   LIG    1       23.782 -18.060   4.335  0.00  0.00    +0.010 A 
ENDBRANCH   2   7
BRANCH   1  14
ATOM     14  N   LIG    1       27.276 -19.432   5.365  0.00  0.00    -0.189 N 
ATOM     15  H   LIG    1       26.420 -19.969   5.335  0.00  0.00    +0.176 HD
BRANCH  14  16
ATOM     16  S   LIG    1       28.615 -20.052   6.090  0.00  0.00    +0.110 S 
ATOM     17  O   LIG    1       29.411 -20.776   5.199  0.00  0.00    -0.138 OA
ATOM     18  O   LIG    1       29.129 -19.069   7.061  0.00  0.00    -0.138 OA
BRANCH  16  19
ATOM     19  N   LIG    1       27.871 -21.251   7.021  0.00  0.00    -0.177 NA
ATOM     20  H   LIG    1       27.799 -20.783   7.929  0.00  0.00    +0.149 HD
BRANCH  19  21
ATOM     21  C   LIG    1       26.488 -21.571   6.636  0.00  0.00    +0.107 C 
BRANCH  21  23
ATOM     22  C   LIG    1       24.068 -20.818   6.919  0.00  0.00    +0.005 C 
ATOM     23  C   LIG    1       25.538 -20.453   7.060  0.00  0.00    +0.013 C 
ENDBRANCH  21  23
ENDBRANCH  19  21
ENDBRANCH  16  19
ENDBRANCH  14  16
ENDBRANCH   1  14
BRANCH   3  24
ATOM     24  O   LIG    1       25.637 -15.409   3.099  0.00  0.00    -0.472 OA
BRANCH  24  25
ATOM     25  C   LIG    1       26.032 -14.687   1.975  0.00  0.00    +0.271 C 
BRANCH  25  26
ATOM     26  C   LIG    1       27.000 -13.561   1.920  0.00  0.00    +0.273 C 
BRANCH  26  27
ATOM     27  O   LIG    1       27.034 -12.665   3.020  0.00  0.00    -0.459 OA
BRANCH  27  28
ATOM     28  C   LIG    1       25.887 -12.559   3.785  0.00  0.00    +0.318 A 
ATOM     29  N   LIG    1       25.908 -12.821   5.111  0.00  0.00    -0.202 NA
ATOM     30  C   LIG    1       24.866 -12.385   5.848  0.00  0.00    +0.133 A 
ATOM     31  C   LIG    1       23.720 -11.917   5.273  0.00  0.00    +0.054 A 
ATOM     32 BR   LIG    1       22.220 -11.457   6.298  0.00  0.00    -0.047 Br
ATOM     33  C   LIG    1       23.739 -11.863   3.896  0.00  0.00    +0.133 A 
ATOM     34  N   LIG    1       24.817 -12.132   3.126  0.00  0.00    -0.202 NA
ENDBRANCH  27  28
ENDBRANCH  26  27
ENDBRANCH  25  26
ENDBRANCH  24  25
ENDBRANCH   3  24
TORSDOF 11
ENDMDL
MODEL 7
REMARK VINA RESULT:       6.0      1.852      2.241
REMARK  Name = *****
REMARK                            x       y       z     vdW  Elec       q    Type
REMARK                         _______ _______ _______ _____ _____    ______ ____
ROOT
ATOM      1  C   LIG    1       26.386 -14.208   3.419  0.00  0.00    +0.153 A 
ATOM      2  C   LIG    1       26.553 -15.585   3.606  0.00  0.00    +0.085 A 
ATOM      3  C   LIG    1       27.925 -15.889   3.890  0.00  0.00    +0.228 A 
ATOM      4  N   LIG    1       28.882 -14.952   4.066  0.00  0.00    -0.201 NA
ATOM      5  C   LIG    1       28.536 -13.680   3.936  0.00  0.00    +0.227 A 
ATOM      6  N   LIG    1       27.326 -13.253   3.582  0.00  0.00    -0.219 NA
ENDROOT
BRANCH   2   7
ATOM      7  C   LIG    1       25.365 -16.537   3.564  0.00  0.00    -0.009 A 
ATOM      8  C   LIG    1       25.222 -17.876   3.335  0.00  0.00    +0.010 A 
ATOM      9  C   LIG    1       23.957 -18.558   3.378  0.00  0.00    +0.016 A 
ATOM     10  C   LIG    1       22.765 -17.897   3.652  0.00  0.00    +0.018 A 
ATOM     11 BR   LIG    1       21.110 -18.759   3.823  0.00  0.00    -0.050 Br
ATOM     12  C   LIG    1       22.872 -16.608   4.023  0.00  0.00    +0.016 A 
ATOM     13  C   LIG    1       24.190 -16.183   4.148  0.00  0.00    +0.010 A 
ENDBRANCH   2   7
BRANCH   1  14
ATOM     14  N   LIG    1       25.247 -13.717   2.739  0.00  0.00    -0.189 N 
ATOM     15  H   LIG    1       24.880 -14.266   1.976  0.00  0.00    +0.176 HD
BRANCH  14  16
ATOM     16  S   LIG    1       24.347 -12.507   3.394  0.00  0.00    +0.110 S 
ATOM     17  O   LIG    1       24.869 -12.060   4.610  0.00  0.00    -0.138 OA
ATOM     18  O   LIG    1       23.875 -11.624   2.312  0.00  0.00    -0.138 OA
BRANCH  16  19
ATOM     19  N   LIG    1       22.994 -13.412   3.853  0.00  0.00    -0.177 NA
ATOM     20  H   LIG    1       23.381 -14.360   3.859  0.00  0.00    +0.149 HD
BRANCH  19  21
ATOM     21  C   LIG    1       22.521 -13.174   5.224  0.00  0.00    +0.107 C 
BRANCH  21  23
ATOM     22  C   LIG    1       21.453 -14.818   6.855  0.00  0.00    +0.005 C 
ATOM     23  C   LIG    1       22.703 -14.423   6.083  0.00  0.00    +0.013 C 
ENDBRANCH  21  23
ENDBRANCH  19  21
ENDBRANCH  16  19
ENDBRANCH  14  16
ENDBRANCH   1  14
BRANCH   3  24
ATOM     24  O   LIG    1       28.578 -17.096   3.961  0.00  0.00    -0.472 OA
BRANCH  24  25
ATOM     25  C   LIG    1       28.771 -17.624   5.235  0.00  0.00    +0.271 C 
BRANCH  25  26
ATOM     26  C   LIG    1       29.472 -18.884   5.593  0.00  0.00    +0.273 C 
BRANCH  26  27
ATOM     27  O   LIG    1       28.890 -19.702   6.596  0.00  0.00    -0.459 OA
BRANCH  27  28
ATOM     28  C   LIG    1       27.661 -20.270   6.315  0.00  0.00    +0.318 A 
ATOM     29  N   LIG    1       27.178 -21.288   7.061  0.00  0.00    -0.202 NA
ATOM     30  C   LIG    1       25.863 -21.570   6.955  0.00  0.00    +0.133 A 
ATOM     31  C   LIG    1       25.087 -21.031   5.969  0.00  0.00    +0.054 A 
ATOM     32 BR   LIG    1       23.300 -21.543   5.732  0.00  0.00    -0.047 Br
ATOM     33  C   LIG    1       25.732 -20.136   5.143  0.00  0.00    +0.133 A 
ATOM     34  N   LIG    1       27.000 -19.701   5.315  0.00  0.00    -0.202 NA
ENDBRANCH  27  28
ENDBRANCH  26  27
ENDBRANCH  25  26
ENDBRANCH  24  25
ENDBRANCH   3  24
TORSDOF 11
ENDMDL
