MODEL 1
REMARK VINA RESULT:      -5.3      0.000      0.000
REMARK  Name = *****
REMARK                            x       y       z     vdW  Elec       q    Type
REMARK                         _______ _______ _______ _____ _____    ______ ____
ROOT
ATOM      1  C   LIG    1       31.529 -18.603   8.865  0.00  0.00    +0.074 C 
ENDROOT
BRANCH   1   2
ATOM      2  N   LIG    1       32.270 -17.480   8.293  0.00  0.00    -0.324 NA
ATOM      3  H   LIG    1       32.702 -16.954   9.052  0.00  0.00    +0.119 HD
ATOM      4  H   LIG    1       33.037 -17.820   7.718  0.00  0.00    +0.119 HD
ENDBRANCH   1   2
BRANCH   1   6
ATOM      5  C   LIG    1       30.369 -17.275  10.660  0.00  0.00    +0.005 C 
ATOM      6  C   LIG    1       30.319 -18.068   9.579  0.00  0.00    -0.016 C 
ENDBRANCH   1   6
BRANCH   1   7
ATOM      7  C   LIG    1       31.144 -19.593   7.747  0.00  0.00    +0.034 C 
BRANCH   7   8
ATOM      8  C   LIG    1       30.321 -20.790   8.232  0.00  0.00    +0.122 C 
BRANCH   8   9
ATOM      9  C   LIG    1       31.133 -21.736   9.086  0.00  0.00    +0.305 C 
ATOM     10  O   LIG    1       30.869 -22.028  10.239  0.00  0.00    -0.251 OA
BRANCH   9  11
ATOM     11  O   LIG    1       32.233 -22.202   8.454  0.00  0.00    -0.481 OA
ATOM     12  H   LIG    1       33.052 -22.142   8.979  0.00  0.00    +0.295 HD
ENDBRANCH   9  11
ENDBRANCH   8   9
ENDBRANCH   7   8
ENDBRANCH   1   7
TORSDOF 6
ENDMDL
MODEL 2
REMARK VINA RESULT:      -5.2      2.646      3.923
REMARK  Name = *****
REMARK                            x       y       z     vdW  Elec       q    Type
REMARK                         _______ _______ _______ _____ _____    ______ ____
ROOT
ATOM      1  C   LIG    1       31.288 -19.583   8.075  0.00  0.00    +0.074 C 
ENDROOT
BRANCH   1   2
ATOM      2  N   LIG    1       31.878 -20.410   9.127  0.00  0.00    -0.324 NA
ATOM      3  H   LIG    1       31.129 -20.905   9.612  0.00  0.00    +0.119 HD
ATOM      4  H   LIG    1       32.469 -21.130   8.718  0.00  0.00    +0.119 HD
ENDBRANCH   1   2
BRANCH   1   6
ATOM      5  C   LIG    1       29.268 -20.185   6.699  0.00  0.00    +0.005 C 
ATOM      6  C   LIG    1       29.852 -19.990   7.891  0.00  0.00    -0.016 C 
ENDBRANCH   1   6
BRANCH   1   7
ATOM      7  C   LIG    1       31.419 -18.094   8.451  0.00  0.00    +0.034 C 
BRANCH   7   8
ATOM      8  C   LIG    1       30.218 -17.538   9.220  0.00  0.00    +0.122 C 
BRANCH   8   9
ATOM      9  C   LIG    1       30.446 -17.533  10.713  0.00  0.00    +0.305 C 
ATOM     10  O   LIG    1       30.731 -18.517  11.374  0.00  0.00    -0.251 OA
BRANCH   9  11
ATOM     11  O   LIG    1       30.251 -16.318  11.272  0.00  0.00    -0.481 OA
ATOM     12  H   LIG    1       29.637 -16.319  12.030  0.00  0.00    +0.295 HD
ENDBRANCH   9  11
ENDBRANCH   8   9
ENDBRANCH   7   8
ENDBRANCH   1   7
TORSDOF 6
ENDMDL
MODEL 3
REMARK VINA RESULT:      -5.2      3.012      3.905
REMARK  Name = *****
REMARK                            x       y       z     vdW  Elec       q    Type
REMARK                         _______ _______ _______ _____ _____    ______ ____
ROOT
ATOM      1  C   LIG    1       29.216 -20.660   7.226  0.00  0.00    +0.074 C 
ENDROOT
BRANCH   1   2
ATOM      2  N   LIG    1       29.898 -21.425   8.268  0.00  0.00    -0.324 NA
ATOM      3  H   LIG    1       29.255 -21.562   9.048  0.00  0.00    +0.119 HD
ATOM      4  H   LIG    1       30.126 -22.357   7.929  0.00  0.00    +0.119 HD
ENDBRANCH   1   2
BRANCH   1   6
ATOM      5  C   LIG    1       26.709 -20.492   7.077  0.00  0.00    +0.005 C 
ATOM      6  C   LIG    1       27.857 -20.263   7.732  0.00  0.00    -0.016 C 
ENDBRANCH   1   6
BRANCH   1   7
ATOM      7  C   LIG    1       30.067 -19.433   6.842  0.00  0.00    +0.034 C 
BRANCH   7   8
ATOM      8  C   LIG    1       30.241 -18.418   7.974  0.00  0.00    +0.122 C 
BRANCH   8   9
ATOM      9  C   LIG    1       31.636 -18.438   8.553  0.00  0.00    +0.305 C 
ATOM     10  O   LIG    1       32.103 -19.355   9.207  0.00  0.00    -0.251 OA
BRANCH   9  11
ATOM     11  O   LIG    1       32.321 -17.297   8.315  0.00  0.00    -0.481 OA
ATOM     12  H   LIG    1       31.757 -16.515   8.169  0.00  0.00    +0.295 HD
ENDBRANCH   9  11
ENDBRANCH   8   9
ENDBRANCH   7   8
ENDBRANCH   1   7
TORSDOF 6
ENDMDL
MODEL 4
REMARK VINA RESULT:      -5.1      8.247      8.853
REMARK  Name = *****
REMARK                            x       y       z     vdW  Elec       q    Type
REMARK                         _______ _______ _______ _____ _____    ______ ____
ROOT
ATOM      1  C   LIG    1       23.820 -20.633   5.930  0.00  0.00    +0.074 C 
ENDROOT
BRANCH   1   2
ATOM      2  N   LIG    1       24.680 -21.287   4.944  0.00  0.00    -0.324 NA
ATOM      3  H   LIG    1       24.602 -22.297   5.062  0.00  0.00    +0.119 HD
ATOM      4  H   LIG    1       24.348 -21.090   4.002  0.00  0.00    +0.119 HD
ENDBRANCH   1   2
BRANCH   1   6
ATOM      5  C   LIG    1       22.378 -18.930   4.768  0.00  0.00    +0.005 C 
ATOM      6  C   LIG    1       22.566 -20.170   5.243  0.00  0.00    -0.016 C 
ENDBRANCH   1   6
BRANCH   1   7
ATOM      7  C   LIG    1       23.516 -21.611   7.082  0.00  0.00    +0.034 C 
BRANCH   7   8
ATOM      8  C   LIG    1       24.246 -22.952   6.968  0.00  0.00    +0.122 C 
BRANCH   8   9
ATOM      9  C   LIG    1       23.302 -24.097   6.684  0.00  0.00    +0.305 C 
ATOM     10  O   LIG    1       23.647 -25.252   6.505  0.00  0.00    -0.251 OA
BRANCH   9  11
ATOM     11  O   LIG    1       22.011 -23.705   6.595  0.00  0.00    -0.481 OA
ATOM     12  H   LIG    1       21.621 -23.416   7.441  0.00  0.00    +0.295 HD
ENDBRANCH   9  11
ENDBRANCH   8   9
ENDBRANCH   7   8
ENDBRANCH   1   7
TORSDOF 6
ENDMDL
MODEL 5
REMARK VINA RESULT:      -5.0      2.230      3.125
REMARK  Name = *****
REMARK                            x       y       z     vdW  Elec       q    Type
REMARK                         _______ _______ _______ _____ _____    ______ ____
ROOT
ATOM      1  C   LIG    1       29.487 -18.928   6.495  0.00  0.00    +0.074 C 
ENDROOT
BRANCH   1   2
ATOM      2  N   LIG    1       29.673 -18.084   5.316  0.00  0.00    -0.324 NA
ATOM      3  H   LIG    1       29.040 -17.287   5.381  0.00  0.00    +0.119 HD
ATOM      4  H   LIG    1       30.612 -17.693   5.307  0.00  0.00    +0.119 HD
ENDBRANCH   1   2
BRANCH   1   6
ATOM      5  C   LIG    1       27.490 -20.384   6.969  0.00  0.00    +0.005 C 
ATOM      6  C   LIG    1       28.495 -20.007   6.164  0.00  0.00    -0.016 C 
ENDBRANCH   1   6
BRANCH   1   7
ATOM      7  C   LIG    1       30.845 -19.512   6.935  0.00  0.00    +0.034 C 
BRANCH   7   8
ATOM      8  C   LIG    1       31.047 -19.543   8.452  0.00  0.00    +0.122 C 
BRANCH   8   9
ATOM      9  C   LIG    1       31.190 -20.950   8.983  0.00  0.00    +0.305 C 
ATOM     10  O   LIG    1       32.228 -21.428   9.408  0.00  0.00    -0.251 OA
BRANCH   9  11
ATOM     11  O   LIG    1       30.045 -21.664   8.896  0.00  0.00    -0.481 OA
ATOM     12  H   LIG    1       29.396 -21.467   9.597  0.00  0.00    +0.295 HD
ENDBRANCH   9  11
ENDBRANCH   8   9
ENDBRANCH   7   8
ENDBRANCH   1   7
TORSDOF 6
ENDMDL
MODEL 6
REMARK VINA RESULT:      -5.0      6.730      7.399
REMARK  Name = *****
REMARK                            x       y       z     vdW  Elec       q    Type
REMARK                         _______ _______ _______ _____ _____    ______ ____
ROOT
ATOM      1  C   LIG    1       24.023 -20.593   5.364  0.00  0.00    +0.074 C 
ENDROOT
BRANCH   1   2
ATOM      2  N   LIG    1       23.899 -21.876   4.673  0.00  0.00    -0.324 NA
ATOM      3  H   LIG    1       24.246 -21.768   3.720  0.00  0.00    +0.119 HD
ATOM      4  H   LIG    1       24.499 -22.571   5.111  0.00  0.00    +0.119 HD
ENDBRANCH   1   2
BRANCH   1   6
ATOM      5  C   LIG    1       22.370 -18.824   4.677  0.00  0.00    +0.005 C 
ATOM      6  C   LIG    1       22.677 -19.924   5.382  0.00  0.00    -0.016 C 
ENDBRANCH   1   6
BRANCH   1   7
ATOM      7  C   LIG    1       24.569 -20.822   6.788  0.00  0.00    +0.034 C 
BRANCH   7   8
ATOM      8  C   LIG    1       26.074 -20.578   6.923  0.00  0.00    +0.122 C 
BRANCH   8   9
ATOM      9  C   LIG    1       26.559 -20.754   8.343  0.00  0.00    +0.305 C 
ATOM     10  O   LIG    1       25.896 -20.511   9.337  0.00  0.00    -0.251 OA
BRANCH   9  11
ATOM     11  O   LIG    1       27.843 -21.169   8.413  0.00  0.00    -0.481 OA
ATOM     12  H   LIG    1       27.999 -22.054   8.032  0.00  0.00    +0.295 HD
ENDBRANCH   9  11
ENDBRANCH   8   9
ENDBRANCH   7   8
ENDBRANCH   1   7
TORSDOF 6
ENDMDL
MODEL 7
REMARK VINA RESULT:      -4.9      1.791      2.492
REMARK  Name = *****
REMARK                            x       y       z     vdW  Elec       q    Type
REMARK                         _______ _______ _______ _____ _____    ______ ____
ROOT
ATOM      1  C   LIG    1       31.865 -16.986   9.727  0.00  0.00    +0.074 C 
ENDROOT
BRANCH   1   2
ATOM      2  N   LIG    1       32.664 -16.125   8.856  0.00  0.00    -0.324 NA
ATOM      3  H   LIG    1       32.871 -15.259   9.353  0.00  0.00    +0.119 HD
ATOM      4  H   LIG    1       33.565 -16.557   8.664  0.00  0.00    +0.119 HD
ENDBRANCH   1   2
BRANCH   1   6
ATOM      5  C   LIG    1       31.857 -16.887  12.242  0.00  0.00    +0.005 C 
ATOM      6  C   LIG    1       31.684 -16.296  11.051  0.00  0.00    -0.016 C 
ENDBRANCH   1   6
BRANCH   1   7
ATOM      7  C   LIG    1       30.515 -17.297   9.052  0.00  0.00    +0.034 C 
BRANCH   7   8
ATOM      8  C   LIG    1       30.230 -18.793   8.891  0.00  0.00    +0.122 C 
BRANCH   8   9
ATOM      9  C   LIG    1       31.416 -19.546   8.336  0.00  0.00    +0.305 C 
ATOM     10  O   LIG    1       31.782 -19.502   7.174  0.00  0.00    -0.251 OA
BRANCH   9  11
ATOM     11  O   LIG    1       32.019 -20.331   9.256  0.00  0.00    -0.481 OA
ATOM     12  H   LIG    1       32.764 -20.856   8.908  0.00  0.00    +0.295 HD
ENDBRANCH   9  11
ENDBRANCH   8   9
ENDBRANCH   7   8
ENDBRANCH   1   7
TORSDOF 6
ENDMDL
MODEL 8
REMARK VINA RESULT:      -4.9      6.972      7.546
REMARK  Name = *****
REMARK                            x       y       z     vdW  Elec       q    Type
REMARK                         _______ _______ _______ _____ _____    ______ ____
ROOT
ATOM      1  C   LIG    1       25.104 -21.975   7.959  0.00  0.00    +0.074 C 
ENDROOT
BRANCH   1   2
ATOM      2  N   LIG    1       25.658 -21.416   9.192  0.00  0.00    -0.324 NA
ATOM      3  H   LIG    1       25.541 -20.403   9.172  0.00  0.00    +0.119 HD
ATOM      4  H   LIG    1       25.128 -21.742   9.996  0.00  0.00    +0.119 HD
ENDBRANCH   1   2
BRANCH   1   6
ATOM      5  C   LIG    1       23.317 -20.678   6.753  0.00  0.00    +0.005 C 
ATOM      6  C   LIG    1       24.601 -20.847   7.102  0.00  0.00    -0.016 C 
ENDBRANCH   1   6
BRANCH   1   7
ATOM      7  C   LIG    1       26.182 -22.809   7.238  0.00  0.00    +0.034 C 
BRANCH   7   8
ATOM      8  C   LIG    1       25.791 -24.272   7.015  0.00  0.00    +0.122 C 
BRANCH   8   9
ATOM      9  C   LIG    1       24.594 -24.413   6.104  0.00  0.00    +0.305 C 
ATOM     10  O   LIG    1       23.554 -24.974   6.407  0.00  0.00    -0.251 OA
BRANCH   9  11
ATOM     11  O   LIG    1       24.803 -23.891   4.875  0.00  0.00    -0.481 OA
ATOM     12  H   LIG    1       25.643 -24.164   4.462  0.00  0.00    +0.295 HD
ENDBRANCH   9  11
ENDBRANCH   8   9
ENDBRANCH   7   8
ENDBRANCH   1   7
TORSDOF 6
ENDMDL
MODEL 9
REMARK VINA RESULT:      -4.8      3.387      4.193
REMARK  Name = *****
REMARK                            x       y       z     vdW  Elec       q    Type
REMARK                         _______ _______ _______ _____ _____    ______ ____
ROOT
ATOM      1  C   LIG    1       27.683 -20.071   6.546  0.00  0.00    +0.074 C 
ENDROOT
BRANCH   1   2
ATOM      2  N   LIG    1       27.206 -20.262   5.177  0.00  0.00    -0.324 NA
ATOM      3  H   LIG    1       27.300 -21.248   4.933  0.00  0.00    +0.119 HD
ATOM      4  H   LIG    1       26.212 -20.054   5.119  0.00  0.00    +0.119 HD
ENDBRANCH   1   2
BRANCH   1   6
ATOM      5  C   LIG    1       26.059 -20.600   8.394  0.00  0.00    +0.005 C 
ATOM      6  C   LIG    1       26.927 -21.001   7.453  0.00  0.00    -0.016 C 
ENDBRANCH   1   6
BRANCH   1   7
ATOM      7  C   LIG    1       29.203 -20.321   6.605  0.00  0.00    +0.034 C 
BRANCH   7   8
ATOM      8  C   LIG    1       29.791 -20.252   8.018  0.00  0.00    +0.122 C 
BRANCH   8   9
ATOM      9  C   LIG    1       31.257 -19.890   8.012  0.00  0.00    +0.305 C 
ATOM     10  O   LIG    1       31.858 -19.448   7.048  0.00  0.00    -0.251 OA
BRANCH   9  11
ATOM     11  O   LIG    1       31.869 -20.155   9.188  0.00  0.00    -0.481 OA
ATOM     12  H   LIG    1       32.749 -19.745   9.283  0.00  0.00    +0.295 HD
ENDBRANCH   9  11
ENDBRANCH   8   9
ENDBRANCH   7   8
ENDBRANCH   1   7
TORSDOF 6
ENDMDL
