MODEL 1
REMARK VINA RESULT:      -0.7      0.000      0.000
REMARK  Name = *****
REMARK                            x       y       z     vdW  Elec       q    Type
REMARK                         _______ _______ _______ _____ _____    ______ ____
ROOT
ATOM      1  N   LIG    1       25.558 -15.635   3.472  0.00  0.00    -0.299 N 
ATOM      2  C   LIG    1       24.785 -16.818   3.655  0.00  0.00    +0.037 A 
ATOM      3  C   LIG    1       23.504 -16.894   4.255  0.00  0.00    -0.026 A 
ATOM      4  C   LIG    1       22.870 -18.154   4.351  0.00  0.00    +0.005 A 
ATOM      5  C   LIG    1       23.477 -19.323   3.909  0.00  0.00    +0.000 A 
ATOM      6  C   LIG    1       24.713 -19.246   3.274  0.00  0.00    +0.002 A 
ATOM      7  C   LIG    1       22.697 -15.711   4.742  0.00  0.00    +0.041 C 
ATOM      8  C   LIG    1       23.472 -14.519   5.295  0.00  0.00    +0.041 C 
ATOM      9  C   LIG    1       24.078 -13.740   4.160  0.00  0.00    -0.026 A 
ATOM     10  C   LIG    1       23.659 -12.416   3.935  0.00  0.00    +0.005 A 
ATOM     11  C   LIG    1       24.027 -11.751   2.765  0.00  0.00    +0.000 A 
ATOM     12  C   LIG    1       24.798 -12.401   1.812  0.00  0.00    +0.002 A 
ATOM     13  C   LIG    1       25.278 -13.688   2.063  0.00  0.00    +0.024 A 
ATOM     14  C   LIG    1       25.316 -18.004   3.113  0.00  0.00    +0.024 A 
ATOM     15  C   LIG    1       24.958 -14.357   3.256  0.00  0.00    +0.037 A 
ENDROOT
BRANCH   1  16
ATOM     16  C   LIG    1       26.663 -15.486   4.500  0.00  0.00    +0.115 C 
BRANCH  16  18
ATOM     17  C   LIG    1       26.997 -13.570   6.210  0.00  0.00    +0.010 C 
ATOM     18  C   LIG    1       27.169 -14.038   4.753  0.00  0.00    +0.018 C 
BRANCH  18  19
ATOM     19  C   LIG    1       28.669 -13.856   4.376  0.00  0.00    +0.088 C 
BRANCH  19  20
ATOM     20  N   LIG    1       29.070 -12.538   3.851  0.00  0.00    -0.308 NA
ATOM     21  C   LIG    1       29.384 -11.635   4.965  0.00  0.00    +0.104 C 
ATOM     22  C   LIG    1       28.036 -11.936   3.008  0.00  0.00    +0.104 C 
ENDBRANCH  19  20
ENDBRANCH  18  19
ENDBRANCH  16  18
ENDBRANCH   1  16
TORSDOF 4
ENDMDL
MODEL 2
REMARK VINA RESULT:       0.9      3.022      5.796
REMARK  Name = *****
REMARK                            x       y       z     vdW  Elec       q    Type
REMARK                         _______ _______ _______ _____ _____    ______ ____
ROOT
ATOM      1  N   LIG    1       25.894 -19.242   4.473  0.00  0.00    -0.299 N 
ATOM      2  C   LIG    1       26.992 -19.684   5.268  0.00  0.00    +0.037 A 
ATOM      3  C   LIG    1       26.917 -20.547   6.388  0.00  0.00    -0.026 A 
ATOM      4  C   LIG    1       28.110 -20.894   7.062  0.00  0.00    +0.005 A 
ATOM      5  C   LIG    1       29.348 -20.387   6.683  0.00  0.00    +0.000 A 
ATOM      6  C   LIG    1       29.432 -19.579   5.553  0.00  0.00    +0.002 A 
ATOM      7  C   LIG    1       25.658 -21.214   6.894  0.00  0.00    +0.041 C 
ATOM      8  C   LIG    1       24.348 -20.448   6.727  0.00  0.00    +0.041 C 
ATOM      9  C   LIG    1       23.904 -20.517   5.291  0.00  0.00    -0.026 A 
ATOM     10  C   LIG    1       22.699 -21.171   4.976  0.00  0.00    +0.005 A 
ATOM     11  C   LIG    1       22.376 -21.450   3.648  0.00  0.00    +0.000 A 
ATOM     12  C   LIG    1       23.253 -21.093   2.633  0.00  0.00    +0.002 A 
ATOM     13  C   LIG    1       24.414 -20.378   2.933  0.00  0.00    +0.024 A 
ATOM     14  C   LIG    1       28.274 -19.286   4.842  0.00  0.00    +0.024 A 
ATOM     15  C   LIG    1       24.733 -20.047   4.261  0.00  0.00    +0.037 A 
ENDROOT
BRANCH   1  16
ATOM     16  C   LIG    1       25.452 -17.831   4.809  0.00  0.00    +0.115 C 
BRANCH  16  18
ATOM     17  C   LIG    1       24.048 -15.910   3.787  0.00  0.00    +0.010 C 
ATOM     18  C   LIG    1       25.231 -16.878   3.600  0.00  0.00    +0.018 C 
BRANCH  18  19
ATOM     19  C   LIG    1       26.491 -16.023   3.276  0.00  0.00    +0.088 C 
BRANCH  19  20
ATOM     20  N   LIG    1       26.399 -14.574   3.535  0.00  0.00    -0.308 NA
ATOM     21  C   LIG    1       26.534 -13.835   2.274  0.00  0.00    +0.104 C 
ATOM     22  C   LIG    1       27.412 -14.112   4.485  0.00  0.00    +0.104 C 
ENDBRANCH  19  20
ENDBRANCH  18  19
ENDBRANCH  16  18
ENDBRANCH   1  16
TORSDOF 4
ENDMDL
MODEL 3
REMARK VINA RESULT:       1.1      2.427      3.935
REMARK  Name = *****
REMARK                            x       y       z     vdW  Elec       q    Type
REMARK                         _______ _______ _______ _____ _____    ______ ____
ROOT
ATOM      1  N   LIG    1       25.990 -16.846   3.534  0.00  0.00    -0.299 N 
ATOM      2  C   LIG    1       24.928 -17.796   3.577  0.00  0.00    +0.037 A 
ATOM      3  C   LIG    1       23.604 -17.548   4.014  0.00  0.00    -0.026 A 
ATOM      4  C   LIG    1       22.668 -18.607   3.983  0.00  0.00    +0.005 A 
ATOM      5  C   LIG    1       23.013 -19.889   3.574  0.00  0.00    +0.000 A 
ATOM      6  C   LIG    1       24.300 -20.124   3.098  0.00  0.00    +0.002 A 
ATOM      7  C   LIG    1       23.063 -16.202   4.443  0.00  0.00    +0.041 C 
ATOM      8  C   LIG    1       24.036 -15.249   5.131  0.00  0.00    +0.041 C 
ATOM      9  C   LIG    1       24.957 -14.642   4.108  0.00  0.00    -0.026 A 
ATOM     10  C   LIG    1       24.915 -13.254   3.884  0.00  0.00    +0.005 A 
ATOM     11  C   LIG    1       25.584 -12.696   2.795  0.00  0.00    +0.000 A 
ATOM     12  C   LIG    1       26.282 -13.515   1.919  0.00  0.00    +0.002 A 
ATOM     13  C   LIG    1       26.389 -14.883   2.177  0.00  0.00    +0.024 A 
ATOM     14  C   LIG    1       25.210 -19.075   3.059  0.00  0.00    +0.024 A 
ATOM     15  C   LIG    1       25.762 -15.456   3.296  0.00  0.00    +0.037 A 
ENDROOT
BRANCH   1  16
ATOM     16  C   LIG    1       26.956 -16.988   4.695  0.00  0.00    +0.115 C 
BRANCH  16  18
ATOM     17  C   LIG    1       29.312 -17.841   5.350  0.00  0.00    +0.010 C 
ATOM     18  C   LIG    1       28.016 -18.119   4.566  0.00  0.00    +0.018 C 
BRANCH  18  19
ATOM     19  C   LIG    1       27.472 -19.501   5.033  0.00  0.00    +0.088 C 
BRANCH  19  20
ATOM     20  N   LIG    1       27.657 -19.845   6.455  0.00  0.00    -0.308 NA
ATOM     21  C   LIG    1       28.742 -20.825   6.592  0.00  0.00    +0.104 C 
ATOM     22  C   LIG    1       26.436 -20.378   7.062  0.00  0.00    +0.104 C 
ENDBRANCH  19  20
ENDBRANCH  18  19
ENDBRANCH  16  18
ENDBRANCH   1  16
TORSDOF 4
ENDMDL
MODEL 4
REMARK VINA RESULT:       1.5      1.558      2.578
REMARK  Name = *****
REMARK                            x       y       z     vdW  Elec       q    Type
REMARK                         _______ _______ _______ _____ _____    ______ ____
ROOT
ATOM      1  N   LIG    1       25.223 -15.452   3.575  0.00  0.00    -0.299 N 
ATOM      2  C   LIG    1       24.345 -16.548   3.819  0.00  0.00    +0.037 A 
ATOM      3  C   LIG    1       23.083 -16.480   4.458  0.00  0.00    -0.026 A 
ATOM      4  C   LIG    1       22.333 -17.668   4.614  0.00  0.00    +0.005 A 
ATOM      5  C   LIG    1       22.810 -18.904   4.195  0.00  0.00    +0.000 A 
ATOM      6  C   LIG    1       24.028 -18.968   3.523  0.00  0.00    +0.002 A 
ATOM      7  C   LIG    1       22.409 -15.209   4.926  0.00  0.00    +0.041 C 
ATOM      8  C   LIG    1       23.313 -14.082   5.417  0.00  0.00    +0.041 C 
ATOM      9  C   LIG    1       23.955 -13.401   4.239  0.00  0.00    -0.026 A 
ATOM     10  C   LIG    1       23.659 -12.050   3.981  0.00  0.00    +0.005 A 
ATOM     11  C   LIG    1       24.053 -11.461   2.780  0.00  0.00    +0.000 A 
ATOM     12  C   LIG    1       24.728 -12.213   1.829  0.00  0.00    +0.002 A 
ATOM     13  C   LIG    1       25.089 -13.532   2.110  0.00  0.00    +0.024 A 
ATOM     14  C   LIG    1       24.743 -17.797   3.304  0.00  0.00    +0.024 A 
ATOM     15  C   LIG    1       24.743 -14.129   3.333  0.00  0.00    +0.037 A 
ENDROOT
BRANCH   1  16
ATOM     16  C   LIG    1       26.368 -15.380   4.567  0.00  0.00    +0.115 C 
BRANCH  16  18
ATOM     17  C   LIG    1       28.393 -14.049   3.652  0.00  0.00    +0.010 C 
ATOM     18  C   LIG    1       27.800 -15.436   3.962  0.00  0.00    +0.018 C 
BRANCH  18  19
ATOM     19  C   LIG    1       28.809 -16.182   4.885  0.00  0.00    +0.088 C 
BRANCH  19  20
ATOM     20  N   LIG    1       28.941 -17.637   4.689  0.00  0.00    -0.308 NA
ATOM     21  C   LIG    1       27.637 -18.212   4.337  0.00  0.00    +0.104 C 
ATOM     22  C   LIG    1       29.470 -18.313   5.876  0.00  0.00    +0.104 C 
ENDBRANCH  19  20
ENDBRANCH  18  19
ENDBRANCH  16  18
ENDBRANCH   1  16
TORSDOF 4
ENDMDL
MODEL 5
REMARK VINA RESULT:       2.1      2.739      6.227
REMARK  Name = *****
REMARK                            x       y       z     vdW  Elec       q    Type
REMARK                         _______ _______ _______ _____ _____    ______ ____
ROOT
ATOM      1  N   LIG    1       25.208 -18.383   4.147  0.00  0.00    -0.299 N 
ATOM      2  C   LIG    1       26.406 -18.832   4.777  0.00  0.00    +0.037 A 
ATOM      3  C   LIG    1       27.644 -18.144   4.801  0.00  0.00    -0.026 A 
ATOM      4  C   LIG    1       28.736 -18.730   5.481  0.00  0.00    +0.005 A 
ATOM      5  C   LIG    1       28.644 -19.975   6.094  0.00  0.00    +0.000 A 
ATOM      6  C   LIG    1       27.417 -20.631   6.113  0.00  0.00    +0.002 A 
ATOM      7  C   LIG    1       27.890 -16.768   4.224  0.00  0.00    +0.041 C 
ATOM      8  C   LIG    1       27.094 -16.382   2.980  0.00  0.00    +0.041 C 
ATOM      9  C   LIG    1       25.679 -16.053   3.369  0.00  0.00    -0.026 A 
ATOM     10  C   LIG    1       25.199 -14.745   3.174  0.00  0.00    +0.005 A 
ATOM     11  C   LIG    1       23.981 -14.352   3.728  0.00  0.00    +0.000 A 
ATOM     12  C   LIG    1       23.244 -15.251   4.488  0.00  0.00    +0.002 A 
ATOM     13  C   LIG    1       23.679 -16.571   4.623  0.00  0.00    +0.024 A 
ATOM     14  C   LIG    1       26.318 -20.032   5.507  0.00  0.00    +0.024 A 
ATOM     15  C   LIG    1       24.879 -16.998   4.032  0.00  0.00    +0.037 A 
ENDROOT
BRANCH   1  16
ATOM     16  C   LIG    1       24.956 -19.055   2.811  0.00  0.00    +0.115 C 
BRANCH  16  18
ATOM     17  C   LIG    1       24.358 -21.572   2.937  0.00  0.00    +0.010 C 
ATOM     18  C   LIG    1       23.834 -20.132   2.789  0.00  0.00    +0.018 C 
BRANCH  18  19
ATOM     19  C   LIG    1       22.768 -19.904   3.902  0.00  0.00    +0.088 C 
BRANCH  19  20
ATOM     20  N   LIG    1       22.718 -20.896   4.991  0.00  0.00    -0.308 NA
ATOM     21  C   LIG    1       21.415 -21.571   4.989  0.00  0.00    +0.104 C 
ATOM     22  C   LIG    1       22.957 -20.294   6.304  0.00  0.00    +0.104 C 
ENDBRANCH  19  20
ENDBRANCH  18  19
ENDBRANCH  16  18
ENDBRANCH   1  16
TORSDOF 4
ENDMDL
