MODEL 1
REMARK VINA RESULT:      -4.4      0.000      0.000
REMARK  Name = *****
REMARK                            x       y       z     vdW  Elec       q    Type
REMARK                         _______ _______ _______ _____ _____    ______ ____
ROOT
ATOM      1  C   LIG    1       25.282 -15.289   4.137  0.00  0.00    +0.139 C 
ENDROOT
BRANCH   1   2
ATOM      2  C   LIG    1       24.267 -16.425   4.083  0.00  0.00    -0.028 A 
ATOM      3  C   LIG    1       24.629 -17.725   3.696  0.00  0.00    +0.005 A 
ATOM      4  C   LIG    1       23.699 -18.765   3.706  0.00  0.00    +0.000 A 
ATOM      5  C   LIG    1       22.389 -18.527   4.108  0.00  0.00    +0.000 A 
ATOM      6  C   LIG    1       22.004 -17.244   4.488  0.00  0.00    +0.000 A 
ATOM      7  C   LIG    1       22.933 -16.200   4.466  0.00  0.00    +0.005 A 
ENDBRANCH   1   2
BRANCH   1   8
ATOM      8  C   LIG    1       24.742 -13.937   3.653  0.00  0.00    -0.028 A 
ATOM      9  C   LIG    1       24.718 -13.640   2.277  0.00  0.00    +0.005 A 
ATOM     10  C   LIG    1       24.225 -12.415   1.812  0.00  0.00    +0.000 A 
ATOM     11  C   LIG    1       23.753 -11.463   2.711  0.00  0.00    +0.000 A 
ATOM     12  C   LIG    1       23.772 -11.734   4.074  0.00  0.00    +0.000 A 
ATOM     13  C   LIG    1       24.261 -12.958   4.539  0.00  0.00    +0.005 A 
ENDBRANCH   1   8
BRANCH   1  14
ATOM     14  S   LIG    1       26.916 -15.691   3.342  0.00  0.00    +0.043 S 
ATOM     15  O   LIG    1       27.882 -16.191   4.379  0.00  0.00    -0.256 OA
BRANCH  14  16
ATOM     16  C   LIG    1       27.456 -14.028   2.868  0.00  0.00    +0.200 C 
BRANCH  16  20
ATOM     17  N   LIG    1       29.407 -12.810   3.677  0.00  0.00    -0.329 N 
ATOM     18  H   LIG    1       29.804 -12.807   2.744  0.00  0.00    +0.145 HD
ATOM     19  H   LIG    1       29.894 -12.303   4.407  0.00  0.00    +0.145 HD
ATOM     20  C   LIG    1       28.178 -13.307   3.978  0.00  0.00    +0.223 C 
ATOM     21  O   LIG    1       27.732 -13.149   5.113  0.00  0.00    -0.275 OA
ENDBRANCH  16  20
ENDBRANCH  14  16
ENDBRANCH   1  14
TORSDOF 5
ENDMDL
MODEL 2
REMARK VINA RESULT:      -3.8      1.134      4.479
REMARK  Name = *****
REMARK                            x       y       z     vdW  Elec       q    Type
REMARK                         _______ _______ _______ _____ _____    ______ ____
ROOT
ATOM      1  C   LIG    1       25.805 -15.195   3.033  0.00  0.00    +0.139 C 
ENDROOT
BRANCH   1   2
ATOM      2  C   LIG    1       25.036 -13.904   3.290  0.00  0.00    -0.028 A 
ATOM      3  C   LIG    1       24.608 -13.539   4.575  0.00  0.00    +0.005 A 
ATOM      4  C   LIG    1       23.955 -12.327   4.800  0.00  0.00    +0.000 A 
ATOM      5  C   LIG    1       23.722 -11.453   3.743  0.00  0.00    +0.000 A 
ATOM      6  C   LIG    1       24.130 -11.797   2.457  0.00  0.00    +0.000 A 
ATOM      7  C   LIG    1       24.773 -13.017   2.231  0.00  0.00    +0.005 A 
ENDBRANCH   1   2
BRANCH   1   8
ATOM      8  C   LIG    1       25.050 -16.470   3.430  0.00  0.00    -0.028 A 
ATOM      9  C   LIG    1       23.761 -16.379   3.991  0.00  0.00    +0.005 A 
ATOM     10  C   LIG    1       23.051 -17.529   4.356  0.00  0.00    +0.000 A 
ATOM     11  C   LIG    1       23.614 -18.789   4.172  0.00  0.00    +0.000 A 
ATOM     12  C   LIG    1       24.886 -18.901   3.623  0.00  0.00    +0.000 A 
ATOM     13  C   LIG    1       25.595 -17.753   3.256  0.00  0.00    +0.005 A 
ENDBRANCH   1   8
BRANCH   1  14
ATOM     14  S   LIG    1       27.538 -15.195   3.713  0.00  0.00    +0.043 S 
ATOM     15  O   LIG    1       27.743 -16.392   4.598  0.00  0.00    -0.256 OA
BRANCH  14  16
ATOM     16  C   LIG    1       27.455 -13.742   4.792  0.00  0.00    +0.200 C 
BRANCH  16  20
ATOM     17  N   LIG    1       28.838 -11.898   5.589  0.00  0.00    -0.329 N 
ATOM     18  H   LIG    1       28.352 -11.906   6.479  0.00  0.00    +0.145 HD
ATOM     19  H   LIG    1       29.625 -11.271   5.478  0.00  0.00    +0.145 HD
ATOM     20  C   LIG    1       28.610 -12.794   4.592  0.00  0.00    +0.223 C 
ATOM     21  O   LIG    1       29.339 -12.782   3.601  0.00  0.00    -0.275 OA
ENDBRANCH  16  20
ENDBRANCH  14  16
ENDBRANCH   1  14
TORSDOF 5
ENDMDL
MODEL 3
REMARK VINA RESULT:      -3.5      4.558      6.261
REMARK  Name = *****
REMARK                            x       y       z     vdW  Elec       q    Type
REMARK                         _______ _______ _______ _____ _____    ______ ____
ROOT
ATOM      1  C   LIG    1       25.612 -18.946   3.785  0.00  0.00    +0.139 C 
ENDROOT
BRANCH   1   2
ATOM      2  C   LIG    1       26.346 -19.579   4.961  0.00  0.00    -0.028 A 
ATOM      3  C   LIG    1       25.661 -20.196   6.019  0.00  0.00    +0.005 A 
ATOM      4  C   LIG    1       26.350 -20.819   7.059  0.00  0.00    +0.000 A 
ATOM      5  C   LIG    1       27.741 -20.842   7.060  0.00  0.00    +0.000 A 
ATOM      6  C   LIG    1       28.444 -20.229   6.026  0.00  0.00    +0.000 A 
ATOM      7  C   LIG    1       27.752 -19.595   4.990  0.00  0.00    +0.005 A 
ENDBRANCH   1   2
BRANCH   1   8
ATOM      8  C   LIG    1       25.784 -17.425   3.677  0.00  0.00    -0.028 A 
ATOM      9  C   LIG    1       24.653 -16.587   3.674  0.00  0.00    +0.005 A 
ATOM     10  C   LIG    1       24.786 -15.197   3.581  0.00  0.00    +0.000 A 
ATOM     11  C   LIG    1       26.048 -14.618   3.485  0.00  0.00    +0.000 A 
ATOM     12  C   LIG    1       27.178 -15.428   3.482  0.00  0.00    +0.000 A 
ATOM     13  C   LIG    1       27.046 -16.816   3.577  0.00  0.00    +0.005 A 
ENDBRANCH   1   8
BRANCH   1  14
ATOM     14  S   LIG    1       23.821 -19.437   3.655  0.00  0.00    +0.043 S 
ATOM     15  O   LIG    1       22.991 -18.602   4.589  0.00  0.00    -0.256 OA
BRANCH  14  16
ATOM     16  C   LIG    1       23.898 -21.105   4.358  0.00  0.00    +0.200 C 
BRANCH  16  20
ATOM     17  N   LIG    1       21.516 -21.490   4.714  0.00  0.00    -0.329 N 
ATOM     18  H   LIG    1       21.354 -21.468   3.713  0.00  0.00    +0.145 HD
ATOM     19  H   LIG    1       20.738 -21.715   5.322  0.00  0.00    +0.145 HD
ATOM     20  C   LIG    1       22.747 -21.406   5.285  0.00  0.00    +0.223 C 
ATOM     21  O   LIG    1       22.854 -21.571   6.499  0.00  0.00    -0.275 OA
ENDBRANCH  16  20
ENDBRANCH  14  16
ENDBRANCH   1  14
TORSDOF 5
ENDMDL
MODEL 4
REMARK VINA RESULT:      -3.5      4.506      6.116
REMARK  Name = *****
REMARK                            x       y       z     vdW  Elec       q    Type
REMARK                         _______ _______ _______ _____ _____    ______ ____
ROOT
ATOM      1  C   LIG    1       25.646 -18.843   3.744  0.00  0.00    +0.139 C 
ENDROOT
BRANCH   1   2
ATOM      2  C   LIG    1       26.416 -19.504   4.881  0.00  0.00    -0.028 A 
ATOM      3  C   LIG    1       27.819 -19.504   4.925  0.00  0.00    +0.005 A 
ATOM      4  C   LIG    1       28.506 -20.064   6.002  0.00  0.00    +0.000 A 
ATOM      5  C   LIG    1       27.803 -20.632   7.060  0.00  0.00    +0.000 A 
ATOM      6  C   LIG    1       26.412 -20.650   7.035  0.00  0.00    +0.000 A 
ATOM      7  C   LIG    1       25.724 -20.100   5.950  0.00  0.00    +0.005 A 
ENDBRANCH   1   2
BRANCH   1   8
ATOM      8  C   LIG    1       25.783 -17.316   3.691  0.00  0.00    -0.028 A 
ATOM      9  C   LIG    1       27.061 -16.725   3.670  0.00  0.00    +0.005 A 
ATOM     10  C   LIG    1       27.212 -15.334   3.616  0.00  0.00    +0.000 A 
ATOM     11  C   LIG    1       26.091 -14.508   3.587  0.00  0.00    +0.000 A 
ATOM     12  C   LIG    1       24.820 -15.072   3.611  0.00  0.00    +0.000 A 
ATOM     13  C   LIG    1       24.669 -16.460   3.662  0.00  0.00    +0.005 A 
ENDBRANCH   1   8
BRANCH   1  14
ATOM     14  S   LIG    1       23.863 -19.368   3.629  0.00  0.00    +0.043 S 
ATOM     15  O   LIG    1       23.024 -18.544   4.566  0.00  0.00    -0.256 OA
BRANCH  14  16
ATOM     16  C   LIG    1       23.976 -21.031   4.339  0.00  0.00    +0.200 C 
BRANCH  16  20
ATOM     17  N   LIG    1       21.594 -21.388   4.716  0.00  0.00    -0.329 N 
ATOM     18  H   LIG    1       21.416 -21.319   3.720  0.00  0.00    +0.145 HD
ATOM     19  H   LIG    1       20.820 -21.625   5.326  0.00  0.00    +0.145 HD
ATOM     20  C   LIG    1       22.835 -21.351   5.270  0.00  0.00    +0.223 C 
ATOM     21  O   LIG    1       22.957 -21.572   6.475  0.00  0.00    -0.275 OA
ENDBRANCH  16  20
ENDBRANCH  14  16
ENDBRANCH   1  14
TORSDOF 5
ENDMDL
MODEL 5
REMARK VINA RESULT:      -3.4      4.533      6.200
REMARK  Name = *****
REMARK                            x       y       z     vdW  Elec       q    Type
REMARK                         _______ _______ _______ _____ _____    ______ ____
ROOT
ATOM      1  C   LIG    1       25.589 -18.891   3.763  0.00  0.00    +0.139 C 
ENDROOT
BRANCH   1   2
ATOM      2  C   LIG    1       26.340 -19.532   4.924  0.00  0.00    -0.028 A 
ATOM      3  C   LIG    1       25.670 -20.122   6.006  0.00  0.00    +0.005 A 
ATOM      4  C   LIG    1       26.374 -20.754   7.032  0.00  0.00    +0.000 A 
ATOM      5  C   LIG    1       27.763 -20.812   6.993  0.00  0.00    +0.000 A 
ATOM      6  C   LIG    1       28.450 -20.226   5.934  0.00  0.00    +0.000 A 
ATOM      7  C   LIG    1       27.746 -19.583   4.913  0.00  0.00    +0.005 A 
ENDBRANCH   1   2
BRANCH   1   8
ATOM      8  C   LIG    1       25.704 -17.362   3.703  0.00  0.00    -0.028 A 
ATOM      9  C   LIG    1       26.967 -16.756   3.567  0.00  0.00    +0.005 A 
ATOM     10  C   LIG    1       27.096 -15.363   3.506  0.00  0.00    +0.000 A 
ATOM     11  C   LIG    1       25.968 -14.551   3.583  0.00  0.00    +0.000 A 
ATOM     12  C   LIG    1       24.712 -15.129   3.721  0.00  0.00    +0.000 A 
ATOM     13  C   LIG    1       24.582 -16.519   3.781  0.00  0.00    +0.005 A 
ENDBRANCH   1   8
BRANCH   1  14
ATOM     14  S   LIG    1       23.818 -19.445   3.607  0.00  0.00    +0.043 S 
ATOM     15  O   LIG    1       22.938 -18.604   4.489  0.00  0.00    -0.256 OA
BRANCH  14  16
ATOM     16  C   LIG    1       23.930 -21.083   4.371  0.00  0.00    +0.200 C 
BRANCH  16  20
ATOM     17  N   LIG    1       21.543 -21.440   4.719  0.00  0.00    -0.329 N 
ATOM     18  H   LIG    1       21.382 -21.399   3.718  0.00  0.00    +0.145 HD
ATOM     19  H   LIG    1       20.760 -21.663   5.322  0.00  0.00    +0.145 HD
ATOM     20  C   LIG    1       22.774 -21.382   5.292  0.00  0.00    +0.223 C 
ATOM     21  O   LIG    1       22.877 -21.569   6.504  0.00  0.00    -0.275 OA
ENDBRANCH  16  20
ENDBRANCH  14  16
ENDBRANCH   1  14
TORSDOF 5
ENDMDL
MODEL 6
REMARK VINA RESULT:      -3.1      2.103      4.857
REMARK  Name = *****
REMARK                            x       y       z     vdW  Elec       q    Type
REMARK                         _______ _______ _______ _____ _____    ______ ____
ROOT
ATOM      1  C   LIG    1       25.574 -15.449   3.367  0.00  0.00    +0.139 C 
ENDROOT
BRANCH   1   2
ATOM      2  C   LIG    1       25.027 -14.029   3.281  0.00  0.00    -0.028 A 
ATOM      3  C   LIG    1       24.964 -13.329   2.066  0.00  0.00    +0.005 A 
ATOM      4  C   LIG    1       24.408 -12.052   1.997  0.00  0.00    +0.000 A 
ATOM      5  C   LIG    1       23.899 -11.449   3.143  0.00  0.00    +0.000 A 
ATOM      6  C   LIG    1       23.957 -12.120   4.362  0.00  0.00    +0.000 A 
ATOM      7  C   LIG    1       24.525 -13.395   4.432  0.00  0.00    +0.005 A 
ENDBRANCH   1   2
BRANCH   1   8
ATOM      8  C   LIG    1       24.527 -16.509   3.732  0.00  0.00    -0.028 A 
ATOM      9  C   LIG    1       24.795 -17.872   3.502  0.00  0.00    +0.005 A 
ATOM     10  C   LIG    1       23.857 -18.857   3.832  0.00  0.00    +0.000 A 
ATOM     11  C   LIG    1       22.634 -18.500   4.393  0.00  0.00    +0.000 A 
ATOM     12  C   LIG    1       22.347 -17.160   4.624  0.00  0.00    +0.000 A 
ATOM     13  C   LIG    1       23.285 -16.176   4.297  0.00  0.00    +0.005 A 
ENDBRANCH   1   8
BRANCH   1  14
ATOM     14  S   LIG    1       27.101 -15.612   4.419  0.00  0.00    +0.043 S 
ATOM     15  O   LIG    1       28.096 -14.548   4.048  0.00  0.00    -0.256 OA
BRANCH  14  16
ATOM     16  C   LIG    1       27.748 -17.186   3.799  0.00  0.00    +0.200 C 
BRANCH  16  20
ATOM     17  N   LIG    1       27.795 -19.245   5.104  0.00  0.00    -0.329 N 
ATOM     18  H   LIG    1       27.061 -19.640   4.526  0.00  0.00    +0.145 HD
ATOM     19  H   LIG    1       28.216 -19.835   5.812  0.00  0.00    +0.145 HD
ATOM     20  C   LIG    1       28.369 -18.033   4.880  0.00  0.00    +0.223 C 
ATOM     21  O   LIG    1       29.338 -17.698   5.559  0.00  0.00    -0.275 OA
ENDBRANCH  16  20
ENDBRANCH  14  16
ENDBRANCH   1  14
TORSDOF 5
ENDMDL
MODEL 7
REMARK VINA RESULT:      -2.9      2.530      3.842
REMARK  Name = *****
REMARK                            x       y       z     vdW  Elec       q    Type
REMARK                         _______ _______ _______ _____ _____    ______ ____
ROOT
ATOM      1  C   LIG    1       25.445 -15.284   3.456  0.00  0.00    +0.139 C 
ENDROOT
BRANCH   1   2
ATOM      2  C   LIG    1       25.730 -16.761   3.704  0.00  0.00    -0.028 A 
ATOM      3  C   LIG    1       24.738 -17.743   3.560  0.00  0.00    +0.005 A 
ATOM      4  C   LIG    1       25.032 -19.096   3.736  0.00  0.00    +0.000 A 
ATOM      5  C   LIG    1       26.326 -19.494   4.055  0.00  0.00    +0.000 A 
ATOM      6  C   LIG    1       27.325 -18.537   4.211  0.00  0.00    +0.000 A 
ATOM      7  C   LIG    1       27.028 -17.182   4.046  0.00  0.00    +0.005 A 
ENDBRANCH   1   2
BRANCH   1   8
ATOM      8  C   LIG    1       26.610 -14.349   3.802  0.00  0.00    -0.028 A 
ATOM      9  C   LIG    1       27.576 -14.037   2.826  0.00  0.00    +0.005 A 
ATOM     10  C   LIG    1       28.645 -13.182   3.118  0.00  0.00    +0.000 A 
ATOM     11  C   LIG    1       28.773 -12.627   4.388  0.00  0.00    +0.000 A 
ATOM     12  C   LIG    1       27.832 -12.925   5.367  0.00  0.00    +0.000 A 
ATOM     13  C   LIG    1       26.763 -13.777   5.076  0.00  0.00    +0.005 A 
ENDBRANCH   1   8
BRANCH   1  14
ATOM     14  S   LIG    1       23.848 -14.685   4.203  0.00  0.00    +0.043 S 
ATOM     15  O   LIG    1       22.824 -15.785   4.176  0.00  0.00    -0.256 OA
BRANCH  14  16
ATOM     16  C   LIG    1       23.354 -13.466   2.957  0.00  0.00    +0.200 C 
BRANCH  16  20
ATOM     17  N   LIG    1       24.479 -11.449   2.175  0.00  0.00    -0.329 N 
ATOM     18  H   LIG    1       24.456 -11.794   1.222  0.00  0.00    +0.145 HD
ATOM     19  H   LIG    1       24.835 -10.514   2.338  0.00  0.00    +0.145 HD
ATOM     20  C   LIG    1       23.908 -12.090   3.229  0.00  0.00    +0.223 C 
ATOM     21  O   LIG    1       23.877 -11.529   4.323  0.00  0.00    -0.275 OA
ENDBRANCH  16  20
ENDBRANCH  14  16
ENDBRANCH   1  14
TORSDOF 5
ENDMDL
MODEL 8
REMARK VINA RESULT:      -2.3      2.531      5.389
REMARK  Name = *****
REMARK                            x       y       z     vdW  Elec       q    Type
REMARK                         _______ _______ _______ _____ _____    ______ ____
ROOT
ATOM      1  C   LIG    1       24.787 -14.217   4.256  0.00  0.00    +0.139 C 
ENDROOT
BRANCH   1   2
ATOM      2  C   LIG    1       26.264 -13.861   4.131  0.00  0.00    -0.028 A 
ATOM      3  C   LIG    1       26.921 -13.838   2.891  0.00  0.00    +0.005 A 
ATOM      4  C   LIG    1       28.258 -13.456   2.791  0.00  0.00    +0.000 A 
ATOM      5  C   LIG    1       28.966 -13.083   3.929  0.00  0.00    +0.000 A 
ATOM      6  C   LIG    1       28.339 -13.105   5.171  0.00  0.00    +0.000 A 
ATOM      7  C   LIG    1       27.002 -13.500   5.273  0.00  0.00    +0.005 A 
ENDBRANCH   1   2
BRANCH   1   8
ATOM      8  C   LIG    1       24.478 -15.707   4.061  0.00  0.00    -0.028 A 
ATOM      9  C   LIG    1       23.216 -16.217   4.422  0.00  0.00    +0.005 A 
ATOM     10  C   LIG    1       22.909 -17.572   4.249  0.00  0.00    +0.000 A 
ATOM     11  C   LIG    1       23.857 -18.442   3.717  0.00  0.00    +0.000 A 
ATOM     12  C   LIG    1       25.110 -17.960   3.358  0.00  0.00    +0.000 A 
ATOM     13  C   LIG    1       25.416 -16.607   3.528  0.00  0.00    +0.005 A 
ENDBRANCH   1   8
BRANCH   1  14
ATOM     14  S   LIG    1       23.660 -13.150   3.228  0.00  0.00    +0.043 S 
ATOM     15  O   LIG    1       24.162 -13.089   1.812  0.00  0.00    -0.256 OA
BRANCH  14  16
ATOM     16  C   LIG    1       23.984 -11.533   3.978  0.00  0.00    +0.200 C 
BRANCH  16  20
ATOM     17  N   LIG    1       24.622 -11.449   6.330  0.00  0.00    -0.329 N 
ATOM     18  H   LIG    1       25.598 -11.362   6.072  0.00  0.00    +0.145 HD
ATOM     19  H   LIG    1       24.378 -11.385   7.311  0.00  0.00    +0.145 HD
ATOM     20  C   LIG    1       23.599 -11.473   5.434  0.00  0.00    +0.223 C 
ATOM     21  O   LIG    1       22.441 -11.451   5.851  0.00  0.00    -0.275 OA
ENDBRANCH  16  20
ENDBRANCH  14  16
ENDBRANCH   1  14
TORSDOF 5
ENDMDL
MODEL 9
REMARK VINA RESULT:      -2.2      2.903      5.748
REMARK  Name = *****
REMARK                            x       y       z     vdW  Elec       q    Type
REMARK                         _______ _______ _______ _____ _____    ______ ____
ROOT
ATOM      1  C   LIG    1       26.516 -17.472   3.583  0.00  0.00    +0.139 C 
ENDROOT
BRANCH   1   2
ATOM      2  C   LIG    1       26.223 -15.979   3.479  0.00  0.00    -0.028 A 
ATOM      3  C   LIG    1       27.223 -15.046   3.166  0.00  0.00    +0.005 A 
ATOM      4  C   LIG    1       26.925 -13.691   3.020  0.00  0.00    +0.000 A 
ATOM      5  C   LIG    1       25.618 -13.243   3.179  0.00  0.00    +0.000 A 
ATOM      6  C   LIG    1       24.610 -14.148   3.498  0.00  0.00    +0.000 A 
ATOM      7  C   LIG    1       24.911 -15.504   3.656  0.00  0.00    +0.005 A 
ENDBRANCH   1   2
BRANCH   1   8
ATOM      8  C   LIG    1       25.266 -18.357   3.662  0.00  0.00    -0.028 A 
ATOM      9  C   LIG    1       25.340 -19.714   3.294  0.00  0.00    +0.005 A 
ATOM     10  C   LIG    1       24.214 -20.543   3.362  0.00  0.00    +0.000 A 
ATOM     11  C   LIG    1       22.993 -20.032   3.795  0.00  0.00    +0.000 A 
ATOM     12  C   LIG    1       22.897 -18.694   4.159  0.00  0.00    +0.000 A 
ATOM     13  C   LIG    1       24.022 -17.867   4.093  0.00  0.00    +0.005 A 
ENDBRANCH   1   8
BRANCH   1  14
ATOM     14  S   LIG    1       27.745 -17.913   4.909  0.00  0.00    +0.043 S 
ATOM     15  O   LIG    1       29.142 -17.838   4.359  0.00  0.00    -0.256 OA
BRANCH  14  16
ATOM     16  C   LIG    1       27.354 -19.667   5.134  0.00  0.00    +0.200 C 
BRANCH  16  20
ATOM     17  N   LIG    1       29.345 -19.803   6.534  0.00  0.00    -0.329 N 
ATOM     18  H   LIG    1       29.738 -18.991   6.071  0.00  0.00    +0.145 HD
ATOM     19  H   LIG    1       29.850 -20.200   7.318  0.00  0.00    +0.145 HD
ATOM     20  C   LIG    1       28.103 -20.294   6.282  0.00  0.00    +0.223 C 
ATOM     21  O   LIG    1       27.667 -21.205   6.986  0.00  0.00    -0.275 OA
ENDBRANCH  16  20
ENDBRANCH  14  16
ENDBRANCH   1  14
TORSDOF 5
ENDMDL
