MODEL 1
REMARK VINA RESULT:      -4.0      0.000      0.000
REMARK  Name = *****
REMARK                            x       y       z     vdW  Elec       q    Type
REMARK                         _______ _______ _______ _____ _____    ______ ____
ROOT
ATOM      1  C   LIG    1       25.097 -18.128   3.738  0.00  0.00    -0.013 A 
ATOM      2  C   LIG    1       23.694 -18.145   3.711  0.00  0.00    +0.096 A 
ATOM      3  C   LIG    1       23.009 -19.297   4.130  0.00  0.00    +0.318 A 
ATOM      4  C   LIG    1       23.688 -20.429   4.561  0.00  0.00    +0.237 A 
ATOM      5  C   LIG    1       25.081 -20.402   4.583  0.00  0.00    +0.166 A 
ATOM      6  C   LIG    1       25.791 -19.269   4.178  0.00  0.00    +0.057 A 
ENDROOT
BRANCH   3   7
ATOM      7  N   LIG    1       21.561 -19.301   4.116  0.00  0.00    +0.084 N 
ATOM      8  O   LIG    1       21.008 -20.405   4.291  0.00  0.00    -0.576 OA
ATOM      9  O   LIG    1       20.983 -18.245   3.855  0.00  0.00    +0.042 OA
ENDBRANCH   3   7
BRANCH   1  11
ATOM     10  C   LIG    1       25.415 -15.654   3.424  0.00  0.00    +0.114 C 
ATOM     11  C   LIG    1       25.844 -16.932   3.294  0.00  0.00    +0.032 C 
BRANCH  10  13
ATOM     12  N   LIG    1       26.681 -13.474   3.813  0.00  0.00    -0.297 N 
ATOM     13  C   LIG    1       26.332 -14.544   2.978  0.00  0.00    +0.257 C 
ATOM     14  O   LIG    1       26.796 -14.620   1.833  0.00  0.00    -0.269 OA
BRANCH  12  16
ATOM     15  C   LIG    1       25.121 -12.159   5.286  0.00  0.00    +0.024 C 
ATOM     16  C   LIG    1       26.231 -13.196   5.190  0.00  0.00    +0.104 C 
ENDBRANCH  12  16
BRANCH  12  17
ATOM     17  C   LIG    1       27.688 -12.540   3.294  0.00  0.00    +0.104 C 
ATOM     18  C   LIG    1       29.098 -12.870   3.761  0.00  0.00    +0.024 C 
ENDBRANCH  12  17
ENDBRANCH  10  13
BRANCH  10  19
ATOM     19  C   LIG    1       24.172 -15.401   4.032  0.00  0.00    +0.104 C 
ATOM     20  N   LIG    1       23.155 -15.193   4.529  0.00  0.00    -0.191 NA
ENDBRANCH  10  19
ENDBRANCH   1  11
BRANCH   4  21
ATOM     21  O   LIG    1       23.043 -21.569   4.942  0.00  0.00    -0.499 OA
ATOM     22  H   LIG    1       23.014 -21.545   5.920  0.00  0.00    +0.292 HD
ENDBRANCH   4  21
BRANCH   5  23
ATOM     23  O   LIG    1       25.714 -21.537   5.017  0.00  0.00    -0.503 OA
ATOM     24  H   LIG    1       25.206 -21.923   5.751  0.00  0.00    +0.292 HD
ENDBRANCH   5  23
TORSDOF 8
ENDMDL
MODEL 2
REMARK VINA RESULT:      -3.5      2.053      6.828
REMARK  Name = *****
REMARK                            x       y       z     vdW  Elec       q    Type
REMARK                         _______ _______ _______ _____ _____    ______ ____
ROOT
ATOM      1  C   LIG    1       25.820 -15.768   3.316  0.00  0.00    -0.013 A 
ATOM      2  C   LIG    1       24.921 -14.705   3.136  0.00  0.00    +0.096 A 
ATOM      3  C   LIG    1       25.414 -13.395   3.017  0.00  0.00    +0.318 A 
ATOM      4  C   LIG    1       26.774 -13.123   3.086  0.00  0.00    +0.237 A 
ATOM      5  C   LIG    1       27.658 -14.185   3.266  0.00  0.00    +0.166 A 
ATOM      6  C   LIG    1       27.199 -15.499   3.381  0.00  0.00    +0.057 A 
ENDROOT
BRANCH   3   7
ATOM      7  N   LIG    1       24.482 -12.306   2.813  0.00  0.00    +0.084 N 
ATOM      8  O   LIG    1       24.678 -11.588   1.813  0.00  0.00    -0.576 OA
ATOM      9  O   LIG    1       23.620 -12.116   3.673  0.00  0.00    +0.042 OA
ENDBRANCH   3   7
BRANCH   1  11
ATOM     10  C   LIG    1       24.123 -17.507   3.962  0.00  0.00    +0.114 C 
ATOM     11  C   LIG    1       25.328 -17.155   3.453  0.00  0.00    +0.032 C 
BRANCH  10  13
ATOM     12  N   LIG    1       24.642 -19.972   4.362  0.00  0.00    -0.297 N 
ATOM     13  C   LIG    1       23.749 -18.967   3.968  0.00  0.00    +0.257 C 
ATOM     14  O   LIG    1       22.594 -19.256   3.627  0.00  0.00    -0.269 OA
BRANCH  12  16
ATOM     15  C   LIG    1       26.352 -20.454   6.144  0.00  0.00    +0.024 C 
ATOM     16  C   LIG    1       26.049 -19.839   4.785  0.00  0.00    +0.104 C 
ENDBRANCH  12  16
BRANCH  12  17
ATOM     17  C   LIG    1       24.099 -21.334   4.447  0.00  0.00    +0.104 C 
ATOM     18  C   LIG    1       23.143 -21.518   5.616  0.00  0.00    +0.024 C 
ENDBRANCH  12  17
ENDBRANCH  10  13
BRANCH  10  19
ATOM     19  C   LIG    1       23.238 -16.505   4.399  0.00  0.00    +0.104 C 
ATOM     20  N   LIG    1       22.514 -15.685   4.755  0.00  0.00    -0.191 NA
ENDBRANCH  10  19
ENDBRANCH   1  11
BRANCH   4  21
ATOM     21  O   LIG    1       27.271 -11.856   3.005  0.00  0.00    -0.499 OA
ATOM     22  H   LIG    1       27.298 -11.519   3.923  0.00  0.00    +0.292 HD
ENDBRANCH   4  21
BRANCH   5  23
ATOM     23  O   LIG    1       28.991 -13.876   3.327  0.00  0.00    -0.503 OA
ATOM     24  H   LIG    1       29.481 -14.648   3.659  0.00  0.00    +0.292 HD
ENDBRANCH   5  23
TORSDOF 8
ENDMDL
MODEL 3
REMARK VINA RESULT:      -3.0      2.489      6.894
REMARK  Name = *****
REMARK                            x       y       z     vdW  Elec       q    Type
REMARK                         _______ _______ _______ _____ _____    ______ ____
ROOT
ATOM      1  C   LIG    1       25.878 -15.783   3.407  0.00  0.00    -0.013 A 
ATOM      2  C   LIG    1       24.929 -14.758   3.267  0.00  0.00    +0.096 A 
ATOM      3  C   LIG    1       25.363 -13.433   3.093  0.00  0.00    +0.318 A 
ATOM      4  C   LIG    1       26.713 -13.110   3.068  0.00  0.00    +0.237 A 
ATOM      5  C   LIG    1       27.647 -14.135   3.208  0.00  0.00    +0.166 A 
ATOM      6  C   LIG    1       27.246 -15.462   3.376  0.00  0.00    +0.057 A 
ENDROOT
BRANCH   3   7
ATOM      7  N   LIG    1       24.378 -12.384   2.932  0.00  0.00    +0.084 N 
ATOM      8  O   LIG    1       24.328 -11.838   1.812  0.00  0.00    -0.576 OA
ATOM      9  O   LIG    1       23.724 -12.051   3.921  0.00  0.00    +0.042 OA
ENDBRANCH   3   7
BRANCH   1  11
ATOM     10  C   LIG    1       26.231 -18.178   4.084  0.00  0.00    +0.114 C 
ATOM     11  C   LIG    1       25.449 -17.184   3.599  0.00  0.00    +0.032 C 
BRANCH  10  13
ATOM     12  N   LIG    1       24.262 -19.797   4.032  0.00  0.00    -0.297 N 
ATOM     13  C   LIG    1       25.616 -19.540   4.281  0.00  0.00    +0.257 C 
ATOM     14  O   LIG    1       26.366 -20.450   4.658  0.00  0.00    -0.269 OA
BRANCH  12  16
ATOM     15  C   LIG    1       22.271 -18.414   4.707  0.00  0.00    +0.024 C 
ATOM     16  C   LIG    1       23.211 -18.858   3.595  0.00  0.00    +0.104 C 
ENDBRANCH  12  16
BRANCH  12  17
ATOM     17  C   LIG    1       23.831 -21.198   4.136  0.00  0.00    +0.104 C 
ATOM     18  C   LIG    1       23.222 -21.531   5.489  0.00  0.00    +0.024 C 
ENDBRANCH  12  17
ENDBRANCH  10  13
BRANCH  10  19
ATOM     19  C   LIG    1       27.558 -17.895   4.453  0.00  0.00    +0.104 C 
ATOM     20  N   LIG    1       28.645 -17.664   4.754  0.00  0.00    -0.191 NA
ENDBRANCH  10  19
ENDBRANCH   1  11
BRANCH   4  21
ATOM     21  O   LIG    1       27.155 -11.827   2.931  0.00  0.00    -0.499 OA
ATOM     22  H   LIG    1       26.499 -11.377   2.361  0.00  0.00    +0.292 HD
ENDBRANCH   4  21
BRANCH   5  23
ATOM     23  O   LIG    1       28.968 -13.775   3.175  0.00  0.00    -0.503 OA
ATOM     24  H   LIG    1       29.069 -12.899   3.586  0.00  0.00    +0.292 HD
ENDBRANCH   5  23
TORSDOF 8
ENDMDL
MODEL 4
REMARK VINA RESULT:      -2.6      1.700      2.461
REMARK  Name = *****
REMARK                            x       y       z     vdW  Elec       q    Type
REMARK                         _______ _______ _______ _____ _____    ______ ____
ROOT
ATOM      1  C   LIG    1       25.169 -17.702   3.910  0.00  0.00    -0.013 A 
ATOM      2  C   LIG    1       23.972 -18.338   4.276  0.00  0.00    +0.096 A 
ATOM      3  C   LIG    1       24.016 -19.629   4.829  0.00  0.00    +0.318 A 
ATOM      4  C   LIG    1       25.219 -20.300   5.011  0.00  0.00    +0.237 A 
ATOM      5  C   LIG    1       26.401 -19.660   4.644  0.00  0.00    +0.166 A 
ATOM      6  C   LIG    1       26.390 -18.374   4.098  0.00  0.00    +0.057 A 
ENDROOT
BRANCH   3   7
ATOM      7  N   LIG    1       22.779 -20.272   5.220  0.00  0.00    +0.084 N 
ATOM      8  O   LIG    1       21.795 -20.074   4.480  0.00  0.00    -0.576 OA
ATOM      9  O   LIG    1       22.762 -20.894   6.283  0.00  0.00    +0.042 OA
ENDBRANCH   3   7
BRANCH   1  11
ATOM     10  C   LIG    1       26.150 -15.440   3.424  0.00  0.00    +0.114 C 
ATOM     11  C   LIG    1       25.151 -16.348   3.320  0.00  0.00    +0.032 C 
BRANCH  10  13
ATOM     12  N   LIG    1       24.994 -13.203   3.021  0.00  0.00    -0.297 N 
ATOM     13  C   LIG    1       25.999 -14.125   2.702  0.00  0.00    +0.257 C 
ATOM     14  O   LIG    1       26.823 -13.870   1.814  0.00  0.00    -0.269 OA
BRANCH  12  16
ATOM     15  C   LIG    1       23.973 -12.268   5.123  0.00  0.00    +0.024 C 
ATOM     16  C   LIG    1       23.920 -13.322   4.026  0.00  0.00    +0.104 C 
ENDBRANCH  12  16
BRANCH  12  17
ATOM     17  C   LIG    1       25.050 -11.908   2.330  0.00  0.00    +0.104 C 
ATOM     18  C   LIG    1       23.692 -11.447   1.824  0.00  0.00    +0.024 C 
ENDBRANCH  12  17
ENDBRANCH  10  13
BRANCH  10  19
ATOM     19  C   LIG    1       27.317 -15.776   4.132  0.00  0.00    +0.104 C 
ATOM     20  N   LIG    1       28.273 -16.051   4.712  0.00  0.00    -0.191 NA
ENDBRANCH  10  19
ENDBRANCH   1  11
BRANCH   4  21
ATOM     21  O   LIG    1       25.281 -21.565   5.516  0.00  0.00    -0.499 OA
ATOM     22  H   LIG    1       25.106 -21.480   6.475  0.00  0.00    +0.292 HD
ENDBRANCH   4  21
BRANCH   5  23
ATOM     23  O   LIG    1       27.566 -20.353   4.842  0.00  0.00    -0.503 OA
ATOM     24  H   LIG    1       27.635 -21.054   4.171  0.00  0.00    +0.292 HD
ENDBRANCH   5  23
TORSDOF 8
ENDMDL
MODEL 5
REMARK VINA RESULT:      -2.4      2.060      7.246
REMARK  Name = *****
REMARK                            x       y       z     vdW  Elec       q    Type
REMARK                         _______ _______ _______ _____ _____    ______ ____
ROOT
ATOM      1  C   LIG    1       25.659 -15.693   3.302  0.00  0.00    -0.013 A 
ATOM      2  C   LIG    1       26.880 -15.180   3.766  0.00  0.00    +0.096 A 
ATOM      3  C   LIG    1       27.179 -13.822   3.567  0.00  0.00    +0.318 A 
ATOM      4  C   LIG    1       26.298 -12.973   2.910  0.00  0.00    +0.237 A 
ATOM      5  C   LIG    1       25.088 -13.493   2.453  0.00  0.00    +0.166 A 
ATOM      6  C   LIG    1       24.760 -14.837   2.641  0.00  0.00    +0.057 A 
ENDROOT
BRANCH   3   7
ATOM      7  N   LIG    1       28.434 -13.296   4.064  0.00  0.00    +0.084 N 
ATOM      8  O   LIG    1       28.406 -12.772   5.194  0.00  0.00    -0.576 OA
ATOM      9  O   LIG    1       29.411 -13.330   3.314  0.00  0.00    +0.042 OA
ENDBRANCH   3   7
BRANCH   1  11
ATOM     10  C   LIG    1       24.165 -17.583   4.021  0.00  0.00    +0.114 C 
ATOM     11  C   LIG    1       25.322 -17.120   3.490  0.00  0.00    +0.032 C 
BRANCH  10  13
ATOM     12  N   LIG    1       24.958 -19.962   4.482  0.00  0.00    -0.297 N 
ATOM     13  C   LIG    1       23.953 -19.074   4.080  0.00  0.00    +0.257 C 
ATOM     14  O   LIG    1       22.829 -19.498   3.776  0.00  0.00    -0.269 OA
BRANCH  12  16
ATOM     15  C   LIG    1       26.844 -20.443   6.077  0.00  0.00    +0.024 C 
ATOM     16  C   LIG    1       26.351 -19.663   4.866  0.00  0.00    +0.104 C 
ENDBRANCH  12  16
BRANCH  12  17
ATOM     17  C   LIG    1       24.569 -21.372   4.622  0.00  0.00    +0.104 C 
ATOM     18  C   LIG    1       23.398 -21.571   5.572  0.00  0.00    +0.024 C 
ENDBRANCH  12  17
ENDBRANCH  10  13
BRANCH  10  19
ATOM     19  C   LIG    1       23.177 -16.669   4.429  0.00  0.00    +0.104 C 
ATOM     20  N   LIG    1       22.368 -15.921   4.763  0.00  0.00    -0.191 NA
ENDBRANCH  10  19
ENDBRANCH   1  11
BRANCH   4  21
ATOM     21  O   LIG    1       26.583 -11.660   2.679  0.00  0.00    -0.499 OA
ATOM     22  H   LIG    1       26.102 -11.421   1.861  0.00  0.00    +0.292 HD
ENDBRANCH   4  21
BRANCH   5  23
ATOM     23  O   LIG    1       24.246 -12.623   1.812  0.00  0.00    -0.503 OA
ATOM     24  H   LIG    1       23.477 -12.449   2.382  0.00  0.00    +0.292 HD
ENDBRANCH   5  23
TORSDOF 8
ENDMDL
MODEL 6
REMARK VINA RESULT:      -2.3      1.563      2.185
REMARK  Name = *****
REMARK                            x       y       z     vdW  Elec       q    Type
REMARK                         _______ _______ _______ _____ _____    ______ ____
ROOT
ATOM      1  C   LIG    1       24.996 -17.571   3.750  0.00  0.00    -0.013 A 
ATOM      2  C   LIG    1       23.754 -18.172   4.011  0.00  0.00    +0.096 A 
ATOM      3  C   LIG    1       23.710 -19.510   4.437  0.00  0.00    +0.318 A 
ATOM      4  C   LIG    1       24.868 -20.260   4.595  0.00  0.00    +0.237 A 
ATOM      5  C   LIG    1       26.095 -19.654   4.334  0.00  0.00    +0.166 A 
ATOM      6  C   LIG    1       26.172 -18.324   3.915  0.00  0.00    +0.057 A 
ENDROOT
BRANCH   3   7
ATOM      7  N   LIG    1       22.426 -20.118   4.721  0.00  0.00    +0.084 N 
ATOM      8  O   LIG    1       21.433 -19.590   4.183  0.00  0.00    -0.576 OA
ATOM      9  O   LIG    1       22.394 -21.049   5.525  0.00  0.00    +0.042 OA
ENDBRANCH   3   7
BRANCH   1  11
ATOM     10  C   LIG    1       24.239 -15.175   3.688  0.00  0.00    +0.114 C 
ATOM     11  C   LIG    1       25.071 -16.168   3.293  0.00  0.00    +0.032 C 
BRANCH  10  13
ATOM     12  N   LIG    1       25.775 -13.334   2.819  0.00  0.00    -0.297 N 
ATOM     13  C   LIG    1       24.497 -13.781   3.176  0.00  0.00    +0.257 C 
ATOM     14  O   LIG    1       23.518 -13.032   3.057  0.00  0.00    -0.269 OA
BRANCH  12  16
ATOM     15  C   LIG    1       28.115 -13.364   3.746  0.00  0.00    +0.024 C 
ATOM     16  C   LIG    1       27.059 -14.058   2.898  0.00  0.00    +0.104 C 
ENDBRANCH  12  16
BRANCH  12  17
ATOM     17  C   LIG    1       25.857 -12.001   2.208  0.00  0.00    +0.104 C 
ATOM     18  C   LIG    1       24.497 -11.447   1.812  0.00  0.00    +0.024 C 
ENDBRANCH  12  17
ENDBRANCH  10  13
BRANCH  10  19
ATOM     19  C   LIG    1       23.217 -15.456   4.611  0.00  0.00    +0.104 C 
ATOM     20  N   LIG    1       22.380 -15.688   5.367  0.00  0.00    -0.191 NA
ENDBRANCH  10  19
ENDBRANCH   1  11
BRANCH   4  21
ATOM     21  O   LIG    1       24.845 -21.569   4.977  0.00  0.00    -0.499 OA
ATOM     22  H   LIG    1       25.019 -22.088   4.166  0.00  0.00    +0.292 HD
ENDBRANCH   4  21
BRANCH   5  23
ATOM     23  O   LIG    1       27.214 -20.426   4.504  0.00  0.00    -0.503 OA
ATOM     24  H   LIG    1       27.876 -19.919   5.003  0.00  0.00    +0.292 HD
ENDBRANCH   5  23
TORSDOF 8
ENDMDL
MODEL 7
REMARK VINA RESULT:      -1.8      1.259      1.657
REMARK  Name = *****
REMARK                            x       y       z     vdW  Elec       q    Type
REMARK                         _______ _______ _______ _____ _____    ______ ____
ROOT
ATOM      1  C   LIG    1       24.867 -17.778   3.719  0.00  0.00    -0.013 A 
ATOM      2  C   LIG    1       23.481 -17.994   3.760  0.00  0.00    +0.096 A 
ATOM      3  C   LIG    1       22.989 -19.265   4.099  0.00  0.00    +0.318 A 
ATOM      4  C   LIG    1       23.843 -20.322   4.384  0.00  0.00    +0.237 A 
ATOM      5  C   LIG    1       25.218 -20.098   4.340  0.00  0.00    +0.166 A 
ATOM      6  C   LIG    1       25.738 -18.843   4.012  0.00  0.00    +0.057 A 
ENDROOT
BRANCH   3   7
ATOM      7  N   LIG    1       21.557 -19.475   4.156  0.00  0.00    +0.084 N 
ATOM      8  O   LIG    1       21.176 -20.584   4.581  0.00  0.00    -0.576 OA
ATOM      9  O   LIG    1       20.826 -18.589   3.713  0.00  0.00    +0.042 OA
ENDBRANCH   3   7
BRANCH   1  11
ATOM     10  C   LIG    1       26.689 -16.052   3.570  0.00  0.00    +0.114 C 
ATOM     11  C   LIG    1       25.412 -16.453   3.357  0.00  0.00    +0.032 C 
BRANCH  10  13
ATOM     12  N   LIG    1       27.570 -13.687   3.938  0.00  0.00    -0.297 N 
ATOM     13  C   LIG    1       27.100 -14.688   3.078  0.00  0.00    +0.257 C 
ATOM     14  O   LIG    1       27.028 -14.481   1.859  0.00  0.00    -0.269 OA
BRANCH  12  16
ATOM     15  C   LIG    1       26.447 -13.376   6.169  0.00  0.00    +0.024 C 
ATOM     16  C   LIG    1       27.716 -13.729   5.406  0.00  0.00    +0.104 C 
ENDBRANCH  12  16
BRANCH  12  17
ATOM     17  C   LIG    1       28.062 -12.456   3.305  0.00  0.00    +0.104 C 
ATOM     18  C   LIG    1       29.264 -11.862   4.022  0.00  0.00    +0.024 C 
ENDBRANCH  12  17
ENDBRANCH  10  13
BRANCH  10  19
ATOM     19  C   LIG    1       27.600 -16.938   4.169  0.00  0.00    +0.104 C 
ATOM     20  N   LIG    1       28.347 -17.664   4.661  0.00  0.00    -0.191 NA
ENDBRANCH  10  19
ENDBRANCH   1  11
BRANCH   4  21
ATOM     21  O   LIG    1       23.387 -21.571   4.684  0.00  0.00    -0.499 OA
ATOM     22  H   LIG    1       24.166 -22.161   4.630  0.00  0.00    +0.292 HD
ENDBRANCH   4  21
BRANCH   5  23
ATOM     23  O   LIG    1       26.028 -21.164   4.629  0.00  0.00    -0.503 OA
ATOM     24  H   LIG    1       26.099 -21.255   5.595  0.00  0.00    +0.292 HD
ENDBRANCH   5  23
TORSDOF 8
ENDMDL
