MODEL 1
REMARK VINA RESULT:      -9.0      0.000      0.000
REMARK  Name = *****
REMARK                            x       y       z     vdW  Elec       q    Type
REMARK                         _______ _______ _______ _____ _____    ______ ____
ROOT
ATOM      1  C   LIG    1       26.851 -21.098   6.739  0.00  0.00    +0.162 C 
ENDROOT
BRANCH   1   2
ATOM      2  C   LIG    1       27.896 -20.061   6.340  0.00  0.00    -0.007 A 
ATOM      3  C   LIG    1       29.152 -19.890   6.988  0.00  0.00    +0.009 A 
ATOM      4  C   LIG    1       29.969 -18.819   6.553  0.00  0.00    +0.071 A 
ATOM      5  C   LIG    1       31.157 -18.561   7.220  0.00  0.00    +0.032 A 
ATOM      6  C   LIG    1       31.590 -19.349   8.288  0.00  0.00    +0.048 A 
ATOM      7  C   LIG    1       30.851 -20.456   8.675  0.00  0.00    +0.121 A 
ATOM      8  N   LIG    1       29.657 -18.032   5.513  0.00  0.00    -0.255 NA
ATOM      9  C   LIG    1       28.499 -18.262   4.869  0.00  0.00    +0.112 A 
ATOM     10  C   LIG    1       29.648 -20.725   8.023  0.00  0.00    +0.056 A 
ATOM     11  C   LIG    1       27.596 -19.237   5.244  0.00  0.00    +0.026 A 
BRANCH   7  12
ATOM     12  O   LIG    1       31.382 -21.185   9.702  0.00  0.00    -0.495 OA
ATOM     13  C   LIG    1       31.251 -22.599   9.609  0.00  0.00    +0.277 C 
ENDBRANCH   7  12
ENDBRANCH   1   2
BRANCH   1  17
ATOM     14  C   LIG    1       22.662 -21.041   5.324  0.00  0.00    +0.028 C 
ATOM     15  C   LIG    1       23.035 -21.393   6.791  0.00  0.00    -0.000 C 
ATOM     16  C   LIG    1       24.355 -20.726   7.219  0.00  0.00    +0.026 C 
ATOM     17  C   LIG    1       25.421 -20.950   6.118  0.00  0.00    +0.090 C 
ATOM     18  N   LIG    1       24.985 -22.032   5.184  0.00  0.00    -0.296 NA
ATOM     19  C   LIG    1       24.526 -23.220   5.935  0.00  0.00    +0.085 C 
ATOM     20  C   LIG    1       23.315 -22.908   6.832  0.00  0.00    +0.019 C 
ATOM     21  C   LIG    1       23.830 -21.501   4.404  0.00  0.00    +0.092 C 
BRANCH  14  23
ATOM     22  C   LIG    1       22.868 -18.789   4.201  0.00  0.00    +0.004 C 
ATOM     23  C   LIG    1       22.306 -19.583   5.121  0.00  0.00    -0.029 C 
ENDBRANCH  14  23
ENDBRANCH   1  17
BRANCH   1  24
ATOM     24  O   LIG    1       26.742 -21.131   8.171  0.00  0.00    -0.386 OA
ATOM     25  H   LIG    1       26.904 -20.231   8.502  0.00  0.00    +0.210 HD
ENDBRANCH   1  24
TORSDOF 5
ENDMDL
MODEL 2
REMARK VINA RESULT:      -7.7      1.656      3.169
REMARK  Name = *****
REMARK                            x       y       z     vdW  Elec       q    Type
REMARK                         _______ _______ _______ _____ _____    ______ ____
ROOT
ATOM      1  C   LIG    1       26.053 -21.709   7.984  0.00  0.00    +0.162 C 
ENDROOT
BRANCH   1   2
ATOM      2  C   LIG    1       26.811 -20.841   6.984  0.00  0.00    -0.007 A 
ATOM      3  C   LIG    1       28.185 -20.488   7.102  0.00  0.00    +0.009 A 
ATOM      4  C   LIG    1       28.713 -19.597   6.136  0.00  0.00    +0.071 A 
ATOM      5  C   LIG    1       30.020 -19.155   6.268  0.00  0.00    +0.032 A 
ATOM      6  C   LIG    1       30.844 -19.589   7.308  0.00  0.00    +0.048 A 
ATOM      7  C   LIG    1       30.378 -20.528   8.215  0.00  0.00    +0.121 A 
ATOM      8  N   LIG    1       28.012 -19.157   5.081  0.00  0.00    -0.255 NA
ATOM      9  C   LIG    1       26.737 -19.566   4.952  0.00  0.00    +0.112 A 
ATOM     10  C   LIG    1       29.062 -20.976   8.104  0.00  0.00    +0.056 A 
ATOM     11  C   LIG    1       26.099 -20.382   5.864  0.00  0.00    +0.026 A 
BRANCH   7  12
ATOM     12  O   LIG    1       31.276 -20.917   9.169  0.00  0.00    -0.495 OA
ATOM     13  C   LIG    1       31.436 -22.319   9.353  0.00  0.00    +0.277 C 
ENDBRANCH   7  12
ENDBRANCH   1   2
BRANCH   1  17
ATOM     14  C   LIG    1       23.989 -25.029   5.916  0.00  0.00    +0.028 C 
ATOM     15  C   LIG    1       25.115 -24.202   5.234  0.00  0.00    -0.000 C 
ATOM     16  C   LIG    1       26.098 -23.620   6.266  0.00  0.00    +0.026 C 
ATOM     17  C   LIG    1       25.298 -22.960   7.418  0.00  0.00    +0.090 C 
ATOM     18  N   LIG    1       23.876 -22.752   7.010  0.00  0.00    -0.296 NA
ATOM     19  C   LIG    1       23.799 -22.114   5.679  0.00  0.00    +0.085 C 
ATOM     20  C   LIG    1       24.441 -22.980   4.581  0.00  0.00    +0.019 C 
ATOM     21  C   LIG    1       23.243 -24.099   6.916  0.00  0.00    +0.092 C 
BRANCH  14  23
ATOM     22  C   LIG    1       24.360 -27.524   6.033  0.00  0.00    +0.004 C 
ATOM     23  C   LIG    1       24.481 -26.304   6.569  0.00  0.00    -0.029 C 
ENDBRANCH  14  23
ENDBRANCH   1  17
BRANCH   1  24
ATOM     24  O   LIG    1       25.126 -20.890   8.713  0.00  0.00    -0.386 OA
ATOM     25  H   LIG    1       25.054 -21.250   9.614  0.00  0.00    +0.210 HD
ENDBRANCH   1  24
TORSDOF 5
ENDMDL
MODEL 3
REMARK VINA RESULT:      -7.7      1.554      3.411
REMARK  Name = *****
REMARK                            x       y       z     vdW  Elec       q    Type
REMARK                         _______ _______ _______ _____ _____    ______ ____
ROOT
ATOM      1  C   LIG    1       26.860 -22.081   7.476  0.00  0.00    +0.162 C 
ENDROOT
BRANCH   1   2
ATOM      2  C   LIG    1       28.132 -21.240   7.442  0.00  0.00    -0.007 A 
ATOM      3  C   LIG    1       28.344 -20.134   6.571  0.00  0.00    +0.009 A 
ATOM      4  C   LIG    1       29.618 -19.517   6.601  0.00  0.00    +0.071 A 
ATOM      5  C   LIG    1       29.896 -18.497   5.704  0.00  0.00    +0.032 A 
ATOM      6  C   LIG    1       28.945 -18.037   4.792  0.00  0.00    +0.048 A 
ATOM      7  C   LIG    1       27.663 -18.565   4.802  0.00  0.00    +0.121 A 
ATOM      8  N   LIG    1       30.582 -19.862   7.467  0.00  0.00    -0.255 NA
ATOM      9  C   LIG    1       30.329 -20.861   8.331  0.00  0.00    +0.112 A 
ATOM     10  C   LIG    1       27.368 -19.599   5.691  0.00  0.00    +0.056 A 
ATOM     11  C   LIG    1       29.148 -21.575   8.351  0.00  0.00    +0.026 A 
BRANCH   7  12
ATOM     12  O   LIG    1       26.796 -18.018   3.899  0.00  0.00    -0.495 OA
ATOM     13  C   LIG    1       27.018 -16.655   3.554  0.00  0.00    +0.277 C 
ENDBRANCH   7  12
ENDBRANCH   1   2
BRANCH   1  17
ATOM     14  C   LIG    1       23.188 -21.039   5.242  0.00  0.00    +0.028 C 
ATOM     15  C   LIG    1       23.169 -21.353   6.764  0.00  0.00    -0.000 C 
ATOM     16  C   LIG    1       24.518 -21.024   7.429  0.00  0.00    +0.026 C 
ATOM     17  C   LIG    1       25.668 -21.613   6.574  0.00  0.00    +0.090 C 
ATOM     18  N   LIG    1       25.132 -22.616   5.604  0.00  0.00    -0.296 NA
ATOM     19  C   LIG    1       24.233 -23.573   6.281  0.00  0.00    +0.085 C 
ATOM     20  C   LIG    1       23.009 -22.880   6.905  0.00  0.00    +0.019 C 
ATOM     21  C   LIG    1       24.335 -21.866   4.591  0.00  0.00    +0.092 C 
BRANCH  14  23
ATOM     22  C   LIG    1       22.262 -18.797   4.542  0.00  0.00    +0.004 C 
ATOM     23  C   LIG    1       23.291 -19.561   4.927  0.00  0.00    -0.029 C 
ENDBRANCH  14  23
ENDBRANCH   1  17
BRANCH   1  24
ATOM     24  O   LIG    1       26.406 -22.196   8.834  0.00  0.00    -0.386 OA
ATOM     25  H   LIG    1       25.521 -22.600   8.819  0.00  0.00    +0.210 HD
ENDBRANCH   1  24
TORSDOF 5
ENDMDL
MODEL 4
REMARK VINA RESULT:      -7.5      1.937      6.907
REMARK  Name = *****
REMARK                            x       y       z     vdW  Elec       q    Type
REMARK                         _______ _______ _______ _____ _____    ______ ____
ROOT
ATOM      1  C   LIG    1       26.453 -20.377   7.960  0.00  0.00    +0.162 C 
ENDROOT
BRANCH   1   2
ATOM      2  C   LIG    1       25.684 -21.354   7.077  0.00  0.00    -0.007 A 
ATOM      3  C   LIG    1       25.196 -21.052   5.775  0.00  0.00    +0.009 A 
ATOM      4  C   LIG    1       24.419 -22.042   5.125  0.00  0.00    +0.071 A 
ATOM      5  C   LIG    1       23.848 -21.752   3.895  0.00  0.00    +0.032 A 
ATOM      6  C   LIG    1       24.043 -20.524   3.261  0.00  0.00    +0.048 A 
ATOM      7  C   LIG    1       24.870 -19.572   3.837  0.00  0.00    +0.121 A 
ATOM      8  N   LIG    1       24.209 -23.264   5.635  0.00  0.00    -0.255 NA
ATOM      9  C   LIG    1       24.745 -23.550   6.835  0.00  0.00    +0.112 A 
ATOM     10  C   LIG    1       25.445 -19.841   5.078  0.00  0.00    +0.056 A 
ATOM     11  C   LIG    1       25.466 -22.644   7.587  0.00  0.00    +0.026 A 
BRANCH   7  12
ATOM     12  O   LIG    1       25.028 -18.421   3.117  0.00  0.00    -0.495 OA
ATOM     13  C   LIG    1       26.154 -17.615   3.450  0.00  0.00    +0.277 C 
ENDBRANCH   7  12
ENDBRANCH   1   2
BRANCH   1  17
ATOM     14  C   LIG    1       30.866 -20.198   7.719  0.00  0.00    +0.028 C 
ATOM     15  C   LIG    1       29.994 -18.922   7.885  0.00  0.00    -0.000 C 
ATOM     16  C   LIG    1       28.664 -19.231   8.596  0.00  0.00    +0.026 C 
ATOM     17  C   LIG    1       28.016 -20.481   7.950  0.00  0.00    +0.090 C 
ATOM     18  N   LIG    1       28.656 -20.775   6.632  0.00  0.00    -0.296 NA
ATOM     19  C   LIG    1       28.741 -19.553   5.805  0.00  0.00    +0.085 C 
ATOM     20  C   LIG    1       29.600 -18.461   6.468  0.00  0.00    +0.019 C 
ATOM     21  C   LIG    1       30.044 -21.244   6.911  0.00  0.00    +0.092 C 
BRANCH  14  23
ATOM     22  C   LIG    1       31.211 -22.022   9.431  0.00  0.00    +0.004 C 
ATOM     23  C   LIG    1       31.382 -20.756   9.029  0.00  0.00    -0.029 C 
ENDBRANCH  14  23
ENDBRANCH   1  17
BRANCH   1  24
ATOM     24  O   LIG    1       25.982 -20.490   9.311  0.00  0.00    -0.386 OA
ATOM     25  H   LIG    1       25.494 -19.676   9.526  0.00  0.00    +0.210 HD
ENDBRANCH   1  24
TORSDOF 5
ENDMDL
MODEL 5
REMARK VINA RESULT:      -7.4      1.972      6.450
REMARK  Name = *****
REMARK                            x       y       z     vdW  Elec       q    Type
REMARK                         _______ _______ _______ _____ _____    ______ ____
ROOT
ATOM      1  C   LIG    1       26.206 -20.671   7.947  0.00  0.00    +0.162 C 
ENDROOT
BRANCH   1   2
ATOM      2  C   LIG    1       25.485 -21.173   6.700  0.00  0.00    -0.007 A 
ATOM      3  C   LIG    1       25.369 -22.544   6.332  0.00  0.00    +0.009 A 
ATOM      4  C   LIG    1       24.748 -22.834   5.093  0.00  0.00    +0.071 A 
ATOM      5  C   LIG    1       24.698 -24.149   4.655  0.00  0.00    +0.032 A 
ATOM      6  C   LIG    1       25.214 -25.200   5.414  0.00  0.00    +0.048 A 
ATOM      7  C   LIG    1       25.748 -24.951   6.669  0.00  0.00    +0.121 A 
ATOM      8  N   LIG    1       24.189 -21.898   4.313  0.00  0.00    -0.255 NA
ATOM      9  C   LIG    1       24.246 -20.617   4.721  0.00  0.00    +0.112 A 
ATOM     10  C   LIG    1       25.816 -23.634   7.122  0.00  0.00    +0.056 A 
ATOM     11  C   LIG    1       24.880 -20.210   5.877  0.00  0.00    +0.026 A 
BRANCH   7  12
ATOM     12  O   LIG    1       26.187 -26.052   7.348  0.00  0.00    -0.495 OA
ATOM     13  C   LIG    1       25.671 -27.308   6.919  0.00  0.00    +0.277 C 
ENDBRANCH   7  12
ENDBRANCH   1   2
BRANCH   1  17
ATOM     14  C   LIG    1       30.608 -20.326   7.689  0.00  0.00    +0.028 C 
ATOM     15  C   LIG    1       29.687 -19.082   7.835  0.00  0.00    -0.000 C 
ATOM     16  C   LIG    1       28.372 -19.429   8.556  0.00  0.00    +0.026 C 
ATOM     17  C   LIG    1       27.772 -20.716   7.934  0.00  0.00    +0.090 C 
ATOM     18  N   LIG    1       28.420 -21.008   6.619  0.00  0.00    -0.296 NA
ATOM     19  C   LIG    1       28.455 -19.797   5.771  0.00  0.00    +0.085 C 
ATOM     20  C   LIG    1       29.272 -18.662   6.412  0.00  0.00    +0.019 C 
ATOM     21  C   LIG    1       29.825 -21.417   6.902  0.00  0.00    +0.092 C 
BRANCH  14  23
ATOM     22  C   LIG    1       31.130 -22.125   9.382  0.00  0.00    +0.004 C 
ATOM     23  C   LIG    1       31.149 -20.840   9.007  0.00  0.00    -0.029 C 
ENDBRANCH  14  23
ENDBRANCH   1  17
BRANCH   1  24
ATOM     24  O   LIG    1       25.724 -21.390   9.092  0.00  0.00    -0.386 OA
ATOM     25  H   LIG    1       26.383 -22.069   9.317  0.00  0.00    +0.210 HD
ENDBRANCH   1  24
TORSDOF 5
ENDMDL
MODEL 6
REMARK VINA RESULT:      -7.0      2.904      5.355
REMARK  Name = *****
REMARK                            x       y       z     vdW  Elec       q    Type
REMARK                         _______ _______ _______ _____ _____    ______ ____
ROOT
ATOM      1  C   LIG    1       23.685 -23.484   6.942  0.00  0.00    +0.162 C 
ENDROOT
BRANCH   1   2
ATOM      2  C   LIG    1       24.290 -22.449   5.999  0.00  0.00    -0.007 A 
ATOM      3  C   LIG    1       25.518 -21.767   6.231  0.00  0.00    +0.009 A 
ATOM      4  C   LIG    1       25.893 -20.767   5.301  0.00  0.00    +0.071 A 
ATOM      5  C   LIG    1       27.033 -20.016   5.540  0.00  0.00    +0.032 A 
ATOM      6  C   LIG    1       27.845 -20.240   6.654  0.00  0.00    +0.048 A 
ATOM      7  C   LIG    1       27.547 -21.272   7.531  0.00  0.00    +0.121 A 
ATOM      8  N   LIG    1       25.200 -20.506   4.183  0.00  0.00    -0.255 NA
ATOM      9  C   LIG    1       24.083 -21.217   3.949  0.00  0.00    +0.112 A 
ATOM     10  C   LIG    1       26.397 -22.030   7.313  0.00  0.00    +0.056 A 
ATOM     11  C   LIG    1       23.588 -22.172   4.815  0.00  0.00    +0.026 A 
BRANCH   7  12
ATOM     12  O   LIG    1       28.426 -21.433   8.565  0.00  0.00    -0.495 OA
ATOM     13  C   LIG    1       29.800 -21.211   8.268  0.00  0.00    +0.277 C 
ENDBRANCH   7  12
ENDBRANCH   1   2
BRANCH   1  17
ATOM     14  C   LIG    1       25.811 -27.348   6.600  0.00  0.00    +0.028 C 
ATOM     15  C   LIG    1       26.360 -26.042   5.961  0.00  0.00    -0.000 C 
ATOM     16  C   LIG    1       25.887 -24.792   6.725  0.00  0.00    +0.026 C 
ATOM     17  C   LIG    1       24.363 -24.896   6.983  0.00  0.00    +0.090 C 
ATOM     18  N   LIG    1       23.760 -25.951   6.112  0.00  0.00    -0.296 NA
ATOM     19  C   LIG    1       24.201 -25.789   4.710  0.00  0.00    +0.085 C 
ATOM     20  C   LIG    1       25.726 -25.926   4.561  0.00  0.00    +0.019 C 
ATOM     21  C   LIG    1       24.256 -27.267   6.606  0.00  0.00    +0.092 C 
BRANCH  14  23
ATOM     22  C   LIG    1       26.009 -28.672   8.741  0.00  0.00    +0.004 C 
ATOM     23  C   LIG    1       26.379 -27.639   7.973  0.00  0.00    -0.029 C 
ENDBRANCH  14  23
ENDBRANCH   1  17
BRANCH   1  24
ATOM     24  O   LIG    1       22.290 -23.640   6.640  0.00  0.00    -0.386 OA
ATOM     25  H   LIG    1       21.923 -24.295   7.258  0.00  0.00    +0.210 HD
ENDBRANCH   1  24
TORSDOF 5
ENDMDL
MODEL 7
REMARK VINA RESULT:      -7.0      2.488      6.494
REMARK  Name = *****
REMARK                            x       y       z     vdW  Elec       q    Type
REMARK                         _______ _______ _______ _____ _____    ______ ____
ROOT
ATOM      1  C   LIG    1       26.560 -20.557   5.274  0.00  0.00    +0.162 C 
ENDROOT
BRANCH   1   2
ATOM      2  C   LIG    1       25.193 -21.069   5.717  0.00  0.00    -0.007 A 
ATOM      3  C   LIG    1       24.900 -22.429   6.020  0.00  0.00    +0.009 A 
ATOM      4  C   LIG    1       23.556 -22.753   6.326  0.00  0.00    +0.071 A 
ATOM      5  C   LIG    1       23.212 -24.080   6.536  0.00  0.00    +0.032 A 
ATOM      6  C   LIG    1       24.159 -25.104   6.487  0.00  0.00    +0.048 A 
ATOM      7  C   LIG    1       25.496 -24.802   6.276  0.00  0.00    +0.121 A 
ATOM      8  N   LIG    1       22.585 -21.835   6.434  0.00  0.00    -0.255 NA
ATOM      9  C   LIG    1       22.904 -20.547   6.217  0.00  0.00    +0.112 A 
ATOM     10  C   LIG    1       25.859 -23.475   6.052  0.00  0.00    +0.056 A 
ATOM     11  C   LIG    1       24.165 -20.122   5.851  0.00  0.00    +0.026 A 
BRANCH   7  12
ATOM     12  O   LIG    1       26.347 -25.871   6.287  0.00  0.00    -0.495 OA
ATOM     13  C   LIG    1       26.104 -26.884   5.316  0.00  0.00    +0.277 C 
ENDBRANCH   7  12
ENDBRANCH   1   2
BRANCH   1  17
ATOM     14  C   LIG    1       29.501 -19.425   8.377  0.00  0.00    +0.028 C 
ATOM     15  C   LIG    1       29.861 -20.382   7.206  0.00  0.00    -0.000 C 
ATOM     16  C   LIG    1       28.995 -20.109   5.962  0.00  0.00    +0.026 C 
ATOM     17  C   LIG    1       27.509 -19.998   6.388  0.00  0.00    +0.090 C 
ATOM     18  N   LIG    1       27.320 -20.549   7.764  0.00  0.00    -0.296 NA
ATOM     19  C   LIG    1       27.964 -21.874   7.891  0.00  0.00    +0.085 C 
ATOM     20  C   LIG    1       29.484 -21.806   7.658  0.00  0.00    +0.019 C 
ATOM     21  C   LIG    1       27.992 -19.613   8.709  0.00  0.00    +0.092 C 
BRANCH  14  23
ATOM     22  C   LIG    1       30.360 -17.142   9.028  0.00  0.00    +0.004 C 
ATOM     23  C   LIG    1       29.858 -17.978   8.111  0.00  0.00    -0.029 C 
ENDBRANCH  14  23
ENDBRANCH   1  17
BRANCH   1  24
ATOM     24  O   LIG    1       26.383 -19.557   4.259  0.00  0.00    -0.386 OA
ATOM     25  H   LIG    1       26.081 -18.741   4.694  0.00  0.00    +0.210 HD
ENDBRANCH   1  24
TORSDOF 5
ENDMDL
MODEL 8
REMARK VINA RESULT:      -6.9      7.349     10.475
REMARK  Name = *****
REMARK                            x       y       z     vdW  Elec       q    Type
REMARK                         _______ _______ _______ _____ _____    ______ ____
ROOT
ATOM      1  C   LIG    1       26.313 -29.759   9.866  0.00  0.00    +0.162 C 
ENDROOT
BRANCH   1   2
ATOM      2  C   LIG    1       25.466 -29.929   8.608  0.00  0.00    -0.007 A 
ATOM      3  C   LIG    1       25.272 -28.918   7.625  0.00  0.00    +0.009 A 
ATOM      4  C   LIG    1       24.380 -29.205   6.563  0.00  0.00    +0.071 A 
ATOM      5  C   LIG    1       24.092 -28.215   5.636  0.00  0.00    +0.032 A 
ATOM      6  C   LIG    1       24.682 -26.952   5.698  0.00  0.00    +0.048 A 
ATOM      7  C   LIG    1       25.625 -26.676   6.676  0.00  0.00    +0.121 A 
ATOM      8  N   LIG    1       23.795 -30.401   6.398  0.00  0.00    -0.255 NA
ATOM      9  C   LIG    1       24.054 -31.363   7.301  0.00  0.00    +0.112 A 
ATOM     10  C   LIG    1       25.919 -27.655   7.624  0.00  0.00    +0.056 A 
ATOM     11  C   LIG    1       24.857 -31.178   8.408  0.00  0.00    +0.026 A 
BRANCH   7  12
ATOM     12  O   LIG    1       26.173 -25.425   6.625  0.00  0.00    -0.495 OA
ATOM     13  C   LIG    1       25.260 -24.337   6.530  0.00  0.00    +0.277 C 
ENDBRANCH   7  12
ENDBRANCH   1   2
BRANCH   1  17
ATOM     14  C   LIG    1       24.827 -27.948  13.617  0.00  0.00    +0.028 C 
ATOM     15  C   LIG    1       26.307 -27.815  13.164  0.00  0.00    -0.000 C 
ATOM     16  C   LIG    1       26.444 -27.898  11.632  0.00  0.00    +0.026 C 
ATOM     17  C   LIG    1       25.623 -29.104  11.110  0.00  0.00    +0.090 C 
ATOM     18  N   LIG    1       25.273 -30.021  12.238  0.00  0.00    -0.296 NA
ATOM     19  C   LIG    1       26.464 -30.316  13.063  0.00  0.00    +0.085 C 
ATOM     20  C   LIG    1       27.055 -29.049  13.705  0.00  0.00    +0.019 C 
ATOM     21  C   LIG    1       24.281 -29.308  13.093  0.00  0.00    +0.092 C 
BRANCH  14  23
ATOM     22  C   LIG    1       22.621 -26.766  13.283  0.00  0.00    +0.004 C 
ATOM     23  C   LIG    1       23.957 -26.779  13.204  0.00  0.00    -0.029 C 
ENDBRANCH  14  23
ENDBRANCH   1  17
BRANCH   1  24
ATOM     24  O   LIG    1       27.499 -29.018   9.539  0.00  0.00    -0.386 OA
ATOM     25  H   LIG    1       28.154 -29.181  10.240  0.00  0.00    +0.210 HD
ENDBRANCH   1  24
TORSDOF 5
ENDMDL
MODEL 9
REMARK VINA RESULT:      -6.8      5.167      7.854
REMARK  Name = *****
REMARK                            x       y       z     vdW  Elec       q    Type
REMARK                         _______ _______ _______ _____ _____    ______ ____
ROOT
ATOM      1  C   LIG    1       26.726 -26.650   6.019  0.00  0.00    +0.162 C 
ENDROOT
BRANCH   1   2
ATOM      2  C   LIG    1       25.750 -27.742   6.446  0.00  0.00    -0.007 A 
ATOM      3  C   LIG    1       25.712 -28.328   7.743  0.00  0.00    +0.009 A 
ATOM      4  C   LIG    1       24.806 -29.396   7.948  0.00  0.00    +0.071 A 
ATOM      5  C   LIG    1       24.804 -30.055   9.168  0.00  0.00    +0.032 A 
ATOM      6  C   LIG    1       25.647 -29.674  10.214  0.00  0.00    +0.048 A 
ATOM      7  C   LIG    1       26.480 -28.576  10.067  0.00  0.00    +0.121 A 
ATOM      8  N   LIG    1       23.931 -29.808   7.019  0.00  0.00    -0.255 NA
ATOM      9  C   LIG    1       23.936 -29.187   5.826  0.00  0.00    +0.112 A 
ATOM     10  C   LIG    1       26.504 -27.908   8.843  0.00  0.00    +0.056 A 
ATOM     11  C   LIG    1       24.816 -28.177   5.492  0.00  0.00    +0.026 A 
BRANCH   7  12
ATOM     12  O   LIG    1       27.234 -28.262  11.162  0.00  0.00    -0.495 OA
ATOM     13  C   LIG    1       28.097 -29.283  11.651  0.00  0.00    +0.277 C 
ENDBRANCH   7  12
ENDBRANCH   1   2
BRANCH   1  17
ATOM     14  C   LIG    1       24.732 -22.703   5.988  0.00  0.00    +0.028 C 
ATOM     15  C   LIG    1       24.523 -23.726   7.138  0.00  0.00    -0.000 C 
ATOM     16  C   LIG    1       25.740 -24.654   7.303  0.00  0.00    +0.026 C 
ATOM     17  C   LIG    1       26.166 -25.191   5.913  0.00  0.00    +0.090 C 
ATOM     18  N   LIG    1       25.077 -24.967   4.914  0.00  0.00    -0.296 NA
ATOM     19  C   LIG    1       23.774 -25.420   5.446  0.00  0.00    +0.085 C 
ATOM     20  C   LIG    1       23.364 -24.648   6.713  0.00  0.00    +0.019 C 
ATOM     21  C   LIG    1       24.995 -23.497   4.675  0.00  0.00    +0.092 C 
BRANCH  14  23
ATOM     22  C   LIG    1       25.728 -20.727   7.206  0.00  0.00    +0.004 C 
ATOM     23  C   LIG    1       25.815 -21.682   6.271  0.00  0.00    -0.029 C 
ENDBRANCH  14  23
ENDBRANCH   1  17
BRANCH   1  24
ATOM     24  O   LIG    1       27.326 -27.017   4.767  0.00  0.00    -0.386 OA
ATOM     25  H   LIG    1       28.156 -26.517   4.677  0.00  0.00    +0.210 HD
ENDBRANCH   1  24
TORSDOF 5
ENDMDL
