MODEL 1
REMARK VINA RESULT:       3.2      0.000      0.000
REMARK  Name = *****
REMARK                            x       y       z     vdW  Elec       q    Type
REMARK                         _______ _______ _______ _____ _____    ______ ____
ROOT
ATOM      1  C   LIG    1       24.776 -16.167   4.140  0.00  0.00    +0.068 C 
ATOM      2  C   LIG    1       25.369 -14.848   4.662  0.00  0.00    +0.097 C 
ATOM      3  C   LIG    1       26.873 -14.967   4.906  0.00  0.00    +0.065 C 
ATOM      4  C   LIG    1       27.588 -15.916   4.254  0.00  0.00    +0.016 C 
ATOM      5  C   LIG    1       29.053 -16.186   4.475  0.00  0.00    +0.061 C 
ATOM      6  N   LIG    1       26.936 -16.766   3.363  0.00  0.00    -0.319 N 
ATOM      7  H   LIG    1       27.486 -17.549   3.005  0.00  0.00    +0.152 HD
ATOM      8  C   LIG    1       25.565 -17.036   3.459  0.00  0.00    +0.045 C 
ENDROOT
BRANCH   2   9
ATOM      9  C   LIG    1       25.035 -13.671   3.716  0.00  0.00    -0.017 A 
ATOM     10  C   LIG    1       25.855 -13.279   2.640  0.00  0.00    +0.045 A 
ATOM     11 CL   LIG    1       27.332 -14.081   2.229  0.00  0.00    -0.083 Cl
ATOM     12  C   LIG    1       25.495 -12.201   1.816  0.00  0.00    +0.020 A 
ATOM     13  C   LIG    1       24.308 -11.505   2.031  0.00  0.00    +0.001 A 
ATOM     14  C   LIG    1       23.485 -11.869   3.088  0.00  0.00    +0.000 A 
ATOM     15  C   LIG    1       23.846 -12.933   3.920  0.00  0.00    +0.006 A 
ENDBRANCH   2   9
BRANCH   1  16
ATOM     16  C   LIG    1       23.354 -16.433   4.461  0.00  0.00    +0.338 C 
ATOM     17  O   LIG    1       22.535 -15.618   4.884  0.00  0.00    -0.245 OA
BRANCH  16  18
ATOM     18  O   LIG    1       23.099 -17.742   4.278  0.00  0.00    -0.462 OA
BRANCH  18  20
ATOM     19  C   LIG    1       21.652 -19.655   4.281  0.00  0.00    +0.048 C 
ATOM     20  C   LIG    1       21.844 -18.224   4.753  0.00  0.00    +0.229 C 
ENDBRANCH  18  20
ENDBRANCH  16  18
ENDBRANCH   1  16
BRANCH   3  21
ATOM     21  C   LIG    1       27.400 -14.046   5.947  0.00  0.00    +0.337 C 
ATOM     22  O   LIG    1       26.797 -13.749   6.964  0.00  0.00    -0.245 OA
BRANCH  21  23
ATOM     23  O   LIG    1       28.598 -13.544   5.571  0.00  0.00    -0.465 OA
ATOM     24  C   LIG    1       28.626 -12.165   5.213  0.00  0.00    +0.280 C 
ENDBRANCH  21  23
ENDBRANCH   3  21
BRANCH   8  25
ATOM     25  C   LIG    1       25.113 -18.327   2.804  0.00  0.00    +0.211 C 
BRANCH  25  26
ATOM     26  O   LIG    1       25.536 -19.411   3.637  0.00  0.00    -0.373 OA
BRANCH  26  27
ATOM     27  C   LIG    1       24.709 -20.561   3.435  0.00  0.00    +0.175 C 
BRANCH  27  28
ATOM     28  C   LIG    1       24.537 -21.299   4.766  0.00  0.00    +0.106 C 
BRANCH  28  29
ATOM     29  N   LIG    1       25.177 -20.585   5.873  0.00  0.00    -0.328 NA
ATOM     30  H   LIG    1       25.192 -19.587   5.676  0.00  0.00    +0.118 HD
ATOM     31  H   LIG    1       24.597 -20.712   6.706  0.00  0.00    +0.118 HD
ENDBRANCH  28  29
ENDBRANCH  27  28
ENDBRANCH  26  27
ENDBRANCH  25  26
ENDBRANCH   8  25
TORSDOF 11
ENDMDL
MODEL 2
REMARK VINA RESULT:       3.8      2.760      5.911
REMARK  Name = *****
REMARK                            x       y       z     vdW  Elec       q    Type
REMARK                         _______ _______ _______ _____ _____    ______ ____
ROOT
ATOM      1  C   LIG    1       24.740 -18.812   3.977  0.00  0.00    +0.068 C 
ATOM      2  C   LIG    1       23.266 -18.383   3.878  0.00  0.00    +0.097 C 
ATOM      3  C   LIG    1       22.331 -19.461   4.426  0.00  0.00    +0.065 C 
ATOM      4  C   LIG    1       22.801 -20.372   5.313  0.00  0.00    +0.016 C 
ATOM      5  C   LIG    1       22.002 -21.529   5.855  0.00  0.00    +0.061 C 
ATOM      6  N   LIG    1       24.132 -20.304   5.717  0.00  0.00    -0.319 N 
ATOM      7  H   LIG    1       24.473 -21.089   6.274  0.00  0.00    +0.152 HD
ATOM      8  C   LIG    1       25.120 -19.699   4.929  0.00  0.00    +0.045 C 
ENDROOT
BRANCH   2   9
ATOM      9  C   LIG    1       23.033 -17.019   4.569  0.00  0.00    -0.017 A 
ATOM     10  C   LIG    1       23.596 -15.811   4.117  0.00  0.00    +0.045 A 
ATOM     11 CL   LIG    1       24.605 -15.696   2.717  0.00  0.00    -0.083 Cl
ATOM     12  C   LIG    1       23.345 -14.603   4.790  0.00  0.00    +0.020 A 
ATOM     13  C   LIG    1       22.517 -14.570   5.909  0.00  0.00    +0.001 A 
ATOM     14  C   LIG    1       21.953 -15.750   6.376  0.00  0.00    +0.000 A 
ATOM     15  C   LIG    1       22.211 -16.956   5.719  0.00  0.00    +0.006 A 
ENDBRANCH   2   9
BRANCH   1  16
ATOM     16  C   LIG    1       25.668 -18.246   2.970  0.00  0.00    +0.338 C 
ATOM     17  O   LIG    1       26.090 -18.814   1.962  0.00  0.00    -0.245 OA
BRANCH  16  18
ATOM     18  O   LIG    1       26.042 -17.013   3.359  0.00  0.00    -0.462 OA
BRANCH  18  20
ATOM     19  C   LIG    1       27.631 -15.401   4.154  0.00  0.00    +0.048 C 
ATOM     20  C   LIG    1       27.396 -16.854   3.776  0.00  0.00    +0.229 C 
ENDBRANCH  18  20
ENDBRANCH  16  18
ENDBRANCH   1  16
BRANCH   3  21
ATOM     21  C   LIG    1       20.969 -19.450   3.832  0.00  0.00    +0.337 C 
ATOM     22  O   LIG    1       20.228 -20.419   3.806  0.00  0.00    -0.245 OA
BRANCH  21  23
ATOM     23  O   LIG    1       20.705 -18.246   3.275  0.00  0.00    -0.465 OA
ATOM     24  C   LIG    1       19.454 -18.116   2.606  0.00  0.00    +0.280 C 
ENDBRANCH  21  23
ENDBRANCH   3  21
BRANCH   8  25
ATOM     25  C   LIG    1       26.539 -20.149   5.215  0.00  0.00    +0.211 C 
BRANCH  25  26
ATOM     26  O   LIG    1       26.697 -20.224   6.635  0.00  0.00    -0.373 OA
BRANCH  26  27
ATOM     27  C   LIG    1       27.630 -21.250   6.990  0.00  0.00    +0.175 C 
BRANCH  27  28
ATOM     28  C   LIG    1       29.052 -20.763   6.696  0.00  0.00    +0.106 C 
BRANCH  28  29
ATOM     29  N   LIG    1       29.234 -19.356   7.062  0.00  0.00    -0.328 NA
ATOM     30  H   LIG    1       29.004 -18.762   6.269  0.00  0.00    +0.118 HD
ATOM     31  H   LIG    1       28.564 -19.135   7.801  0.00  0.00    +0.118 HD
ENDBRANCH  28  29
ENDBRANCH  27  28
ENDBRANCH  26  27
ENDBRANCH  25  26
ENDBRANCH   8  25
TORSDOF 11
ENDMDL
MODEL 3
REMARK VINA RESULT:       4.7      2.366      5.699
REMARK  Name = *****
REMARK                            x       y       z     vdW  Elec       q    Type
REMARK                         _______ _______ _______ _____ _____    ______ ____
ROOT
ATOM      1  C   LIG    1       26.371 -14.772   3.197  0.00  0.00    +0.068 C 
ATOM      2  C   LIG    1       25.603 -16.105   3.217  0.00  0.00    +0.097 C 
ATOM      3  C   LIG    1       26.490 -17.254   3.694  0.00  0.00    +0.065 C 
ATOM      4  C   LIG    1       27.581 -16.993   4.455  0.00  0.00    +0.016 C 
ATOM      5  C   LIG    1       28.574 -18.030   4.911  0.00  0.00    +0.061 C 
ATOM      6  N   LIG    1       27.870 -15.674   4.797  0.00  0.00    -0.319 N 
ATOM      7  H   LIG    1       28.772 -15.515   5.251  0.00  0.00    +0.152 HD
ATOM      8  C   LIG    1       27.425 -14.590   4.030  0.00  0.00    +0.045 C 
ENDROOT
BRANCH   2   9
ATOM      9  C   LIG    1       24.311 -15.993   4.059  0.00  0.00    -0.017 A 
ATOM     10  C   LIG    1       23.319 -16.991   4.100  0.00  0.00    +0.045 A 
ATOM     11 CL   LIG    1       23.433 -18.481   3.228  0.00  0.00    -0.083 Cl
ATOM     12  C   LIG    1       22.166 -16.830   4.887  0.00  0.00    +0.020 A 
ATOM     13  C   LIG    1       21.986 -15.686   5.659  0.00  0.00    +0.001 A 
ATOM     14  C   LIG    1       22.948 -14.685   5.633  0.00  0.00    +0.000 A 
ATOM     15  C   LIG    1       24.090 -14.835   4.840  0.00  0.00    +0.006 A 
ENDBRANCH   2   9
BRANCH   1  16
ATOM     16  C   LIG    1       25.924 -13.760   2.210  0.00  0.00    +0.338 C 
ATOM     17  O   LIG    1       26.567 -12.786   1.819  0.00  0.00    -0.245 OA
BRANCH  16  18
ATOM     18  O   LIG    1       24.659 -14.032   1.843  0.00  0.00    -0.462 OA
BRANCH  18  20
ATOM     19  C   LIG    1       24.257 -11.676   2.041  0.00  0.00    +0.048 C 
ATOM     20  C   LIG    1       23.667 -13.068   2.190  0.00  0.00    +0.229 C 
ENDBRANCH  18  20
ENDBRANCH  16  18
ENDBRANCH   1  16
BRANCH   3  21
ATOM     21  C   LIG    1       26.095 -18.590   3.173  0.00  0.00    +0.337 C 
ATOM     22  O   LIG    1       25.568 -18.770   2.088  0.00  0.00    -0.245 OA
BRANCH  21  23
ATOM     23  O   LIG    1       26.343 -19.549   4.093  0.00  0.00    -0.465 OA
ATOM     24  C   LIG    1       25.212 -20.088   4.770  0.00  0.00    +0.280 C 
ENDBRANCH  21  23
ENDBRANCH   3  21
BRANCH   8  25
ATOM     25  C   LIG    1       28.222 -13.311   4.195  0.00  0.00    +0.211 C 
BRANCH  25  26
ATOM     26  O   LIG    1       28.203 -12.960   5.582  0.00  0.00    -0.373 OA
BRANCH  26  27
ATOM     27  C   LIG    1       26.868 -12.981   6.095  0.00  0.00    +0.175 C 
BRANCH  27  28
ATOM     28  C   LIG    1       25.981 -12.080   5.230  0.00  0.00    +0.106 C 
BRANCH  28  29
ATOM     29  N   LIG    1       24.873 -11.506   5.997  0.00  0.00    -0.328 NA
ATOM     30  H   LIG    1       25.224 -11.117   6.870  0.00  0.00    +0.118 HD
ATOM     31  H   LIG    1       24.489 -10.726   5.460  0.00  0.00    +0.118 HD
ENDBRANCH  28  29
ENDBRANCH  27  28
ENDBRANCH  26  27
ENDBRANCH  25  26
ENDBRANCH   8  25
TORSDOF 11
ENDMDL
MODEL 4
REMARK VINA RESULT:       4.7      2.312      6.030
REMARK  Name = *****
REMARK                            x       y       z     vdW  Elec       q    Type
REMARK                         _______ _______ _______ _____ _____    ______ ____
ROOT
ATOM      1  C   LIG    1       26.339 -15.510   3.349  0.00  0.00    +0.068 C 
ATOM      2  C   LIG    1       25.379 -16.710   3.303  0.00  0.00    +0.097 C 
ATOM      3  C   LIG    1       26.068 -17.998   3.752  0.00  0.00    +0.065 C 
ATOM      4  C   LIG    1       27.167 -17.933   4.544  0.00  0.00    +0.016 C 
ATOM      5  C   LIG    1       27.980 -19.124   4.978  0.00  0.00    +0.061 C 
ATOM      6  N   LIG    1       27.644 -16.686   4.943  0.00  0.00    -0.319 N 
ATOM      7  H   LIG    1       28.547 -16.683   5.420  0.00  0.00    +0.152 HD
ATOM      8  C   LIG    1       27.388 -15.521   4.210  0.00  0.00    +0.045 C 
ENDROOT
BRANCH   2   9
ATOM      9  C   LIG    1       24.097 -16.433   4.123  0.00  0.00    -0.017 A 
ATOM     10  C   LIG    1       22.996 -17.310   4.168  0.00  0.00    +0.045 A 
ATOM     11 CL   LIG    1       22.948 -18.821   3.326  0.00  0.00    -0.083 Cl
ATOM     12  C   LIG    1       21.860 -17.000   4.934  0.00  0.00    +0.020 A 
ATOM     13  C   LIG    1       21.803 -15.828   5.681  0.00  0.00    +0.001 A 
ATOM     14  C   LIG    1       22.874 -14.945   5.650  0.00  0.00    +0.000 A 
ATOM     15  C   LIG    1       24.002 -15.242   4.878  0.00  0.00    +0.006 A 
ENDBRANCH   2   9
BRANCH   1  16
ATOM     16  C   LIG    1       26.076 -14.408   2.394  0.00  0.00    +0.338 C 
ATOM     17  O   LIG    1       26.921 -13.727   1.813  0.00  0.00    -0.245 OA
BRANCH  16  18
ATOM     18  O   LIG    1       24.748 -14.213   2.302  0.00  0.00    -0.462 OA
BRANCH  18  20
ATOM     19  C   LIG    1       24.170 -12.099   3.277  0.00  0.00    +0.048 C 
ATOM     20  C   LIG    1       24.312 -12.892   1.989  0.00  0.00    +0.229 C 
ENDBRANCH  18  20
ENDBRANCH  16  18
ENDBRANCH   1  16
BRANCH   3  21
ATOM     21  C   LIG    1       25.490 -19.238   3.171  0.00  0.00    +0.337 C 
ATOM     22  O   LIG    1       25.605 -19.562   2.001  0.00  0.00    -0.245 OA
BRANCH  21  23
ATOM     23  O   LIG    1       24.773 -19.907   4.103  0.00  0.00    -0.465 OA
ATOM     24  C   LIG    1       25.183 -21.241   4.384  0.00  0.00    +0.280 C 
ENDBRANCH  21  23
ENDBRANCH   3  21
BRANCH   8  25
ATOM     25  C   LIG    1       28.364 -14.384   4.440  0.00  0.00    +0.211 C 
BRANCH  25  26
ATOM     26  O   LIG    1       27.696 -13.384   5.215  0.00  0.00    -0.373 OA
BRANCH  26  27
ATOM     27  C   LIG    1       28.528 -12.232   5.384  0.00  0.00    +0.175 C 
BRANCH  27  28
ATOM     28  C   LIG    1       29.475 -12.111   4.187  0.00  0.00    +0.106 C 
BRANCH  28  29
ATOM     29  N   LIG    1       28.745 -11.939   2.929  0.00  0.00    -0.328 NA
ATOM     30  H   LIG    1       27.873 -11.443   3.102  0.00  0.00    +0.118 HD
ATOM     31  H   LIG    1       29.307 -11.342   2.318  0.00  0.00    +0.118 HD
ENDBRANCH  28  29
ENDBRANCH  27  28
ENDBRANCH  26  27
ENDBRANCH  25  26
ENDBRANCH   8  25
TORSDOF 11
ENDMDL
MODEL 5
REMARK VINA RESULT:       4.9      2.779      5.154
REMARK  Name = *****
REMARK                            x       y       z     vdW  Elec       q    Type
REMARK                         _______ _______ _______ _____ _____    ______ ____
ROOT
ATOM      1  C   LIG    1       24.743 -18.416   3.379  0.00  0.00    +0.068 C 
ATOM      2  C   LIG    1       26.010 -17.546   3.330  0.00  0.00    +0.097 C 
ATOM      3  C   LIG    1       25.686 -16.070   3.559  0.00  0.00    +0.065 C 
ATOM      4  C   LIG    1       24.550 -15.724   4.213  0.00  0.00    +0.016 C 
ATOM      5  C   LIG    1       24.081 -14.307   4.423  0.00  0.00    +0.061 C 
ATOM      6  N   LIG    1       23.699 -16.726   4.675  0.00  0.00    -0.319 N 
ATOM      7  H   LIG    1       22.795 -16.416   5.035  0.00  0.00    +0.152 HD
ATOM      8  C   LIG    1       23.671 -18.003   4.100  0.00  0.00    +0.045 C 
ENDROOT
BRANCH   2   9
ATOM      9  C   LIG    1       27.079 -18.057   4.325  0.00  0.00    -0.017 A 
ATOM     10  C   LIG    1       26.890 -19.168   5.168  0.00  0.00    +0.045 A 
ATOM     11 CL   LIG    1       25.443 -20.116   5.182  0.00  0.00    -0.083 Cl
ATOM     12  C   LIG    1       27.902 -19.582   6.050  0.00  0.00    +0.020 A 
ATOM     13  C   LIG    1       29.123 -18.915   6.098  0.00  0.00    +0.001 A 
ATOM     14  C   LIG    1       29.332 -17.814   5.279  0.00  0.00    +0.000 A 
ATOM     15  C   LIG    1       28.323 -17.388   4.409  0.00  0.00    +0.006 A 
ENDBRANCH   2   9
BRANCH   1  16
ATOM     16  C   LIG    1       24.759 -19.664   2.580  0.00  0.00    +0.338 C 
ATOM     17  O   LIG    1       25.680 -20.065   1.868  0.00  0.00    -0.245 OA
BRANCH  16  18
ATOM     18  O   LIG    1       23.567 -20.277   2.697  0.00  0.00    -0.462 OA
BRANCH  18  20
ATOM     19  C   LIG    1       22.630 -21.565   4.491  0.00  0.00    +0.048 C 
ATOM     20  C   LIG    1       23.566 -21.572   3.294  0.00  0.00    +0.229 C 
ENDBRANCH  18  20
ENDBRANCH  16  18
ENDBRANCH   1  16
BRANCH   3  21
ATOM     21  C   LIG    1       26.648 -15.126   2.931  0.00  0.00    +0.337 C 
ATOM     22  O   LIG    1       26.513 -14.657   1.814  0.00  0.00    -0.245 OA
BRANCH  21  23
ATOM     23  O   LIG    1       27.709 -14.923   3.744  0.00  0.00    -0.465 OA
ATOM     24  C   LIG    1       27.492 -14.084   4.875  0.00  0.00    +0.280 C 
ENDBRANCH  21  23
ENDBRANCH   3  21
BRANCH   8  25
ATOM     25  C   LIG    1       22.390 -18.783   4.322  0.00  0.00    +0.211 C 
BRANCH  25  26
ATOM     26  O   LIG    1       21.304 -17.852   4.319  0.00  0.00    -0.373 OA
BRANCH  26  27
ATOM     27  C   LIG    1       20.825 -17.634   2.988  0.00  0.00    +0.175 C 
BRANCH  27  28
ATOM     28  C   LIG    1       19.446 -18.283   2.834  0.00  0.00    +0.106 C 
BRANCH  28  29
ATOM     29  N   LIG    1       19.399 -19.614   3.443  0.00  0.00    -0.328 NA
ATOM     30  H   LIG    1       18.571 -20.111   3.120  0.00  0.00    +0.118 HD
ATOM     31  H   LIG    1       20.208 -20.142   3.108  0.00  0.00    +0.118 HD
ENDBRANCH  28  29
ENDBRANCH  27  28
ENDBRANCH  26  27
ENDBRANCH  25  26
ENDBRANCH   8  25
TORSDOF 11
ENDMDL
MODEL 6
REMARK VINA RESULT:       5.5      2.299      5.444
REMARK  Name = *****
REMARK                            x       y       z     vdW  Elec       q    Type
REMARK                         _______ _______ _______ _____ _____    ______ ____
ROOT
ATOM      1  C   LIG    1       26.301 -16.703   3.628  0.00  0.00    +0.068 C 
ATOM      2  C   LIG    1       24.829 -17.073   3.379  0.00  0.00    +0.097 C 
ATOM      3  C   LIG    1       24.601 -18.578   3.503  0.00  0.00    +0.065 C 
ATOM      4  C   LIG    1       25.463 -19.332   4.230  0.00  0.00    +0.016 C 
ATOM      5  C   LIG    1       25.392 -20.832   4.354  0.00  0.00    +0.061 C 
ATOM      6  N   LIG    1       26.542 -18.716   4.859  0.00  0.00    -0.319 N 
ATOM      7  H   LIG    1       27.236 -19.339   5.275  0.00  0.00    +0.152 HD
ATOM      8  C   LIG    1       27.073 -17.501   4.407  0.00  0.00    +0.045 C 
ENDROOT
BRANCH   2   9
ATOM      9  C   LIG    1       23.887 -16.273   4.309  0.00  0.00    -0.017 A 
ATOM     10  C   LIG    1       23.749 -14.873   4.261  0.00  0.00    +0.045 A 
ATOM     11 CL   LIG    1       24.603 -13.871   3.139  0.00  0.00    -0.083 Cl
ATOM     12  C   LIG    1       22.874 -14.205   5.134  0.00  0.00    +0.020 A 
ATOM     13  C   LIG    1       22.108 -14.915   6.055  0.00  0.00    +0.001 A 
ATOM     14  C   LIG    1       22.229 -16.296   6.124  0.00  0.00    +0.000 A 
ATOM     15  C   LIG    1       23.109 -16.964   5.267  0.00  0.00    +0.006 A 
ENDBRANCH   2   9
BRANCH   1  16
ATOM     16  C   LIG    1       26.808 -15.488   2.946  0.00  0.00    +0.338 C 
ATOM     17  O   LIG    1       26.408 -15.027   1.878  0.00  0.00    -0.245 OA
BRANCH  16  18
ATOM     18  O   LIG    1       27.839 -14.986   3.651  0.00  0.00    -0.462 OA
BRANCH  18  20
ATOM     19  C   LIG    1       27.182 -13.302   5.228  0.00  0.00    +0.048 C 
ATOM     20  C   LIG    1       27.834 -13.579   3.884  0.00  0.00    +0.229 C 
ENDBRANCH  18  20
ENDBRANCH  16  18
ENDBRANCH   1  16
BRANCH   3  21
ATOM     21  C   LIG    1       23.459 -19.094   2.704  0.00  0.00    +0.337 C 
ATOM     22  O   LIG    1       23.566 -19.922   1.816  0.00  0.00    -0.245 OA
BRANCH  21  23
ATOM     23  O   LIG    1       22.313 -18.468   3.059  0.00  0.00    -0.465 OA
ATOM     24  C   LIG    1       21.387 -19.227   3.831  0.00  0.00    +0.280 C 
ENDBRANCH  21  23
ENDBRANCH   3  21
BRANCH   8  25
ATOM     25  C   LIG    1       28.506 -17.228   4.821  0.00  0.00    +0.211 C 
BRANCH  25  26
ATOM     26  O   LIG    1       29.131 -18.488   5.086  0.00  0.00    -0.373 OA
BRANCH  26  27
ATOM     27  C   LIG    1       29.475 -18.604   6.471  0.00  0.00    +0.175 C 
BRANCH  27  28
ATOM     28  C   LIG    1       29.474 -20.083   6.869  0.00  0.00    +0.106 C 
BRANCH  28  29
ATOM     29  N   LIG    1       28.162 -20.702   6.668  0.00  0.00    -0.328 NA
ATOM     30  H   LIG    1       28.278 -21.632   6.272  0.00  0.00    +0.118 HD
ATOM     31  H   LIG    1       27.728 -20.824   7.586  0.00  0.00    +0.118 HD
ENDBRANCH  28  29
ENDBRANCH  27  28
ENDBRANCH  26  27
ENDBRANCH  25  26
ENDBRANCH   8  25
TORSDOF 11
ENDMDL
MODEL 7
REMARK VINA RESULT:       5.5      2.403      4.855
REMARK  Name = *****
REMARK                            x       y       z     vdW  Elec       q    Type
REMARK                         _______ _______ _______ _____ _____    ______ ____
ROOT
ATOM      1  C   LIG    1       24.557 -17.908   3.582  0.00  0.00    +0.068 C 
ATOM      2  C   LIG    1       25.789 -17.057   3.235  0.00  0.00    +0.097 C 
ATOM      3  C   LIG    1       25.476 -15.563   3.304  0.00  0.00    +0.065 C 
ATOM      4  C   LIG    1       24.438 -15.127   4.060  0.00  0.00    +0.016 C 
ATOM      5  C   LIG    1       23.979 -13.694   4.139  0.00  0.00    +0.061 C 
ATOM      6  N   LIG    1       23.677 -16.053   4.770  0.00  0.00    -0.319 N 
ATOM      7  H   LIG    1       22.828 -15.695   5.210  0.00  0.00    +0.152 HD
ATOM      8  C   LIG    1       23.590 -17.397   4.384  0.00  0.00    +0.045 C 
ENDROOT
BRANCH   2   9
ATOM      9  C   LIG    1       26.996 -17.429   4.128  0.00  0.00    -0.017 A 
ATOM     10  C   LIG    1       27.843 -16.479   4.729  0.00  0.00    +0.045 A 
ATOM     11 CL   LIG    1       27.627 -14.770   4.560  0.00  0.00    -0.083 Cl
ATOM     12  C   LIG    1       28.924 -16.882   5.531  0.00  0.00    +0.020 A 
ATOM     13  C   LIG    1       29.172 -18.231   5.765  0.00  0.00    +0.001 A 
ATOM     14  C   LIG    1       28.353 -19.188   5.181  0.00  0.00    +0.000 A 
ATOM     15  C   LIG    1       27.284 -18.792   4.370  0.00  0.00    +0.006 A 
ENDBRANCH   2   9
BRANCH   1  16
ATOM     16  C   LIG    1       24.481 -19.254   2.965  0.00  0.00    +0.338 C 
ATOM     17  O   LIG    1       23.835 -19.565   1.964  0.00  0.00    -0.245 OA
BRANCH  16  18
ATOM     18  O   LIG    1       25.186 -20.121   3.714  0.00  0.00    -0.462 OA
BRANCH  18  20
ATOM     19  C   LIG    1       24.394 -20.890   5.844  0.00  0.00    +0.048 C 
ATOM     20  C   LIG    1       24.452 -21.165   4.351  0.00  0.00    +0.229 C 
ENDBRANCH  18  20
ENDBRANCH  16  18
ENDBRANCH   1  16
BRANCH   3  21
ATOM     21  C   LIG    1       26.323 -14.716   2.424  0.00  0.00    +0.337 C 
ATOM     22  O   LIG    1       27.533 -14.833   2.325  0.00  0.00    -0.245 OA
BRANCH  21  23
ATOM     23  O   LIG    1       25.574 -13.772   1.812  0.00  0.00    -0.465 OA
ATOM     24  C   LIG    1       25.887 -12.416   2.117  0.00  0.00    +0.280 C 
ENDBRANCH  21  23
ENDBRANCH   3  21
BRANCH   8  25
ATOM     25  C   LIG    1       22.367 -18.137   4.890  0.00  0.00    +0.211 C 
BRANCH  25  26
ATOM     26  O   LIG    1       21.561 -18.476   3.757  0.00  0.00    -0.373 OA
BRANCH  26  27
ATOM     27  C   LIG    1       20.656 -19.537   4.076  0.00  0.00    +0.175 C 
BRANCH  27  28
ATOM     28  C   LIG    1       19.350 -19.338   3.300  0.00  0.00    +0.106 C 
BRANCH  28  29
ATOM     29  N   LIG    1       19.350 -18.084   2.544  0.00  0.00    -0.328 NA
ATOM     30  H   LIG    1       18.408 -17.878   2.218  0.00  0.00    +0.118 HD
ATOM     31  H   LIG    1       19.611 -17.331   3.185  0.00  0.00    +0.118 HD
ENDBRANCH  28  29
ENDBRANCH  27  28
ENDBRANCH  26  27
ENDBRANCH  25  26
ENDBRANCH   8  25
TORSDOF 11
ENDMDL
