MODEL 1
REMARK VINA RESULT:      -7.3      0.000      0.000
REMARK  Name = *****
REMARK                            x       y       z     vdW  Elec       q    Type
REMARK                         _______ _______ _______ _____ _____    ______ ____
ROOT
ATOM      1  C   LIG    1       27.637 -20.839   7.604  0.00  0.00    +0.234 C 
ATOM      2  N   LIG    1       27.159 -21.510   6.472  0.00  0.00    -0.284 N 
ATOM      3  H   LIG    1       27.711 -21.397   5.636  0.00  0.00    +0.155 HD
ATOM      4  O   LIG    1       26.907 -20.392   8.480  0.00  0.00    -0.274 OA
ENDROOT
BRANCH   2   5
ATOM      5  C   LIG    1       25.761 -21.641   6.260  0.00  0.00    +0.039 A 
ATOM      6  C   LIG    1       25.094 -20.709   5.432  0.00  0.00    -0.029 A 
ATOM      7  C   LIG    1       25.814 -19.654   4.637  0.00  0.00    +0.045 C 
ATOM      8  C   LIG    1       23.691 -20.761   5.345  0.00  0.00    +0.005 A 
ATOM      9  C   LIG    1       22.965 -21.721   6.045  0.00  0.00    +0.001 A 
ATOM     10  C   LIG    1       23.634 -22.689   6.785  0.00  0.00    +0.005 A 
ATOM     11  C   LIG    1       25.034 -22.686   6.865  0.00  0.00    -0.029 A 
ATOM     12  C   LIG    1       25.682 -23.878   7.517  0.00  0.00    +0.045 C 
ENDBRANCH   2   5
BRANCH   1  13
ATOM     13  C   LIG    1       29.188 -20.639   7.686  0.00  0.00    +0.143 C 
BRANCH  13  14
ATOM     14  C   LIG    1       29.789 -21.545   8.796  0.00  0.00    +0.025 C 
ATOM     15  C   LIG    1       31.264 -21.886   8.661  0.00  0.00    +0.006 C 
ENDBRANCH  13  14
BRANCH  13  16
ATOM     16  N   LIG    1       29.620 -19.207   7.675  0.00  0.00    -0.292 NA
BRANCH  16  17
ATOM     17  C   LIG    1       30.262 -18.767   6.423  0.00  0.00    +0.082 C 
ATOM     18  C   LIG    1       29.263 -18.341   5.342  0.00  0.00    +0.020 C 
ENDBRANCH  16  17
BRANCH  16  19
ATOM     19  C   LIG    1       30.411 -18.774   8.853  0.00  0.00    +0.085 C 
BRANCH  19  21
ATOM     20  C   LIG    1       30.422 -17.318  10.903  0.00  0.00    +0.005 C 
ATOM     21  C   LIG    1       30.243 -17.341   9.383  0.00  0.00    +0.012 C 
ENDBRANCH  19  21
ENDBRANCH  16  19
ENDBRANCH  13  16
ENDBRANCH   1  13
TORSDOF 7
ENDMDL
MODEL 2
REMARK VINA RESULT:      -7.1      1.379      6.422
REMARK  Name = *****
REMARK                            x       y       z     vdW  Elec       q    Type
REMARK                         _______ _______ _______ _____ _____    ______ ____
ROOT
ATOM      1  C   LIG    1       27.110 -21.002   7.857  0.00  0.00    +0.234 C 
ATOM      2  N   LIG    1       28.302 -21.189   7.145  0.00  0.00    -0.284 N 
ATOM      3  H   LIG    1       28.508 -22.141   6.888  0.00  0.00    +0.155 HD
ATOM      4  O   LIG    1       26.959 -20.123   8.696  0.00  0.00    -0.274 OA
ENDROOT
BRANCH   2   5
ATOM      5  C   LIG    1       29.436 -20.382   7.432  0.00  0.00    +0.039 A 
ATOM      6  C   LIG    1       30.374 -20.818   8.395  0.00  0.00    -0.029 A 
ATOM      7  C   LIG    1       30.315 -22.175   9.043  0.00  0.00    +0.045 C 
ATOM      8  C   LIG    1       31.412 -19.948   8.774  0.00  0.00    +0.005 A 
ATOM      9  C   LIG    1       31.531 -18.684   8.203  0.00  0.00    +0.001 A 
ATOM     10  C   LIG    1       30.658 -18.297   7.193  0.00  0.00    +0.005 A 
ATOM     11  C   LIG    1       29.633 -19.154   6.767  0.00  0.00    -0.029 A 
ATOM     12  C   LIG    1       28.865 -18.741   5.541  0.00  0.00    +0.045 C 
ENDBRANCH   2   5
BRANCH   1  13
ATOM     13  C   LIG    1       25.959 -22.020   7.556  0.00  0.00    +0.143 C 
BRANCH  13  14
ATOM     14  C   LIG    1       26.531 -23.291   6.870  0.00  0.00    +0.025 C 
ATOM     15  C   LIG    1       25.754 -24.579   7.086  0.00  0.00    +0.006 C 
ENDBRANCH  13  14
BRANCH  13  16
ATOM     16  N   LIG    1       24.748 -21.402   6.932  0.00  0.00    -0.292 NA
BRANCH  16  17
ATOM     17  C   LIG    1       23.466 -21.842   7.510  0.00  0.00    +0.082 C 
ATOM     18  C   LIG    1       22.720 -22.858   6.638  0.00  0.00    +0.020 C 
ENDBRANCH  16  17
BRANCH  16  19
ATOM     19  C   LIG    1       24.702 -21.453   5.450  0.00  0.00    +0.085 C 
BRANCH  19  21
ATOM     20  C   LIG    1       24.265 -19.619   3.786  0.00  0.00    +0.005 C 
ATOM     21  C   LIG    1       25.331 -20.308   4.640  0.00  0.00    +0.012 C 
ENDBRANCH  19  21
ENDBRANCH  16  19
ENDBRANCH  13  16
ENDBRANCH   1  13
TORSDOF 7
ENDMDL
MODEL 3
REMARK VINA RESULT:      -6.9      1.753      6.415
REMARK  Name = *****
REMARK                            x       y       z     vdW  Elec       q    Type
REMARK                         _______ _______ _______ _____ _____    ______ ____
ROOT
ATOM      1  C   LIG    1       26.212 -20.378   5.731  0.00  0.00    +0.234 C 
ATOM      2  N   LIG    1       27.546 -20.421   5.305  0.00  0.00    -0.284 N 
ATOM      3  H   LIG    1       27.764 -21.146   4.639  0.00  0.00    +0.155 HD
ATOM      4  O   LIG    1       25.875 -20.011   6.850  0.00  0.00    -0.274 OA
ENDROOT
BRANCH   2   5
ATOM      5  C   LIG    1       28.592 -20.095   6.208  0.00  0.00    +0.039 A 
ATOM      6  C   LIG    1       29.309 -18.890   6.033  0.00  0.00    -0.029 A 
ATOM      7  C   LIG    1       28.930 -17.848   5.016  0.00  0.00    +0.045 C 
ATOM      8  C   LIG    1       30.434 -18.646   6.843  0.00  0.00    +0.005 A 
ATOM      9  C   LIG    1       30.830 -19.563   7.813  0.00  0.00    +0.001 A 
ATOM     10  C   LIG    1       30.067 -20.702   8.038  0.00  0.00    +0.005 A 
ATOM     11  C   LIG    1       28.921 -20.959   7.272  0.00  0.00    -0.029 A 
ATOM     12  C   LIG    1       28.049 -22.103   7.713  0.00  0.00    +0.045 C 
ENDBRANCH   2   5
BRANCH   1  13
ATOM     13  C   LIG    1       25.141 -20.874   4.701  0.00  0.00    +0.143 C 
BRANCH  13  14
ATOM     14  C   LIG    1       24.352 -19.666   4.123  0.00  0.00    +0.025 C 
ATOM     15  C   LIG    1       25.180 -18.575   3.464  0.00  0.00    +0.006 C 
ENDBRANCH  13  14
BRANCH  13  16
ATOM     16  N   LIG    1       24.337 -22.042   5.175  0.00  0.00    -0.292 NA
BRANCH  16  17
ATOM     17  C   LIG    1       23.100 -21.688   5.894  0.00  0.00    +0.082 C 
ATOM     18  C   LIG    1       23.152 -22.008   7.392  0.00  0.00    +0.020 C 
ENDBRANCH  16  17
BRANCH  16  19
ATOM     19  C   LIG    1       25.098 -23.078   5.916  0.00  0.00    +0.085 C 
BRANCH  19  21
ATOM     20  C   LIG    1       25.756 -25.452   6.420  0.00  0.00    +0.005 C 
ATOM     21  C   LIG    1       25.103 -24.523   5.394  0.00  0.00    +0.012 C 
ENDBRANCH  19  21
ENDBRANCH  16  19
ENDBRANCH  13  16
ENDBRANCH   1  13
TORSDOF 7
ENDMDL
MODEL 4
REMARK VINA RESULT:      -6.9      1.104      2.727
REMARK  Name = *****
REMARK                            x       y       z     vdW  Elec       q    Type
REMARK                         _______ _______ _______ _____ _____    ______ ____
ROOT
ATOM      1  C   LIG    1       26.705 -20.625   7.400  0.00  0.00    +0.234 C 
ATOM      2  N   LIG    1       26.241 -21.264   6.243  0.00  0.00    -0.284 N 
ATOM      3  H   LIG    1       26.456 -20.800   5.375  0.00  0.00    +0.155 HD
ATOM      4  O   LIG    1       26.124 -20.678   8.476  0.00  0.00    -0.274 OA
ENDROOT
BRANCH   2   5
ATOM      5  C   LIG    1       25.003 -21.962   6.264  0.00  0.00    +0.039 A 
ATOM      6  C   LIG    1       23.824 -21.296   5.859  0.00  0.00    -0.029 A 
ATOM      7  C   LIG    1       23.824 -19.914   5.263  0.00  0.00    +0.045 C 
ATOM      8  C   LIG    1       22.588 -21.948   6.020  0.00  0.00    +0.005 A 
ATOM      9  C   LIG    1       22.520 -23.232   6.552  0.00  0.00    +0.001 A 
ATOM     10  C   LIG    1       23.690 -23.914   6.864  0.00  0.00    +0.005 A 
ATOM     11  C   LIG    1       24.941 -23.306   6.684  0.00  0.00    -0.029 A 
ATOM     12  C   LIG    1       26.154 -24.179   6.855  0.00  0.00    +0.045 C 
ENDBRANCH   2   5
BRANCH   1  13
ATOM     13  C   LIG    1       28.015 -19.781   7.244  0.00  0.00    +0.143 C 
BRANCH  13  14
ATOM     14  C   LIG    1       28.484 -19.784   5.762  0.00  0.00    +0.025 C 
ATOM     15  C   LIG    1       28.945 -18.450   5.199  0.00  0.00    +0.006 C 
ENDBRANCH  13  14
BRANCH  13  16
ATOM     16  N   LIG    1       29.053 -20.069   8.282  0.00  0.00    -0.292 NA
BRANCH  16  17
ATOM     17  C   LIG    1       30.170 -19.109   8.319  0.00  0.00    +0.082 C 
ATOM     18  C   LIG    1       29.988 -18.001   9.362  0.00  0.00    +0.020 C 
ENDBRANCH  16  17
BRANCH  16  19
ATOM     19  C   LIG    1       29.558 -21.464   8.303  0.00  0.00    +0.085 C 
BRANCH  19  21
ATOM     20  C   LIG    1       31.810 -22.524   8.665  0.00  0.00    +0.005 C 
ATOM     21  C   LIG    1       30.610 -21.865   9.349  0.00  0.00    +0.012 C 
ENDBRANCH  19  21
ENDBRANCH  16  19
ENDBRANCH  13  16
ENDBRANCH   1  13
TORSDOF 7
ENDMDL
MODEL 5
REMARK VINA RESULT:      -6.7      1.426      3.112
REMARK  Name = *****
REMARK                            x       y       z     vdW  Elec       q    Type
REMARK                         _______ _______ _______ _____ _____    ______ ____
ROOT
ATOM      1  C   LIG    1       26.866 -21.003   7.636  0.00  0.00    +0.234 C 
ATOM      2  N   LIG    1       26.162 -21.447   6.509  0.00  0.00    -0.284 N 
ATOM      3  H   LIG    1       26.109 -20.791   5.745  0.00  0.00    +0.155 HD
ATOM      4  O   LIG    1       26.592 -21.349   8.778  0.00  0.00    -0.274 OA
ENDROOT
BRANCH   2   5
ATOM      5  C   LIG    1       25.026 -22.286   6.664  0.00  0.00    +0.039 A 
ATOM      6  C   LIG    1       25.190 -23.689   6.624  0.00  0.00    -0.029 A 
ATOM      7  C   LIG    1       26.536 -24.359   6.569  0.00  0.00    +0.045 C 
ATOM      8  C   LIG    1       24.044 -24.506   6.634  0.00  0.00    +0.005 A 
ATOM      9  C   LIG    1       22.769 -23.951   6.698  0.00  0.00    +0.001 A 
ATOM     10  C   LIG    1       22.621 -22.575   6.827  0.00  0.00    +0.005 A 
ATOM     11  C   LIG    1       23.743 -21.735   6.855  0.00  0.00    -0.029 A 
ATOM     12  C   LIG    1       23.503 -20.288   7.196  0.00  0.00    +0.045 C 
ENDBRANCH   2   5
BRANCH   1  13
ATOM     13  C   LIG    1       28.025 -19.984   7.370  0.00  0.00    +0.143 C 
BRANCH  13  14
ATOM     14  C   LIG    1       28.401 -19.979   5.862  0.00  0.00    +0.025 C 
ATOM     15  C   LIG    1       28.850 -18.646   5.286  0.00  0.00    +0.006 C 
ENDBRANCH  13  14
BRANCH  13  16
ATOM     16  N   LIG    1       29.153 -20.077   8.348  0.00  0.00    -0.292 NA
BRANCH  16  17
ATOM     17  C   LIG    1       29.453 -18.824   9.062  0.00  0.00    +0.082 C 
ATOM     18  C   LIG    1       30.546 -17.985   8.391  0.00  0.00    +0.020 C 
ENDBRANCH  16  17
BRANCH  16  19
ATOM     19  C   LIG    1       30.396 -20.695   7.825  0.00  0.00    +0.085 C 
BRANCH  19  21
ATOM     20  C   LIG    1       30.678 -22.249   9.783  0.00  0.00    +0.005 C 
ATOM     21  C   LIG    1       31.400 -21.312   8.813  0.00  0.00    +0.012 C 
ENDBRANCH  19  21
ENDBRANCH  16  19
ENDBRANCH  13  16
ENDBRANCH   1  13
TORSDOF 7
ENDMDL
MODEL 6
REMARK VINA RESULT:      -6.7      1.315      2.264
REMARK  Name = *****
REMARK                            x       y       z     vdW  Elec       q    Type
REMARK                         _______ _______ _______ _____ _____    ______ ____
ROOT
ATOM      1  C   LIG    1       27.356 -21.836   7.890  0.00  0.00    +0.234 C 
ATOM      2  N   LIG    1       26.711 -22.281   6.729  0.00  0.00    -0.284 N 
ATOM      3  H   LIG    1       26.956 -21.791   5.883  0.00  0.00    +0.155 HD
ATOM      4  O   LIG    1       26.843 -21.873   9.001  0.00  0.00    -0.274 OA
ENDROOT
BRANCH   2   5
ATOM      5  C   LIG    1       25.369 -22.742   6.793  0.00  0.00    +0.039 A 
ATOM      6  C   LIG    1       25.105 -24.126   6.684  0.00  0.00    -0.029 A 
ATOM      7  C   LIG    1       26.189 -25.169   6.645  0.00  0.00    +0.045 C 
ATOM      8  C   LIG    1       23.769 -24.557   6.604  0.00  0.00    +0.005 A 
ATOM      9  C   LIG    1       22.718 -23.645   6.648  0.00  0.00    +0.001 A 
ATOM     10  C   LIG    1       22.983 -22.296   6.846  0.00  0.00    +0.005 A 
ATOM     11  C   LIG    1       24.303 -21.836   6.963  0.00  0.00    -0.029 A 
ATOM     12  C   LIG    1       24.491 -20.400   7.373  0.00  0.00    +0.045 C 
ENDBRANCH   2   5
BRANCH   1  13
ATOM     13  C   LIG    1       28.788 -21.232   7.696  0.00  0.00    +0.143 C 
BRANCH  13  14
ATOM     14  C   LIG    1       29.686 -21.574   8.918  0.00  0.00    +0.025 C 
ATOM     15  C   LIG    1       31.128 -21.943   8.610  0.00  0.00    +0.006 C 
ENDBRANCH  13  14
BRANCH  13  16
ATOM     16  N   LIG    1       28.791 -19.810   7.232  0.00  0.00    -0.292 NA
BRANCH  16  17
ATOM     17  C   LIG    1       28.452 -19.625   5.810  0.00  0.00    +0.082 C 
ATOM     18  C   LIG    1       28.994 -18.319   5.218  0.00  0.00    +0.020 C 
ENDBRANCH  16  17
BRANCH  16  19
ATOM     19  C   LIG    1       30.001 -19.028   7.590  0.00  0.00    +0.085 C 
BRANCH  19  21
ATOM     20  C   LIG    1       31.378 -17.664   9.193  0.00  0.00    +0.005 C 
ATOM     21  C   LIG    1       29.961 -18.105   8.819  0.00  0.00    +0.012 C 
ENDBRANCH  19  21
ENDBRANCH  16  19
ENDBRANCH  13  16
ENDBRANCH   1  13
TORSDOF 7
ENDMDL
MODEL 7
REMARK VINA RESULT:      -6.7      1.188      2.073
REMARK  Name = *****
REMARK                            x       y       z     vdW  Elec       q    Type
REMARK                         _______ _______ _______ _____ _____    ______ ____
ROOT
ATOM      1  C   LIG    1       28.098 -21.236   7.198  0.00  0.00    +0.234 C 
ATOM      2  N   LIG    1       27.204 -20.196   6.914  0.00  0.00    -0.284 N 
ATOM      3  H   LIG    1       27.378 -19.330   7.399  0.00  0.00    +0.155 HD
ATOM      4  O   LIG    1       27.778 -22.418   7.189  0.00  0.00    -0.274 OA
ENDROOT
BRANCH   2   5
ATOM      5  C   LIG    1       25.835 -20.482   6.663  0.00  0.00    +0.039 A 
ATOM      6  C   LIG    1       24.998 -20.862   7.736  0.00  0.00    -0.029 A 
ATOM      7  C   LIG    1       25.443 -20.844   9.173  0.00  0.00    +0.045 C 
ATOM      8  C   LIG    1       23.685 -21.282   7.455  0.00  0.00    +0.005 A 
ATOM      9  C   LIG    1       23.205 -21.310   6.149  0.00  0.00    +0.001 A 
ATOM     10  C   LIG    1       24.005 -20.850   5.110  0.00  0.00    +0.005 A 
ATOM     11  C   LIG    1       25.307 -20.393   5.359  0.00  0.00    -0.029 A 
ATOM     12  C   LIG    1       26.027 -19.730   4.216  0.00  0.00    +0.045 C 
ENDBRANCH   2   5
BRANCH   1  13
ATOM     13  C   LIG    1       29.555 -20.810   7.582  0.00  0.00    +0.143 C 
BRANCH  13  14
ATOM     14  C   LIG    1       29.984 -21.495   8.909  0.00  0.00    +0.025 C 
ATOM     15  C   LIG    1       31.383 -22.088   8.938  0.00  0.00    +0.006 C 
ENDBRANCH  13  14
BRANCH  13  16
ATOM     16  N   LIG    1       29.809 -19.340   7.466  0.00  0.00    -0.292 NA
BRANCH  16  17
ATOM     17  C   LIG    1       30.328 -18.906   6.157  0.00  0.00    +0.082 C 
ATOM     18  C   LIG    1       29.289 -18.175   5.300  0.00  0.00    +0.020 C 
ENDBRANCH  16  17
BRANCH  16  19
ATOM     19  C   LIG    1       30.602 -18.745   8.570  0.00  0.00    +0.085 C 
BRANCH  19  21
ATOM     20  C   LIG    1       30.406 -17.533  10.765  0.00  0.00    +0.005 C 
ATOM     21  C   LIG    1       30.081 -17.480   9.271  0.00  0.00    +0.012 C 
ENDBRANCH  19  21
ENDBRANCH  16  19
ENDBRANCH  13  16
ENDBRANCH   1  13
TORSDOF 7
ENDMDL
MODEL 8
REMARK VINA RESULT:      -6.6      1.434      6.705
REMARK  Name = *****
REMARK                            x       y       z     vdW  Elec       q    Type
REMARK                         _______ _______ _______ _____ _____    ______ ____
ROOT
ATOM      1  C   LIG    1       26.534 -20.613   6.397  0.00  0.00    +0.234 C 
ATOM      2  N   LIG    1       27.836 -20.577   5.881  0.00  0.00    -0.284 N 
ATOM      3  H   LIG    1       28.100 -21.370   5.317  0.00  0.00    +0.155 HD
ATOM      4  O   LIG    1       26.222 -20.112   7.470  0.00  0.00    -0.274 OA
ENDROOT
BRANCH   2   5
ATOM      5  C   LIG    1       28.887 -19.999   6.641  0.00  0.00    +0.039 A 
ATOM      6  C   LIG    1       29.446 -20.726   7.717  0.00  0.00    -0.029 A 
ATOM      7  C   LIG    1       29.085 -22.155   8.020  0.00  0.00    +0.045 C 
ATOM      8  C   LIG    1       30.384 -20.089   8.551  0.00  0.00    +0.005 A 
ATOM      9  C   LIG    1       30.772 -18.773   8.318  0.00  0.00    +0.001 A 
ATOM     10  C   LIG    1       30.285 -18.096   7.206  0.00  0.00    +0.005 A 
ATOM     11  C   LIG    1       29.376 -18.713   6.335  0.00  0.00    -0.029 A 
ATOM     12  C   LIG    1       29.056 -17.986   5.056  0.00  0.00    +0.045 C 
ENDBRANCH   2   5
BRANCH   1  13
ATOM     13  C   LIG    1       25.472 -21.379   5.539  0.00  0.00    +0.143 C 
BRANCH  13  14
ATOM     14  C   LIG    1       24.464 -20.377   4.910  0.00  0.00    +0.025 C 
ATOM     15  C   LIG    1       25.010 -19.468   3.822  0.00  0.00    +0.006 C 
ENDBRANCH  13  14
BRANCH  13  16
ATOM     16  N   LIG    1       24.896 -22.582   6.216  0.00  0.00    -0.292 NA
BRANCH  16  17
ATOM     17  C   LIG    1       23.706 -22.313   7.043  0.00  0.00    +0.082 C 
ATOM     18  C   LIG    1       22.560 -23.301   6.804  0.00  0.00    +0.020 C 
ENDBRANCH  16  17
BRANCH  16  19
ATOM     19  C   LIG    1       25.871 -23.422   6.955  0.00  0.00    +0.085 C 
BRANCH  19  21
ATOM     20  C   LIG    1       25.313 -25.224   5.291  0.00  0.00    +0.005 C 
ATOM     21  C   LIG    1       25.944 -24.927   6.654  0.00  0.00    +0.012 C 
ENDBRANCH  19  21
ENDBRANCH  16  19
ENDBRANCH  13  16
ENDBRANCH   1  13
TORSDOF 7
ENDMDL
MODEL 9
REMARK VINA RESULT:      -6.6      1.627      6.170
REMARK  Name = *****
REMARK                            x       y       z     vdW  Elec       q    Type
REMARK                         _______ _______ _______ _____ _____    ______ ____
ROOT
ATOM      1  C   LIG    1       26.879 -21.249   7.645  0.00  0.00    +0.234 C 
ATOM      2  N   LIG    1       28.040 -21.415   6.879  0.00  0.00    -0.284 N 
ATOM      3  H   LIG    1       28.249 -22.363   6.608  0.00  0.00    +0.155 HD
ATOM      4  O   LIG    1       26.752 -20.376   8.494  0.00  0.00    -0.274 OA
ENDROOT
BRANCH   2   5
ATOM      5  C   LIG    1       29.173 -20.592   7.118  0.00  0.00    +0.039 A 
ATOM      6  C   LIG    1       29.349 -19.415   6.356  0.00  0.00    -0.029 A 
ATOM      7  C   LIG    1       28.317 -18.899   5.389  0.00  0.00    +0.045 C 
ATOM      8  C   LIG    1       30.544 -18.686   6.500  0.00  0.00    +0.005 A 
ATOM      9  C   LIG    1       31.533 -19.100   7.387  0.00  0.00    +0.001 A 
ATOM     10  C   LIG    1       31.314 -20.208   8.197  0.00  0.00    +0.005 A 
ATOM     11  C   LIG    1       30.120 -20.937   8.103  0.00  0.00    -0.029 A 
ATOM     12  C   LIG    1       29.883 -21.994   9.149  0.00  0.00    +0.045 C 
ENDBRANCH   2   5
BRANCH   1  13
ATOM     13  C   LIG    1       25.731 -22.284   7.391  0.00  0.00    +0.143 C 
BRANCH  13  14
ATOM     14  C   LIG    1       26.291 -23.544   6.675  0.00  0.00    +0.025 C 
ATOM     15  C   LIG    1       25.695 -24.877   7.096  0.00  0.00    +0.006 C 
ENDBRANCH  13  14
BRANCH  13  16
ATOM     16  N   LIG    1       24.484 -21.682   6.824  0.00  0.00    -0.292 NA
BRANCH  16  17
ATOM     17  C   LIG    1       23.234 -22.160   7.442  0.00  0.00    +0.082 C 
ATOM     18  C   LIG    1       22.577 -23.314   6.676  0.00  0.00    +0.020 C 
ENDBRANCH  16  17
BRANCH  16  19
ATOM     19  C   LIG    1       24.383 -21.709   5.344  0.00  0.00    +0.085 C 
BRANCH  19  21
ATOM     20  C   LIG    1       24.079 -19.880   3.645  0.00  0.00    +0.005 C 
ATOM     21  C   LIG    1       25.091 -20.619   4.524  0.00  0.00    +0.012 C 
ENDBRANCH  19  21
ENDBRANCH  16  19
ENDBRANCH  13  16
ENDBRANCH   1  13
TORSDOF 7
ENDMDL
