MODEL 1
REMARK VINA RESULT:     -10.6      0.000      0.000
REMARK  Name = *****
REMARK                            x       y       z     vdW  Elec       q    Type
REMARK                         _______ _______ _______ _____ _____    ______ ____
ROOT
ATOM      1  O   LIG    1       26.220 -20.231   7.262  0.00  0.00    -0.458 OA
ENDROOT
BRANCH   1   2
ATOM      2  C   LIG    1       27.381 -20.773   6.597  0.00  0.00    +0.180 C 
ATOM      3  C   LIG    1       28.162 -21.662   7.695  0.00  0.00    +0.063 C 
ATOM      4  C   LIG    1       29.197 -20.870   8.593  0.00  0.00    +0.061 C 
ATOM      5  N   LIG    1       29.047 -19.497   8.136  0.00  0.00    -0.289 NA
ATOM      6  C   LIG    1       29.508 -19.622   6.724  0.00  0.00    +0.061 C 
ATOM      7  C   LIG    1       30.958 -19.235   6.609  0.00  0.00    +0.030 C 
ATOM      8  C   LIG    1       31.561 -19.911   7.904  0.00  0.00    +0.060 C 
ATOM      9  C   LIG    1       31.254 -18.885   8.966  0.00  0.00    +0.150 C 
ATOM     10  O   LIG    1       32.099 -18.392   9.704  0.00  0.00    -0.296 OA
ATOM     11  C   LIG    1       29.780 -18.528   8.984  0.00  0.00    +0.159 C 
ATOM     12  C   LIG    1       30.747 -21.198   8.403  0.00  0.00    +0.030 C 
ATOM     13  C   LIG    1       28.232 -19.594   5.944  0.00  0.00    +0.063 C 
ENDBRANCH   1   2
BRANCH   1  15
ATOM     14  O   LIG    1       25.786 -21.000   9.374  0.00  0.00    -0.245 OA
ATOM     15  C   LIG    1       25.597 -21.044   8.164  0.00  0.00    +0.342 C 
BRANCH  15  16
ATOM     16  C   LIG    1       24.658 -21.954   7.517  0.00  0.00    +0.084 C 
ATOM     17  C   LIG    1       24.878 -23.317   7.130  0.00  0.00    +0.014 C 
ATOM     18  C   LIG    1       23.695 -23.788   6.555  0.00  0.00    +0.047 C 
ATOM     19  C   LIG    1       23.555 -25.092   6.063  0.00  0.00    +0.026 C 
ATOM     20  C   LIG    1       24.655 -25.946   6.171  0.00  0.00    +0.002 C 
ATOM     21  C   LIG    1       25.847 -25.512   6.744  0.00  0.00    +0.001 C 
ATOM     22  N   LIG    1       22.787 -22.757   6.591  0.00  0.00    -0.360 NA
ATOM     23  H   LIG    1       21.839 -22.815   6.247  0.00  0.00    +0.165 HD
ATOM     24  C   LIG    1       25.973 -24.203   7.224  0.00  0.00    +0.011 C 
ATOM     25  C   LIG    1       23.350 -21.654   7.170  0.00  0.00    +0.098 C 
ENDBRANCH  15  16
ENDBRANCH   1  15
TORSDOF 3
ENDMDL
MODEL 2
REMARK VINA RESULT:     -10.1      2.145      7.525
REMARK  Name = *****
REMARK                            x       y       z     vdW  Elec       q    Type
REMARK                         _______ _______ _______ _____ _____    ______ ____
ROOT
ATOM      1  O   LIG    1       28.911 -20.996   7.041  0.00  0.00    -0.458 OA
ENDROOT
BRANCH   1   2
ATOM      2  C   LIG    1       27.745 -20.147   7.014  0.00  0.00    +0.180 C 
ATOM      3  C   LIG    1       26.891 -20.503   8.337  0.00  0.00    +0.063 C 
ATOM      4  C   LIG    1       25.871 -21.703   8.180  0.00  0.00    +0.061 C 
ATOM      5  N   LIG    1       26.100 -22.154   6.817  0.00  0.00    -0.289 NA
ATOM      6  C   LIG    1       25.673 -20.950   6.050  0.00  0.00    +0.061 C 
ATOM      7  C   LIG    1       24.247 -21.097   5.590  0.00  0.00    +0.030 C 
ATOM      8  C   LIG    1       23.576 -21.737   6.870  0.00  0.00    +0.060 C 
ATOM      9  C   LIG    1       23.903 -23.199   6.698  0.00  0.00    +0.150 C 
ATOM     10  O   LIG    1       23.063 -24.091   6.696  0.00  0.00    -0.296 OA
ATOM     11  C   LIG    1       25.392 -23.418   6.505  0.00  0.00    +0.159 C 
ATOM     12  C   LIG    1       24.313 -21.365   8.244  0.00  0.00    +0.030 C 
ATOM     13  C   LIG    1       26.971 -20.332   5.633  0.00  0.00    +0.063 C 
ENDBRANCH   1   2
BRANCH   1  15
ATOM     14  O   LIG    1       29.671 -21.753   9.063  0.00  0.00    -0.245 OA
ATOM     15  C   LIG    1       29.693 -20.928   8.158  0.00  0.00    +0.342 C 
BRANCH  15  16
ATOM     16  C   LIG    1       30.575 -19.767   8.133  0.00  0.00    +0.084 C 
ATOM     17  C   LIG    1       30.692 -18.728   9.114  0.00  0.00    +0.014 C 
ATOM     18  C   LIG    1       31.669 -17.834   8.669  0.00  0.00    +0.047 C 
ATOM     19  C   LIG    1       32.041 -16.693   9.389  0.00  0.00    +0.026 C 
ATOM     20  C   LIG    1       31.403 -16.461  10.610  0.00  0.00    +0.002 C 
ATOM     21  C   LIG    1       30.431 -17.334  11.088  0.00  0.00    +0.001 C 
ATOM     22  N   LIG    1       32.133 -18.308   7.465  0.00  0.00    -0.360 NA
ATOM     23  H   LIG    1       32.854 -17.863   6.913  0.00  0.00    +0.165 HD
ATOM     24  C   LIG    1       30.064 -18.466  10.351  0.00  0.00    +0.011 C 
ATOM     25  C   LIG    1       31.490 -19.468   7.135  0.00  0.00    +0.098 C 
ENDBRANCH  15  16
ENDBRANCH   1  15
TORSDOF 3
ENDMDL
MODEL 3
REMARK VINA RESULT:     -10.0      4.351      6.437
REMARK  Name = *****
REMARK                            x       y       z     vdW  Elec       q    Type
REMARK                         _______ _______ _______ _____ _____    ______ ____
ROOT
ATOM      1  O   LIG    1       25.779 -25.457   5.385  0.00  0.00    -0.458 OA
ENDROOT
BRANCH   1   2
ATOM      2  C   LIG    1       25.446 -24.875   6.664  0.00  0.00    +0.180 C 
ATOM      3  C   LIG    1       23.843 -24.686   6.676  0.00  0.00    +0.063 C 
ATOM      4  C   LIG    1       23.318 -23.327   6.057  0.00  0.00    +0.061 C 
ATOM      5  N   LIG    1       24.538 -22.680   5.599  0.00  0.00    -0.289 NA
ATOM      6  C   LIG    1       25.244 -22.472   6.894  0.00  0.00    +0.061 C 
ATOM      7  C   LIG    1       24.999 -21.078   7.408  0.00  0.00    +0.030 C 
ATOM      8  C   LIG    1       23.462 -20.898   7.086  0.00  0.00    +0.060 C 
ATOM      9  C   LIG    1       23.492 -20.481   5.637  0.00  0.00    +0.150 C 
ATOM     10  O   LIG    1       22.965 -19.460   5.209  0.00  0.00    -0.296 OA
ATOM     11  C   LIG    1       24.273 -21.467   4.790  0.00  0.00    +0.159 C 
ATOM     12  C   LIG    1       22.642 -22.274   7.045  0.00  0.00    +0.030 C 
ATOM     13  C   LIG    1       26.291 -23.541   6.889  0.00  0.00    +0.063 C 
ENDBRANCH   1   2
BRANCH   1  15
ATOM     14  O   LIG    1       27.497 -26.932   5.050  0.00  0.00    -0.245 OA
ATOM     15  C   LIG    1       26.348 -26.697   5.407  0.00  0.00    +0.342 C 
BRANCH  15  16
ATOM     16  C   LIG    1       25.433 -27.705   5.930  0.00  0.00    +0.084 C 
ATOM     17  C   LIG    1       25.458 -28.333   7.220  0.00  0.00    +0.014 C 
ATOM     18  C   LIG    1       24.384 -29.225   7.276  0.00  0.00    +0.047 C 
ATOM     19  C   LIG    1       24.107 -30.012   8.400  0.00  0.00    +0.026 C 
ATOM     20  C   LIG    1       24.947 -29.877   9.508  0.00  0.00    +0.002 C 
ATOM     21  C   LIG    1       26.022 -28.993   9.490  0.00  0.00    +0.001 C 
ATOM     22  N   LIG    1       23.727 -29.145   6.071  0.00  0.00    -0.360 NA
ATOM     23  H   LIG    1       22.903 -29.678   5.831  0.00  0.00    +0.165 HD
ATOM     24  C   LIG    1       26.290 -28.220   8.355  0.00  0.00    +0.011 C 
ATOM     25  C   LIG    1       24.343 -28.235   5.258  0.00  0.00    +0.098 C 
ENDBRANCH  15  16
ENDBRANCH   1  15
TORSDOF 3
ENDMDL
MODEL 4
REMARK VINA RESULT:      -9.4      2.123      7.447
REMARK  Name = *****
REMARK                            x       y       z     vdW  Elec       q    Type
REMARK                         _______ _______ _______ _____ _____    ______ ____
ROOT
ATOM      1  O   LIG    1       28.422 -21.578   6.918  0.00  0.00    -0.458 OA
ENDROOT
BRANCH   1   2
ATOM      2  C   LIG    1       27.371 -21.781   7.887  0.00  0.00    +0.180 C 
ATOM      3  C   LIG    1       26.523 -23.058   7.379  0.00  0.00    +0.063 C 
ATOM      4  C   LIG    1       25.356 -22.734   6.361  0.00  0.00    +0.061 C 
ATOM      5  N   LIG    1       25.481 -21.298   6.164  0.00  0.00    -0.289 NA
ATOM      6  C   LIG    1       25.183 -20.802   7.537  0.00  0.00    +0.061 C 
ATOM      7  C   LIG    1       23.736 -20.405   7.650  0.00  0.00    +0.030 C 
ATOM      8  C   LIG    1       23.033 -21.575   6.853  0.00  0.00    +0.060 C 
ATOM      9  C   LIG    1       23.167 -21.108   5.425  0.00  0.00    +0.150 C 
ATOM     10  O   LIG    1       22.222 -20.983   4.656  0.00  0.00    -0.296 OA
ATOM     11  C   LIG    1       24.610 -20.792   5.077  0.00  0.00    +0.159 C 
ATOM     12  C   LIG    1       23.856 -22.950   6.859  0.00  0.00    +0.030 C 
ATOM     13  C   LIG    1       26.533 -20.437   8.069  0.00  0.00    +0.063 C 
ENDBRANCH   1   2
BRANCH   1  15
ATOM     14  O   LIG    1       28.532 -19.470   6.033  0.00  0.00    -0.245 OA
ATOM     15  C   LIG    1       28.932 -20.316   6.825  0.00  0.00    +0.342 C 
BRANCH  15  16
ATOM     16  C   LIG    1       29.995 -20.086   7.797  0.00  0.00    +0.084 C 
ATOM     17  C   LIG    1       30.296 -18.875   8.503  0.00  0.00    +0.014 C 
ATOM     18  C   LIG    1       31.391 -19.131   9.332  0.00  0.00    +0.047 C 
ATOM     19  C   LIG    1       31.954 -18.160  10.169  0.00  0.00    +0.026 C 
ATOM     20  C   LIG    1       31.374 -16.889  10.170  0.00  0.00    +0.002 C 
ATOM     21  C   LIG    1       30.278 -16.601   9.362  0.00  0.00    +0.001 C 
ATOM     22  N   LIG    1       31.744 -20.445   9.143  0.00  0.00    -0.360 NA
ATOM     23  H   LIG    1       32.505 -20.909   9.621  0.00  0.00    +0.165 HD
ATOM     24  C   LIG    1       29.732 -17.581   8.524  0.00  0.00    +0.011 C 
ATOM     25  C   LIG    1       30.913 -21.031   8.230  0.00  0.00    +0.098 C 
ENDBRANCH  15  16
ENDBRANCH   1  15
TORSDOF 3
ENDMDL
MODEL 5
REMARK VINA RESULT:      -9.3      1.337      2.591
REMARK  Name = *****
REMARK                            x       y       z     vdW  Elec       q    Type
REMARK                         _______ _______ _______ _____ _____    ______ ____
ROOT
ATOM      1  O   LIG    1       26.159 -20.277   7.448  0.00  0.00    -0.458 OA
ENDROOT
BRANCH   1   2
ATOM      2  C   LIG    1       27.287 -20.788   6.706  0.00  0.00    +0.180 C 
ATOM      3  C   LIG    1       28.130 -21.705   7.733  0.00  0.00    +0.063 C 
ATOM      4  C   LIG    1       29.205 -20.934   8.602  0.00  0.00    +0.061 C 
ATOM      5  N   LIG    1       29.023 -19.548   8.197  0.00  0.00    -0.289 NA
ATOM      6  C   LIG    1       29.411 -19.624   6.761  0.00  0.00    +0.061 C 
ATOM      7  C   LIG    1       30.850 -19.221   6.583  0.00  0.00    +0.030 C 
ATOM      8  C   LIG    1       31.524 -19.933   7.823  0.00  0.00    +0.060 C 
ATOM      9  C   LIG    1       31.266 -18.945   8.932  0.00  0.00    +0.150 C 
ATOM     10  O   LIG    1       32.144 -18.468   9.640  0.00  0.00    -0.296 OA
ATOM     11  C   LIG    1       29.792 -18.600   9.038  0.00  0.00    +0.159 C 
ATOM     12  C   LIG    1       30.745 -21.242   8.322  0.00  0.00    +0.030 C 
ATOM     13  C   LIG    1       28.095 -19.582   6.049  0.00  0.00    +0.063 C 
ENDBRANCH   1   2
BRANCH   1  15
ATOM     14  O   LIG    1       25.572 -21.513   9.284  0.00  0.00    -0.245 OA
ATOM     15  C   LIG    1       25.398 -21.194   8.113  0.00  0.00    +0.342 C 
BRANCH  15  16
ATOM     16  C   LIG    1       24.335 -21.731   7.271  0.00  0.00    +0.084 C 
ATOM     17  C   LIG    1       23.486 -21.017   6.362  0.00  0.00    +0.014 C 
ATOM     18  C   LIG    1       22.625 -21.946   5.771  0.00  0.00    +0.047 C 
ATOM     19  C   LIG    1       21.657 -21.590   4.825  0.00  0.00    +0.026 C 
ATOM     20  C   LIG    1       21.570 -20.244   4.461  0.00  0.00    +0.002 C 
ATOM     21  C   LIG    1       22.416 -19.293   5.024  0.00  0.00    +0.001 C 
ATOM     22  N   LIG    1       22.936 -23.178   6.295  0.00  0.00    -0.360 NA
ATOM     23  H   LIG    1       22.475 -24.041   6.042  0.00  0.00    +0.165 HD
ATOM     24  C   LIG    1       23.373 -19.664   5.975  0.00  0.00    +0.011 C 
ATOM     25  C   LIG    1       23.962 -23.064   7.191  0.00  0.00    +0.098 C 
ENDBRANCH  15  16
ENDBRANCH   1  15
TORSDOF 3
ENDMDL
MODEL 6
REMARK VINA RESULT:      -9.1      2.192      3.475
REMARK  Name = *****
REMARK                            x       y       z     vdW  Elec       q    Type
REMARK                         _______ _______ _______ _____ _____    ______ ____
ROOT
ATOM      1  O   LIG    1       26.682 -22.293   6.869  0.00  0.00    -0.458 OA
ENDROOT
BRANCH   1   2
ATOM      2  C   LIG    1       26.806 -20.855   6.857  0.00  0.00    +0.180 C 
ATOM      3  C   LIG    1       28.047 -20.512   5.884  0.00  0.00    +0.063 C 
ATOM      4  C   LIG    1       29.470 -20.507   6.578  0.00  0.00    +0.061 C 
ATOM      5  N   LIG    1       29.169 -20.897   7.947  0.00  0.00    -0.289 NA
ATOM      6  C   LIG    1       28.326 -19.748   8.384  0.00  0.00    +0.061 C 
ATOM      7  C   LIG    1       29.160 -18.736   9.123  0.00  0.00    +0.030 C 
ATOM      8  C   LIG    1       30.471 -18.714   8.241  0.00  0.00    +0.060 C 
ATOM      9  C   LIG    1       31.231 -19.900   8.778  0.00  0.00    +0.150 C 
ATOM     10  O   LIG    1       32.379 -19.841   9.202  0.00  0.00    -0.296 OA
ATOM     11  C   LIG    1       30.388 -21.161   8.748  0.00  0.00    +0.159 C 
ATOM     12  C   LIG    1       30.227 -19.109   6.707  0.00  0.00    +0.030 C 
ATOM     13  C   LIG    1       26.939 -20.309   8.349  0.00  0.00    +0.063 C 
ENDBRANCH   1   2
BRANCH   1  15
ATOM     14  O   LIG    1       25.471 -23.956   5.866  0.00  0.00    -0.245 OA
ATOM     15  C   LIG    1       25.555 -22.816   6.306  0.00  0.00    +0.342 C 
BRANCH  15  16
ATOM     16  C   LIG    1       24.452 -21.861   6.313  0.00  0.00    +0.084 C 
ATOM     17  C   LIG    1       24.142 -20.866   5.327  0.00  0.00    +0.014 C 
ATOM     18  C   LIG    1       22.995 -20.193   5.753  0.00  0.00    +0.047 C 
ATOM     19  C   LIG    1       22.410 -19.151   5.023  0.00  0.00    +0.026 C 
ATOM     20  C   LIG    1       23.008 -18.791   3.813  0.00  0.00    +0.002 C 
ATOM     21  C   LIG    1       24.148 -19.445   3.355  0.00  0.00    +0.001 C 
ATOM     22  N   LIG    1       22.616 -20.753   6.949  0.00  0.00    -0.360 NA
ATOM     23  H   LIG    1       21.810 -20.466   7.487  0.00  0.00    +0.165 HD
ATOM     24  C   LIG    1       24.725 -20.479   4.101  0.00  0.00    +0.011 C 
ATOM     25  C   LIG    1       23.478 -21.757   7.293  0.00  0.00    +0.098 C 
ENDBRANCH  15  16
ENDBRANCH   1  15
TORSDOF 3
ENDMDL
MODEL 7
REMARK VINA RESULT:      -9.0      1.234      2.021
REMARK  Name = *****
REMARK                            x       y       z     vdW  Elec       q    Type
REMARK                         _______ _______ _______ _____ _____    ______ ____
ROOT
ATOM      1  O   LIG    1       26.674 -22.132   6.641  0.00  0.00    -0.458 OA
ENDROOT
BRANCH   1   2
ATOM      2  C   LIG    1       26.792 -20.695   6.699  0.00  0.00    +0.180 C 
ATOM      3  C   LIG    1       28.042 -20.300   5.756  0.00  0.00    +0.063 C 
ATOM      4  C   LIG    1       29.456 -20.323   6.465  0.00  0.00    +0.061 C 
ATOM      5  N   LIG    1       29.143 -20.779   7.811  0.00  0.00    -0.289 NA
ATOM      6  C   LIG    1       28.291 -19.656   8.293  0.00  0.00    +0.061 C 
ATOM      7  C   LIG    1       29.112 -18.677   9.089  0.00  0.00    +0.030 C 
ATOM      8  C   LIG    1       30.432 -18.608   8.223  0.00  0.00    +0.060 C 
ATOM      9  C   LIG    1       31.192 -19.815   8.710  0.00  0.00    +0.150 C 
ATOM     10  O   LIG    1       32.335 -19.771   9.150  0.00  0.00    -0.296 OA
ATOM     11  C   LIG    1       30.355 -21.076   8.611  0.00  0.00    +0.159 C 
ATOM     12  C   LIG    1       30.206 -18.930   6.669  0.00  0.00    +0.030 C 
ATOM     13  C   LIG    1       26.907 -20.220   8.216  0.00  0.00    +0.063 C 
ENDBRANCH   1   2
BRANCH   1  15
ATOM     14  O   LIG    1       25.926 -22.442   8.782  0.00  0.00    -0.245 OA
ATOM     15  C   LIG    1       25.890 -22.721   7.589  0.00  0.00    +0.342 C 
BRANCH  15  16
ATOM     16  C   LIG    1       24.984 -23.707   7.009  0.00  0.00    +0.084 C 
ATOM     17  C   LIG    1       25.310 -25.003   6.490  0.00  0.00    +0.014 C 
ATOM     18  C   LIG    1       24.121 -25.591   6.048  0.00  0.00    +0.047 C 
ATOM     19  C   LIG    1       24.071 -26.869   5.479  0.00  0.00    +0.026 C 
ATOM     20  C   LIG    1       25.271 -27.577   5.367  0.00  0.00    +0.002 C 
ATOM     21  C   LIG    1       26.472 -27.024   5.803  0.00  0.00    +0.001 C 
ATOM     22  N   LIG    1       23.110 -24.693   6.290  0.00  0.00    -0.360 NA
ATOM     23  H   LIG    1       22.135 -24.855   6.075  0.00  0.00    +0.165 HD
ATOM     24  C   LIG    1       26.506 -25.741   6.361  0.00  0.00    +0.011 C 
ATOM     25  C   LIG    1       23.613 -23.562   6.869  0.00  0.00    +0.098 C 
ENDBRANCH  15  16
ENDBRANCH   1  15
TORSDOF 3
ENDMDL
MODEL 8
REMARK VINA RESULT:      -8.9      2.468      8.055
REMARK  Name = *****
REMARK                            x       y       z     vdW  Elec       q    Type
REMARK                         _______ _______ _______ _____ _____    ______ ____
ROOT
ATOM      1  O   LIG    1       29.421 -19.504   8.292  0.00  0.00    -0.458 OA
ENDROOT
BRANCH   1   2
ATOM      2  C   LIG    1       29.198 -20.517   7.289  0.00  0.00    +0.180 C 
ATOM      3  C   LIG    1       28.199 -19.867   6.200  0.00  0.00    +0.063 C 
ATOM      4  C   LIG    1       26.657 -20.017   6.522  0.00  0.00    +0.061 C 
ATOM      5  N   LIG    1       26.654 -20.689   7.812  0.00  0.00    -0.289 NA
ATOM      6  C   LIG    1       27.282 -21.991   7.450  0.00  0.00    +0.061 C 
ATOM      7  C   LIG    1       26.225 -23.030   7.191  0.00  0.00    +0.030 C 
ATOM      8  C   LIG    1       25.161 -22.191   6.377  0.00  0.00    +0.060 C 
ATOM      9  C   LIG    1       24.386 -21.513   7.479  0.00  0.00    +0.150 C 
ATOM     10  O   LIG    1       23.169 -21.587   7.603  0.00  0.00    -0.296 OA
ATOM     11  C   LIG    1       25.304 -20.756   8.420  0.00  0.00    +0.159 C 
ATOM     12  C   LIG    1       25.788 -20.957   5.569  0.00  0.00    +0.030 C 
ATOM     13  C   LIG    1       28.676 -21.856   7.977  0.00  0.00    +0.063 C 
ENDBRANCH   1   2
BRANCH   1  15
ATOM     14  O   LIG    1       30.836 -20.698   9.638  0.00  0.00    -0.245 OA
ATOM     15  C   LIG    1       30.528 -19.653   9.077  0.00  0.00    +0.342 C 
BRANCH  15  16
ATOM     16  C   LIG    1       31.313 -18.426   9.148  0.00  0.00    +0.084 C 
ATOM     17  C   LIG    1       31.624 -17.645  10.311  0.00  0.00    +0.014 C 
ATOM     18  C   LIG    1       32.406 -16.564   9.896  0.00  0.00    +0.047 C 
ATOM     19  C   LIG    1       32.890 -15.593  10.780  0.00  0.00    +0.026 C 
ATOM     20  C   LIG    1       32.577 -15.735  12.134  0.00  0.00    +0.002 C 
ATOM     21  C   LIG    1       31.806 -16.803  12.583  0.00  0.00    +0.001 C 
ATOM     22  N   LIG    1       32.569 -16.680   8.536  0.00  0.00    -0.360 NA
ATOM     23  H   LIG    1       33.099 -16.035   7.966  0.00  0.00    +0.165 HD
ATOM     24  C   LIG    1       31.322 -17.761  11.685  0.00  0.00    +0.011 C 
ATOM     25  C   LIG    1       31.924 -17.793   8.077  0.00  0.00    +0.098 C 
ENDBRANCH  15  16
ENDBRANCH   1  15
TORSDOF 3
ENDMDL
MODEL 9
REMARK VINA RESULT:      -8.5      2.191      6.728
REMARK  Name = *****
REMARK                            x       y       z     vdW  Elec       q    Type
REMARK                         _______ _______ _______ _____ _____    ______ ____
ROOT
ATOM      1  O   LIG    1       24.584 -20.471   6.231  0.00  0.00    -0.458 OA
ENDROOT
BRANCH   1   2
ATOM      2  C   LIG    1       23.801 -21.407   5.460  0.00  0.00    +0.180 C 
ATOM      3  C   LIG    1       23.015 -22.331   6.525  0.00  0.00    +0.063 C 
ATOM      4  C   LIG    1       23.810 -23.602   7.033  0.00  0.00    +0.061 C 
ATOM      5  N   LIG    1       25.097 -23.474   6.367  0.00  0.00    -0.289 NA
ATOM      6  C   LIG    1       24.686 -23.601   4.941  0.00  0.00    +0.061 C 
ATOM      7  C   LIG    1       24.867 -25.018   4.467  0.00  0.00    +0.030 C 
ATOM      8  C   LIG    1       24.344 -25.830   5.718  0.00  0.00    +0.060 C 
ATOM      9  C   LIG    1       25.560 -25.853   6.608  0.00  0.00    +0.150 C 
ATOM     10  O   LIG    1       26.060 -26.878   7.056  0.00  0.00    -0.296 OA
ATOM     11  C   LIG    1       26.095 -24.455   6.855  0.00  0.00    +0.159 C 
ATOM     12  C   LIG    1       23.267 -25.038   6.602  0.00  0.00    +0.030 C 
ATOM     13  C   LIG    1       24.743 -22.192   4.441  0.00  0.00    +0.063 C 
ENDBRANCH   1   2
BRANCH   1  15
ATOM     14  O   LIG    1       25.973 -19.638   4.613  0.00  0.00    -0.245 OA
ATOM     15  C   LIG    1       25.804 -20.129   5.724  0.00  0.00    +0.342 C 
BRANCH  15  16
ATOM     16  C   LIG    1       26.880 -20.393   6.672  0.00  0.00    +0.084 C 
ATOM     17  C   LIG    1       28.235 -19.925   6.619  0.00  0.00    +0.014 C 
ATOM     18  C   LIG    1       28.898 -20.424   7.743  0.00  0.00    +0.047 C 
ATOM     19  C   LIG    1       30.246 -20.160   8.010  0.00  0.00    +0.026 C 
ATOM     20  C   LIG    1       30.940 -19.351   7.107  0.00  0.00    +0.002 C 
ATOM     21  C   LIG    1       30.309 -18.830   5.980  0.00  0.00    +0.001 C 
ATOM     22  N   LIG    1       27.986 -21.166   8.456  0.00  0.00    -0.360 NA
ATOM     23  H   LIG    1       28.188 -21.643   9.324  0.00  0.00    +0.165 HD
ATOM     24  C   LIG    1       28.962 -19.111   5.723  0.00  0.00    +0.011 C 
ATOM     25  C   LIG    1       26.772 -21.151   7.828  0.00  0.00    +0.098 C 
ENDBRANCH  15  16
ENDBRANCH   1  15
TORSDOF 3
ENDMDL
