MODEL 1
REMARK VINA RESULT:       9.7      0.000      0.000
REMARK  Name = *****
REMARK                            x       y       z     vdW  Elec       q    Type
REMARK                         _______ _______ _______ _____ _____    ______ ____
ROOT
ATOM      1  C   LIG    1       25.306 -20.547   4.835  0.00  0.00    +0.018 A 
ATOM      2  C   LIG    1       26.019 -19.365   4.730  0.00  0.00    +0.025 A 
ATOM      3  C   LIG    1       27.293 -19.157   5.288  0.00  0.00    +0.041 A 
ATOM      4  C   LIG    1       27.685 -20.013   6.313  0.00  0.00    +0.076 A 
ATOM      5  N   LIG    1       28.763 -19.759   7.062  0.00  0.00    -0.235 NA
ATOM      6  C   LIG    1       29.471 -18.663   6.749  0.00  0.00    +0.224 A 
ATOM      7  N   LIG    1       29.228 -17.820   5.727  0.00  0.00    -0.220 NA
ATOM      8  C   LIG    1       26.870 -21.113   6.574  0.00  0.00    +0.029 A 
ATOM      9  C   LIG    1       28.143 -18.088   4.969  0.00  0.00    +0.134 A 
ATOM     10  C   LIG    1       25.742 -21.429   5.801  0.00  0.00    +0.013 A 
ENDROOT
BRANCH   1  13
ATOM     11  C   LIG    1       22.049 -20.408   3.435  0.00  0.00    +0.119 A 
ATOM     12  O   LIG    1       23.031 -20.048   4.314  0.00  0.00    -0.458 OA
ATOM     13  C   LIG    1       24.132 -20.769   4.009  0.00  0.00    +0.135 A 
ATOM     14  C   LIG    1       23.852 -21.531   2.899  0.00  0.00    +0.050 A 
ATOM     15  C   LIG    1       22.470 -21.440   2.638  0.00  0.00    +0.046 A 
BRANCH  11  16
ATOM     16  C   LIG    1       20.799 -19.630   3.500  0.00  0.00    +0.155 C 
BRANCH  16  17
ATOM     17  N   LIG    1       20.967 -18.444   4.329  0.00  0.00    -0.308 NA
ATOM     18  H   LIG    1       21.071 -18.734   5.304  0.00  0.00    +0.122 HD
BRANCH  17  19
ATOM     19  C   LIG    1       22.094 -17.617   3.893  0.00  0.00    +0.104 C 
BRANCH  19  20
ATOM     20  C   LIG    1       22.792 -16.964   5.071  0.00  0.00    +0.180 C 
BRANCH  20  22
ATOM     21  C   LIG    1       22.157 -14.421   5.992  0.00  0.00    +0.194 C 
ATOM     22  S   LIG    1       23.119 -15.243   4.754  0.00  0.00    -0.033 S 
ATOM     23  O   LIG    1       24.487 -14.955   4.986  0.00  0.00    -0.175 OA
ATOM     24  O   LIG    1       22.496 -14.920   3.445  0.00  0.00    -0.175 OA
ENDBRANCH  20  22
ENDBRANCH  19  20
ENDBRANCH  17  19
ENDBRANCH  16  17
ENDBRANCH  11  16
ENDBRANCH   1  13
BRANCH   9  25
ATOM     25  N   LIG    1       27.928 -17.225   3.866  0.00  0.00    -0.299 N 
ATOM     26  H   LIG    1       28.266 -17.698   3.032  0.00  0.00    +0.154 HD
BRANCH  25  27
ATOM     27  C   LIG    1       27.517 -15.886   3.684  0.00  0.00    +0.034 A 
ATOM     28  C   LIG    1       28.200 -14.739   4.126  0.00  0.00    +0.047 A 
ATOM     29  C   LIG    1       27.873 -13.452   3.680  0.00  0.00    +0.084 A 
ATOM     30 CL   LIG    1       28.633 -12.046   4.369  0.00  0.00    -0.080 Cl
ATOM     31  C   LIG    1       26.835 -13.273   2.793  0.00  0.00    +0.139 A 
ATOM     32  C   LIG    1       25.975 -14.345   2.592  0.00  0.00    +0.049 A 
ATOM     33  C   LIG    1       26.315 -15.635   3.027  0.00  0.00    +0.027 A 
BRANCH  31  34
ATOM     34  O   LIG    1       26.717 -12.024   2.276  0.00  0.00    -0.486 OA
BRANCH  34  35
ATOM     35  C   LIG    1       25.408 -11.520   2.123  0.00  0.00    +0.264 C 
BRANCH  35  36
ATOM     36  C   LIG    1       24.698 -11.559   3.453  0.00  0.00    -0.008 A 
ATOM     37  C   LIG    1       25.385 -11.540   4.678  0.00  0.00    +0.045 A 
ATOM     38  C   LIG    1       24.679 -11.485   5.873  0.00  0.00    +0.124 A 
ATOM     39  F   LIG    1       25.349 -11.451   7.032  0.00  0.00    -0.205 F 
ATOM     40  C   LIG    1       23.293 -11.447   5.880  0.00  0.00    +0.038 A 
ATOM     41  C   LIG    1       22.598 -11.495   4.671  0.00  0.00    +0.003 A 
ATOM     42  C   LIG    1       23.297 -11.564   3.466  0.00  0.00    +0.007 A 
ENDBRANCH  35  36
ENDBRANCH  34  35
ENDBRANCH  31  34
ENDBRANCH  25  27
ENDBRANCH   9  25
TORSDOF 11
ENDMDL
MODEL 2
REMARK VINA RESULT:      11.3      1.555      2.099
REMARK  Name = *****
REMARK                            x       y       z     vdW  Elec       q    Type
REMARK                         _______ _______ _______ _____ _____    ______ ____
ROOT
ATOM      1  C   LIG    1       24.567 -20.593   5.702  0.00  0.00    +0.018 A 
ATOM      2  C   LIG    1       25.496 -19.614   5.394  0.00  0.00    +0.025 A 
ATOM      3  C   LIG    1       26.876 -19.730   5.640  0.00  0.00    +0.041 A 
ATOM      4  C   LIG    1       27.277 -20.672   6.581  0.00  0.00    +0.076 A 
ATOM      5  N   LIG    1       28.528 -20.699   7.055  0.00  0.00    -0.235 NA
ATOM      6  C   LIG    1       29.384 -19.800   6.549  0.00  0.00    +0.224 A 
ATOM      7  N   LIG    1       29.122 -18.904   5.578  0.00  0.00    -0.220 NA
ATOM      8  C   LIG    1       26.307 -21.550   7.062  0.00  0.00    +0.029 A 
ATOM      9  C   LIG    1       27.860 -18.890   5.096  0.00  0.00    +0.134 A 
ATOM     10  C   LIG    1       24.989 -21.571   6.577  0.00  0.00    +0.013 A 
ENDROOT
BRANCH   1  13
ATOM     11  C   LIG    1       21.673 -19.657   3.874  0.00  0.00    +0.119 A 
ATOM     12  O   LIG    1       22.991 -19.575   4.226  0.00  0.00    -0.458 OA
ATOM     13  C   LIG    1       23.216 -20.510   5.174  0.00  0.00    +0.135 A 
ATOM     14  C   LIG    1       22.051 -21.217   5.364  0.00  0.00    +0.050 A 
ATOM     15  C   LIG    1       21.017 -20.559   4.669  0.00  0.00    +0.046 A 
BRANCH  11  16
ATOM     16  C   LIG    1       21.248 -18.815   2.741  0.00  0.00    +0.155 C 
BRANCH  16  17
ATOM     17  N   LIG    1       20.200 -17.889   3.146  0.00  0.00    -0.308 NA
ATOM     18  H   LIG    1       19.682 -18.297   3.929  0.00  0.00    +0.122 HD
BRANCH  17  19
ATOM     19  C   LIG    1       20.728 -16.566   3.485  0.00  0.00    +0.104 C 
BRANCH  19  20
ATOM     20  C   LIG    1       21.749 -16.647   4.605  0.00  0.00    +0.180 C 
BRANCH  20  22
ATOM     21  C   LIG    1       24.476 -16.398   4.141  0.00  0.00    +0.194 C 
ATOM     22  S   LIG    1       23.024 -15.420   4.405  0.00  0.00    -0.033 S 
ATOM     23  O   LIG    1       22.784 -14.652   3.239  0.00  0.00    -0.175 OA
ATOM     24  O   LIG    1       23.191 -14.754   5.721  0.00  0.00    -0.175 OA
ENDBRANCH  20  22
ENDBRANCH  19  20
ENDBRANCH  17  19
ENDBRANCH  16  17
ENDBRANCH  11  16
ENDBRANCH   1  13
BRANCH   9  25
ATOM     25  N   LIG    1       27.610 -17.980   4.039  0.00  0.00    -0.299 N 
ATOM     26  H   LIG    1       27.375 -18.524   3.212  0.00  0.00    +0.154 HD
BRANCH  25  27
ATOM     27  C   LIG    1       27.746 -16.589   3.838  0.00  0.00    +0.034 A 
ATOM     28  C   LIG    1       26.964 -15.792   2.983  0.00  0.00    +0.047 A 
ATOM     29  C   LIG    1       26.981 -14.393   3.038  0.00  0.00    +0.084 A 
ATOM     30 CL   LIG    1       26.123 -13.440   1.862  0.00  0.00    -0.080 Cl
ATOM     31  C   LIG    1       27.801 -13.748   3.939  0.00  0.00    +0.139 A 
ATOM     32  C   LIG    1       28.783 -14.505   4.562  0.00  0.00    +0.049 A 
ATOM     33  C   LIG    1       28.752 -15.908   4.517  0.00  0.00    +0.027 A 
BRANCH  31  34
ATOM     34  O   LIG    1       27.610 -12.409   4.049  0.00  0.00    -0.486 OA
BRANCH  34  35
ATOM     35  C   LIG    1       26.912 -11.958   5.188  0.00  0.00    +0.264 C 
BRANCH  35  36
ATOM     36  C   LIG    1       25.467 -11.719   4.830  0.00  0.00    -0.008 A 
ATOM     37  C   LIG    1       25.017 -11.662   3.500  0.00  0.00    +0.045 A 
ATOM     38  C   LIG    1       23.662 -11.530   3.227  0.00  0.00    +0.124 A 
ATOM     39  F   LIG    1       23.247 -11.495   1.954  0.00  0.00    -0.205 F 
ATOM     40  C   LIG    1       22.733 -11.452   4.254  0.00  0.00    +0.038 A 
ATOM     41  C   LIG    1       23.169 -11.477   5.579  0.00  0.00    +0.003 A 
ATOM     42  C   LIG    1       24.530 -11.596   5.864  0.00  0.00    +0.007 A 
ENDBRANCH  35  36
ENDBRANCH  34  35
ENDBRANCH  31  34
ENDBRANCH  25  27
ENDBRANCH   9  25
TORSDOF 11
ENDMDL
