MODEL 1
REMARK VINA RESULT:     -11.0      0.000      0.000
REMARK  Name = *****
REMARK                            x       y       z     vdW  Elec       q    Type
REMARK                         _______ _______ _______ _____ _____    ______ ____
ROOT
ATOM      1  C   LIG    1       26.390 -20.740   8.351  0.00  0.00    +0.229 C 
ENDROOT
BRANCH   1   2
ATOM      2  O   LIG    1       25.023 -21.102   8.158  0.00  0.00    -0.492 OA
BRANCH   2  10
ATOM      3  O   LIG    1       24.095 -28.066   5.178  0.00  0.00    -0.276 OA
ATOM      4  C   LIG    1       24.463 -27.048   5.753  0.00  0.00    +0.217 C 
ATOM      5  N   LIG    1       23.661 -25.941   5.798  0.00  0.00    -0.285 N 
ATOM      6  H   LIG    1       22.750 -26.042   5.373  0.00  0.00    +0.155 HD
ATOM      7  C   LIG    1       24.034 -24.740   6.397  0.00  0.00    +0.037 A 
ATOM      8  C   LIG    1       25.355 -24.550   6.815  0.00  0.00    -0.022 A 
ATOM      9  C   LIG    1       25.729 -23.335   7.400  0.00  0.00    +0.051 A 
ATOM     10  C   LIG    1       24.787 -22.320   7.584  0.00  0.00    +0.121 A 
ATOM     11  C   LIG    1       23.472 -22.520   7.151  0.00  0.00    +0.047 A 
ATOM     12  C   LIG    1       26.374 -25.617   6.527  0.00  0.00    +0.046 C 
ATOM     13  C   LIG    1       23.094 -23.721   6.548  0.00  0.00    +0.027 A 
ATOM     14  C   LIG    1       25.747 -26.999   6.552  0.00  0.00    +0.101 C 
ENDBRANCH   2  10
ENDBRANCH   1   2
BRANCH   1  15
ATOM     15  C   LIG    1       26.987 -20.308   7.016  0.00  0.00    +0.041 C 
BRANCH  15  16
ATOM     16  C   LIG    1       28.435 -20.791   6.846  0.00  0.00    +0.011 C 
BRANCH  16  17
ATOM     17  C   LIG    1       29.452 -19.652   6.966  0.00  0.00    +0.078 C 
BRANCH  17  18
ATOM     18  C   LIG    1       30.538 -19.942   7.941  0.00  0.00    +0.152 A 
ATOM     19  N   LIG    1       31.123 -19.027   8.784  0.00  0.00    -0.226 N 
ATOM     20  N   LIG    1       32.023 -19.657   9.560  0.00  0.00    -0.044 NA
ATOM     21  N   LIG    1       32.022 -20.916   9.159  0.00  0.00    -0.023 NA
ATOM     22  N   LIG    1       31.115 -21.109   8.154  0.00  0.00    -0.113 NA
BRANCH  19  23
ATOM     23  C   LIG    1       30.926 -17.589   8.877  0.00  0.00    +0.111 C 
ATOM     24  C   LIG    1       29.987 -17.180  10.023  0.00  0.00    +0.027 C 
ATOM     25  C   LIG    1       30.662 -17.150  11.394  0.00  0.00    +0.002 C 
ATOM     26  C   LIG    1       31.960 -16.347  11.386  0.00  0.00    +0.000 C 
ATOM     27  C   LIG    1       32.919 -16.800  10.291  0.00  0.00    +0.002 C 
ATOM     28  C   LIG    1       32.250 -16.807   8.919  0.00  0.00    +0.027 C 
ENDBRANCH  19  23
ENDBRANCH  17  18
ENDBRANCH  16  17
ENDBRANCH  15  16
ENDBRANCH   1  15
TORSDOF 7
ENDMDL
MODEL 2
REMARK VINA RESULT:     -10.1      1.344      1.921
REMARK  Name = *****
REMARK                            x       y       z     vdW  Elec       q    Type
REMARK                         _______ _______ _______ _____ _____    ______ ____
ROOT
ATOM      1  C   LIG    1       25.678 -22.514   7.563  0.00  0.00    +0.229 C 
ENDROOT
BRANCH   1   2
ATOM      2  O   LIG    1       26.406 -23.394   6.708  0.00  0.00    -0.492 OA
BRANCH   2  10
ATOM      3  O   LIG    1       23.407 -30.362   5.872  0.00  0.00    -0.276 OA
ATOM      4  C   LIG    1       23.952 -29.329   6.243  0.00  0.00    +0.217 C 
ATOM      5  N   LIG    1       23.930 -28.206   5.461  0.00  0.00    -0.285 N 
ATOM      6  H   LIG    1       23.403 -28.281   4.602  0.00  0.00    +0.155 HD
ATOM      7  C   LIG    1       24.564 -27.014   5.802  0.00  0.00    +0.037 A 
ATOM      8  C   LIG    1       25.438 -26.976   6.894  0.00  0.00    -0.022 A 
ATOM      9  C   LIG    1       26.087 -25.780   7.222  0.00  0.00    +0.051 A 
ATOM     10  C   LIG    1       25.851 -24.622   6.476  0.00  0.00    +0.121 A 
ATOM     11  C   LIG    1       24.984 -24.677   5.381  0.00  0.00    +0.047 A 
ATOM     12  C   LIG    1       25.747 -28.251   7.628  0.00  0.00    +0.046 C 
ATOM     13  C   LIG    1       24.347 -25.871   5.034  0.00  0.00    +0.027 A 
ATOM     14  C   LIG    1       24.557 -29.192   7.623  0.00  0.00    +0.101 C 
ENDBRANCH   2  10
ENDBRANCH   1   2
BRANCH   1  15
ATOM     15  C   LIG    1       26.649 -21.539   8.222  0.00  0.00    +0.041 C 
BRANCH  15  16
ATOM     16  C   LIG    1       28.020 -21.533   7.531  0.00  0.00    +0.011 C 
BRANCH  16  17
ATOM     17  C   LIG    1       28.791 -20.230   7.766  0.00  0.00    +0.078 C 
BRANCH  17  18
ATOM     18  C   LIG    1       30.145 -20.450   8.342  0.00  0.00    +0.152 A 
ATOM     19  N   LIG    1       31.008 -19.466   8.759  0.00  0.00    -0.226 N 
ATOM     20  N   LIG    1       32.110 -20.037   9.275  0.00  0.00    -0.044 NA
ATOM     21  N   LIG    1       31.943 -21.339   9.123  0.00  0.00    -0.023 NA
ATOM     22  N   LIG    1       30.736 -21.613   8.542  0.00  0.00    -0.113 NA
BRANCH  19  23
ATOM     23  C   LIG    1       30.885 -18.019   8.663  0.00  0.00    +0.111 C 
ATOM     24  C   LIG    1       29.810 -17.441   9.597  0.00  0.00    +0.027 C 
ATOM     25  C   LIG    1       30.271 -17.279  11.045  0.00  0.00    +0.002 C 
ATOM     26  C   LIG    1       31.601 -16.538  11.152  0.00  0.00    +0.000 C 
ATOM     27  C   LIG    1       32.686 -17.156  10.277  0.00  0.00    +0.002 C 
ATOM     28  C   LIG    1       32.231 -17.294   8.826  0.00  0.00    +0.027 C 
ENDBRANCH  19  23
ENDBRANCH  17  18
ENDBRANCH  16  17
ENDBRANCH  15  16
ENDBRANCH   1  15
TORSDOF 7
ENDMDL
MODEL 3
REMARK VINA RESULT:      -9.8      3.953     10.284
REMARK  Name = *****
REMARK                            x       y       z     vdW  Elec       q    Type
REMARK                         _______ _______ _______ _____ _____    ______ ____
ROOT
ATOM      1  C   LIG    1       31.323 -19.149   8.019  0.00  0.00    +0.229 C 
ENDROOT
BRANCH   1   2
ATOM      2  O   LIG    1       31.803 -17.805   7.986  0.00  0.00    -0.492 OA
BRANCH   2  10
ATOM      3  O   LIG    1       33.020 -14.888  14.932  0.00  0.00    -0.276 OA
ATOM      4  C   LIG    1       32.773 -15.575  13.947  0.00  0.00    +0.217 C 
ATOM      5  N   LIG    1       32.952 -15.079  12.685  0.00  0.00    -0.285 N 
ATOM      6  H   LIG    1       33.338 -14.146  12.632  0.00  0.00    +0.155 HD
ATOM      7  C   LIG    1       32.651 -15.788  11.525  0.00  0.00    +0.037 A 
ATOM      8  C   LIG    1       31.950 -16.996  11.609  0.00  0.00    -0.022 A 
ATOM      9  C   LIG    1       31.635 -17.697  10.439  0.00  0.00    +0.051 A 
ATOM     10  C   LIG    1       32.032 -17.206   9.193  0.00  0.00    +0.121 A 
ATOM     11  C   LIG    1       32.723 -15.992   9.124  0.00  0.00    +0.047 A 
ATOM     12  C   LIG    1       31.454 -17.462  12.948  0.00  0.00    +0.046 C 
ATOM     13  C   LIG    1       33.025 -15.275  10.283  0.00  0.00    +0.027 A 
ATOM     14  C   LIG    1       32.390 -17.034  14.063  0.00  0.00    +0.101 C 
ENDBRANCH   2  10
ENDBRANCH   1   2
BRANCH   1  15
ATOM     15  C   LIG    1       30.342 -19.359   6.869  0.00  0.00    +0.041 C 
BRANCH  15  16
ATOM     16  C   LIG    1       29.479 -20.613   7.067  0.00  0.00    +0.011 C 
BRANCH  16  17
ATOM     17  C   LIG    1       28.074 -20.459   6.477  0.00  0.00    +0.078 C 
BRANCH  17  18
ATOM     18  C   LIG    1       26.995 -20.689   7.475  0.00  0.00    +0.152 A 
ATOM     19  N   LIG    1       25.810 -21.345   7.238  0.00  0.00    -0.226 N 
ATOM     20  N   LIG    1       25.109 -21.412   8.383  0.00  0.00    -0.044 NA
ATOM     21  N   LIG    1       25.827 -20.763   9.282  0.00  0.00    -0.023 NA
ATOM     22  N   LIG    1       26.994 -20.303   8.737  0.00  0.00    -0.113 NA
BRANCH  19  23
ATOM     23  C   LIG    1       25.273 -21.872   5.993  0.00  0.00    +0.111 C 
ATOM     24  C   LIG    1       24.244 -22.994   6.207  0.00  0.00    +0.027 C 
ATOM     25  C   LIG    1       22.846 -22.490   6.567  0.00  0.00    +0.002 C 
ATOM     26  C   LIG    1       22.350 -21.415   5.604  0.00  0.00    +0.000 C 
ATOM     27  C   LIG    1       23.343 -20.269   5.447  0.00  0.00    +0.002 C 
ATOM     28  C   LIG    1       24.733 -20.773   5.064  0.00  0.00    +0.027 C 
ENDBRANCH  19  23
ENDBRANCH  17  18
ENDBRANCH  16  17
ENDBRANCH  15  16
ENDBRANCH   1  15
TORSDOF 7
ENDMDL
MODEL 4
REMARK VINA RESULT:      -9.7      4.733      6.728
REMARK  Name = *****
REMARK                            x       y       z     vdW  Elec       q    Type
REMARK                         _______ _______ _______ _____ _____    ______ ____
ROOT
ATOM      1  C   LIG    1       25.145 -25.151   5.008  0.00  0.00    +0.229 C 
ENDROOT
BRANCH   1   2
ATOM      2  O   LIG    1       26.127 -26.120   5.376  0.00  0.00    -0.492 OA
BRANCH   2  10
ATOM      3  O   LIG    1       23.722 -32.096   9.469  0.00  0.00    -0.276 OA
ATOM      4  C   LIG    1       24.181 -31.042   9.043  0.00  0.00    +0.217 C 
ATOM      5  N   LIG    1       24.055 -30.707   7.722  0.00  0.00    -0.285 N 
ATOM      6  H   LIG    1       23.527 -31.356   7.155  0.00  0.00    +0.155 HD
ATOM      7  C   LIG    1       24.589 -29.549   7.164  0.00  0.00    +0.037 A 
ATOM      8  C   LIG    1       25.468 -28.757   7.910  0.00  0.00    -0.022 A 
ATOM      9  C   LIG    1       26.017 -27.603   7.338  0.00  0.00    +0.051 A 
ATOM     10  C   LIG    1       25.676 -27.230   6.036  0.00  0.00    +0.121 A 
ATOM     11  C   LIG    1       24.804 -28.037   5.298  0.00  0.00    +0.047 A 
ATOM     12  C   LIG    1       25.893 -29.222   9.275  0.00  0.00    +0.046 C 
ATOM     13  C   LIG    1       24.268 -29.201   5.853  0.00  0.00    +0.027 A 
ATOM     14  C   LIG    1       24.787 -30.002   9.960  0.00  0.00    +0.101 C 
ENDBRANCH   2  10
ENDBRANCH   1   2
BRANCH   1  15
ATOM     15  C   LIG    1       24.572 -24.515   6.270  0.00  0.00    +0.041 C 
BRANCH  15  16
ATOM     16  C   LIG    1       25.661 -23.872   7.140  0.00  0.00    +0.011 C 
BRANCH  16  17
ATOM     17  C   LIG    1       25.336 -22.423   7.514  0.00  0.00    +0.078 C 
BRANCH  17  18
ATOM     18  C   LIG    1       26.079 -21.429   6.694  0.00  0.00    +0.152 A 
ATOM     19  N   LIG    1       25.649 -20.888   5.505  0.00  0.00    -0.226 N 
ATOM     20  N   LIG    1       26.551 -19.986   5.081  0.00  0.00    -0.044 NA
ATOM     21  N   LIG    1       27.532 -20.018   5.965  0.00  0.00    -0.023 NA
ATOM     22  N   LIG    1       27.261 -20.909   6.966  0.00  0.00    -0.113 NA
BRANCH  19  23
ATOM     23  C   LIG    1       24.467 -21.199   4.717  0.00  0.00    +0.111 C 
ATOM     24  C   LIG    1       23.166 -21.148   5.533  0.00  0.00    +0.027 C 
ATOM     25  C   LIG    1       22.622 -19.735   5.743  0.00  0.00    +0.002 C 
ATOM     26  C   LIG    1       22.526 -18.949   4.438  0.00  0.00    +0.000 C 
ATOM     27  C   LIG    1       23.839 -18.943   3.663  0.00  0.00    +0.002 C 
ATOM     28  C   LIG    1       24.368 -20.357   3.434  0.00  0.00    +0.027 C 
ENDBRANCH  19  23
ENDBRANCH  17  18
ENDBRANCH  16  17
ENDBRANCH  15  16
ENDBRANCH   1  15
TORSDOF 7
ENDMDL
MODEL 5
REMARK VINA RESULT:      -9.5      3.096      5.176
REMARK  Name = *****
REMARK                            x       y       z     vdW  Elec       q    Type
REMARK                         _______ _______ _______ _____ _____    ______ ____
ROOT
ATOM      1  C   LIG    1       25.069 -25.157   4.979  0.00  0.00    +0.229 C 
ENDROOT
BRANCH   1   2
ATOM      2  O   LIG    1       26.083 -26.048   5.443  0.00  0.00    -0.492 OA
BRANCH   2  10
ATOM      3  O   LIG    1       23.803 -32.180   9.372  0.00  0.00    -0.276 OA
ATOM      4  C   LIG    1       24.230 -31.102   8.975  0.00  0.00    +0.217 C 
ATOM      5  N   LIG    1       24.136 -30.754   7.655  0.00  0.00    -0.285 N 
ATOM      6  H   LIG    1       23.658 -31.418   7.061  0.00  0.00    +0.155 HD
ATOM      7  C   LIG    1       24.637 -29.566   7.131  0.00  0.00    +0.037 A 
ATOM      8  C   LIG    1       25.453 -28.746   7.918  0.00  0.00    -0.022 A 
ATOM      9  C   LIG    1       25.969 -27.561   7.381  0.00  0.00    +0.051 A 
ATOM     10  C   LIG    1       25.659 -27.186   6.072  0.00  0.00    +0.121 A 
ATOM     11  C   LIG    1       24.851 -28.020   5.293  0.00  0.00    +0.047 A 
ATOM     12  C   LIG    1       25.849 -29.211   9.292  0.00  0.00    +0.046 C 
ATOM     13  C   LIG    1       24.348 -29.214   5.813  0.00  0.00    +0.027 A 
ATOM     14  C   LIG    1       24.755 -30.049   9.927  0.00  0.00    +0.101 C 
ENDBRANCH   2  10
ENDBRANCH   1   2
BRANCH   1  15
ATOM     15  C   LIG    1       24.200 -24.731   6.158  0.00  0.00    +0.041 C 
BRANCH  15  16
ATOM     16  C   LIG    1       24.561 -23.327   6.665  0.00  0.00    +0.011 C 
BRANCH  16  17
ATOM     17  C   LIG    1       25.969 -23.263   7.265  0.00  0.00    +0.078 C 
BRANCH  17  18
ATOM     18  C   LIG    1       26.215 -22.018   8.042  0.00  0.00    +0.152 A 
ATOM     19  N   LIG    1       27.307 -21.195   7.911  0.00  0.00    -0.226 N 
ATOM     20  N   LIG    1       27.162 -20.139   8.730  0.00  0.00    -0.044 NA
ATOM     21  N   LIG    1       26.032 -20.345   9.384  0.00  0.00    -0.023 NA
ATOM     22  N   LIG    1       25.436 -21.506   8.976  0.00  0.00    -0.113 NA
BRANCH  19  23
ATOM     23  C   LIG    1       28.504 -21.359   7.099  0.00  0.00    +0.111 C 
ATOM     24  C   LIG    1       28.585 -20.360   5.935  0.00  0.00    +0.027 C 
ATOM     25  C   LIG    1       29.083 -18.974   6.342  0.00  0.00    +0.002 C 
ATOM     26  C   LIG    1       30.375 -19.036   7.152  0.00  0.00    +0.000 C 
ATOM     27  C   LIG    1       30.270 -19.975   8.348  0.00  0.00    +0.002 C 
ATOM     28  C   LIG    1       29.795 -21.366   7.935  0.00  0.00    +0.027 C 
ENDBRANCH  19  23
ENDBRANCH  17  18
ENDBRANCH  16  17
ENDBRANCH  15  16
ENDBRANCH   1  15
TORSDOF 7
ENDMDL
MODEL 6
REMARK VINA RESULT:      -9.5      5.327      7.296
REMARK  Name = *****
REMARK                            x       y       z     vdW  Elec       q    Type
REMARK                         _______ _______ _______ _____ _____    ______ ____
ROOT
ATOM      1  C   LIG    1       25.605 -26.673   5.003  0.00  0.00    +0.229 C 
ENDROOT
BRANCH   1   2
ATOM      2  O   LIG    1       24.589 -27.608   5.366  0.00  0.00    -0.492 OA
BRANCH   2  10
ATOM      3  O   LIG    1       26.072 -31.514  11.753  0.00  0.00    -0.276 OA
ATOM      4  C   LIG    1       25.926 -30.685  10.862  0.00  0.00    +0.217 C 
ATOM      5  N   LIG    1       25.303 -31.018   9.691  0.00  0.00    -0.285 N 
ATOM      6  H   LIG    1       24.941 -31.960   9.640  0.00  0.00    +0.155 HD
ATOM      7  C   LIG    1       25.142 -30.139   8.623  0.00  0.00    +0.037 A 
ATOM      8  C   LIG    1       25.803 -28.906   8.629  0.00  0.00    -0.022 A 
ATOM      9  C   LIG    1       25.652 -28.033   7.546  0.00  0.00    +0.051 A 
ATOM     10  C   LIG    1       24.832 -28.379   6.469  0.00  0.00    +0.121 A 
ATOM     11  C   LIG    1       24.186 -29.620   6.471  0.00  0.00    +0.047 A 
ATOM     12  C   LIG    1       26.750 -28.590   9.752  0.00  0.00    +0.046 C 
ATOM     13  C   LIG    1       24.346 -30.506   7.538  0.00  0.00    +0.027 A 
ATOM     14  C   LIG    1       26.299 -29.230  11.052  0.00  0.00    +0.101 C 
ENDBRANCH   2  10
ENDBRANCH   1   2
BRANCH   1  15
ATOM     15  C   LIG    1       25.017 -25.265   5.020  0.00  0.00    +0.041 C 
BRANCH  15  16
ATOM     16  C   LIG    1       24.845 -24.727   6.447  0.00  0.00    +0.011 C 
BRANCH  16  17
ATOM     17  C   LIG    1       25.984 -23.792   6.865  0.00  0.00    +0.078 C 
BRANCH  17  18
ATOM     18  C   LIG    1       25.503 -22.504   7.433  0.00  0.00    +0.152 A 
ATOM     19  N   LIG    1       24.547 -21.690   6.874  0.00  0.00    -0.226 N 
ATOM     20  N   LIG    1       24.327 -20.645   7.692  0.00  0.00    -0.044 NA
ATOM     21  N   LIG    1       25.169 -20.795   8.699  0.00  0.00    -0.023 NA
ATOM     22  N   LIG    1       25.909 -21.936   8.552  0.00  0.00    -0.113 NA
BRANCH  19  23
ATOM     23  C   LIG    1       23.861 -21.803   5.596  0.00  0.00    +0.111 C 
ATOM     24  C   LIG    1       22.508 -21.074   5.571  0.00  0.00    +0.027 C 
ATOM     25  C   LIG    1       22.622 -19.566   5.346  0.00  0.00    +0.002 C 
ATOM     26  C   LIG    1       23.495 -19.222   4.143  0.00  0.00    +0.000 C 
ATOM     27  C   LIG    1       24.864 -19.892   4.205  0.00  0.00    +0.002 C 
ATOM     28  C   LIG    1       24.747 -21.401   4.405  0.00  0.00    +0.027 C 
ENDBRANCH  19  23
ENDBRANCH  17  18
ENDBRANCH  16  17
ENDBRANCH  15  16
ENDBRANCH   1  15
TORSDOF 7
ENDMDL
MODEL 7
REMARK VINA RESULT:      -9.4      2.693      4.044
REMARK  Name = *****
REMARK                            x       y       z     vdW  Elec       q    Type
REMARK                         _______ _______ _______ _____ _____    ______ ____
ROOT
ATOM      1  C   LIG    1       26.652 -22.720   8.337  0.00  0.00    +0.229 C 
ENDROOT
BRANCH   1   2
ATOM      2  O   LIG    1       26.077 -22.989   7.059  0.00  0.00    -0.492 OA
BRANCH   2  10
ATOM      3  O   LIG    1       21.415 -17.829   3.915  0.00  0.00    -0.276 OA
ATOM      4  C   LIG    1       22.285 -18.648   4.191  0.00  0.00    +0.217 C 
ATOM      5  N   LIG    1       22.253 -19.331   5.375  0.00  0.00    -0.285 N 
ATOM      6  H   LIG    1       21.453 -19.147   5.966  0.00  0.00    +0.155 HD
ATOM      7  C   LIG    1       23.231 -20.241   5.769  0.00  0.00    +0.037 A 
ATOM      8  C   LIG    1       24.417 -20.350   5.038  0.00  0.00    -0.022 A 
ATOM      9  C   LIG    1       25.404 -21.254   5.448  0.00  0.00    +0.051 A 
ATOM     10  C   LIG    1       25.201 -22.059   6.571  0.00  0.00    +0.121 A 
ATOM     11  C   LIG    1       24.014 -21.932   7.300  0.00  0.00    +0.047 A 
ATOM     12  C   LIG    1       24.655 -19.414   3.886  0.00  0.00    +0.046 C 
ATOM     13  C   LIG    1       23.032 -21.019   6.910  0.00  0.00    +0.027 A 
ATOM     14  C   LIG    1       23.355 -19.045   3.197  0.00  0.00    +0.101 C 
ENDBRANCH   2  10
ENDBRANCH   1   2
BRANCH   1  15
ATOM     15  C   LIG    1       27.420 -21.404   8.273  0.00  0.00    +0.041 C 
BRANCH  15  16
ATOM     16  C   LIG    1       28.469 -21.401   7.151  0.00  0.00    +0.011 C 
BRANCH  16  17
ATOM     17  C   LIG    1       29.367 -20.161   7.190  0.00  0.00    +0.078 C 
BRANCH  17  18
ATOM     18  C   LIG    1       30.544 -20.322   8.086  0.00  0.00    +0.152 A 
ATOM     19  N   LIG    1       31.196 -19.306   8.744  0.00  0.00    -0.226 N 
ATOM     20  N   LIG    1       32.172 -19.831   9.505  0.00  0.00    -0.044 NA
ATOM     21  N   LIG    1       32.148 -21.132   9.272  0.00  0.00    -0.023 NA
ATOM     22  N   LIG    1       31.152 -21.452   8.391  0.00  0.00    -0.113 NA
BRANCH  19  23
ATOM     23  C   LIG    1       30.991 -17.868   8.668  0.00  0.00    +0.111 C 
ATOM     24  C   LIG    1       29.868 -17.368   9.591  0.00  0.00    +0.027 C 
ATOM     25  C   LIG    1       30.294 -17.204  11.050  0.00  0.00    +0.002 C 
ATOM     26  C   LIG    1       31.577 -16.390  11.194  0.00  0.00    +0.000 C 
ATOM     27  C   LIG    1       32.710 -16.930  10.329  0.00  0.00    +0.002 C 
ATOM     28  C   LIG    1       32.290 -17.070   8.868  0.00  0.00    +0.027 C 
ENDBRANCH  19  23
ENDBRANCH  17  18
ENDBRANCH  16  17
ENDBRANCH  15  16
ENDBRANCH   1  15
TORSDOF 7
ENDMDL
MODEL 8
REMARK VINA RESULT:      -9.3      2.821      8.548
REMARK  Name = *****
REMARK                            x       y       z     vdW  Elec       q    Type
REMARK                         _______ _______ _______ _____ _____    ______ ____
ROOT
ATOM      1  C   LIG    1       25.630 -20.277   4.270  0.00  0.00    +0.229 C 
ENDROOT
BRANCH   1   2
ATOM      2  O   LIG    1       26.568 -19.315   4.752  0.00  0.00    -0.492 OA
BRANCH   2  10
ATOM      3  O   LIG    1       32.124 -21.429   9.538  0.00  0.00    -0.276 OA
ATOM      4  C   LIG    1       31.363 -20.866   8.760  0.00  0.00    +0.217 C 
ATOM      5  N   LIG    1       30.195 -21.461   8.369  0.00  0.00    -0.285 N 
ATOM      6  H   LIG    1       29.994 -22.354   8.797  0.00  0.00    +0.155 HD
ATOM      7  C   LIG    1       29.307 -20.896   7.457  0.00  0.00    +0.037 A 
ATOM      8  C   LIG    1       29.679 -19.757   6.735  0.00  0.00    -0.022 A 
ATOM      9  C   LIG    1       28.790 -19.204   5.806  0.00  0.00    +0.051 A 
ATOM     10  C   LIG    1       27.529 -19.772   5.612  0.00  0.00    +0.121 A 
ATOM     11  C   LIG    1       27.174 -20.917   6.332  0.00  0.00    +0.047 A 
ATOM     12  C   LIG    1       31.071 -19.214   6.893  0.00  0.00    +0.046 C 
ATOM     13  C   LIG    1       28.062 -21.488   7.246  0.00  0.00    +0.027 A 
ATOM     14  C   LIG    1       31.598 -19.444   8.297  0.00  0.00    +0.101 C 
ENDBRANCH   2  10
ENDBRANCH   1   2
BRANCH   1  15
ATOM     15  C   LIG    1       24.245 -19.641   4.217  0.00  0.00    +0.041 C 
BRANCH  15  16
ATOM     16  C   LIG    1       23.344 -20.119   5.365  0.00  0.00    +0.011 C 
BRANCH  16  17
ATOM     17  C   LIG    1       24.073 -21.058   6.332  0.00  0.00    +0.078 C 
BRANCH  17  18
ATOM     18  C   LIG    1       23.373 -22.357   6.522  0.00  0.00    +0.152 A 
ATOM     19  N   LIG    1       23.910 -23.599   6.278  0.00  0.00    -0.226 N 
ATOM     20  N   LIG    1       23.011 -24.540   6.617  0.00  0.00    -0.044 NA
ATOM     21  N   LIG    1       21.932 -23.881   7.005  0.00  0.00    -0.023 NA
ATOM     22  N   LIG    1       22.137 -22.530   6.947  0.00  0.00    -0.113 NA
BRANCH  19  23
ATOM     23  C   LIG    1       25.196 -23.959   5.703  0.00  0.00    +0.111 C 
ATOM     24  C   LIG    1       26.189 -24.508   6.740  0.00  0.00    +0.027 C 
ATOM     25  C   LIG    1       25.964 -25.978   7.094  0.00  0.00    +0.002 C 
ATOM     26  C   LIG    1       25.860 -26.865   5.856  0.00  0.00    +0.000 C 
ATOM     27  C   LIG    1       24.825 -26.356   4.860  0.00  0.00    +0.002 C 
ATOM     28  C   LIG    1       25.065 -24.895   4.489  0.00  0.00    +0.027 C 
ENDBRANCH  19  23
ENDBRANCH  17  18
ENDBRANCH  16  17
ENDBRANCH  15  16
ENDBRANCH   1  15
TORSDOF 7
ENDMDL
MODEL 9
REMARK VINA RESULT:      -9.1      3.109      4.817
REMARK  Name = *****
REMARK                            x       y       z     vdW  Elec       q    Type
REMARK                         _______ _______ _______ _____ _____    ______ ____
ROOT
ATOM      1  C   LIG    1       24.846 -24.156   6.613  0.00  0.00    +0.229 C 
ENDROOT
BRANCH   1   2
ATOM      2  O   LIG    1       25.872 -25.149   6.622  0.00  0.00    -0.492 OA
BRANCH   2  10
ATOM      3  O   LIG    1       23.648 -32.447   6.425  0.00  0.00    -0.276 OA
ATOM      4  C   LIG    1       24.038 -31.320   6.710  0.00  0.00    +0.217 C 
ATOM      5  N   LIG    1       24.042 -30.323   5.774  0.00  0.00    -0.285 N 
ATOM      6  H   LIG    1       23.664 -30.570   4.869  0.00  0.00    +0.155 HD
ATOM      7  C   LIG    1       24.510 -29.035   6.018  0.00  0.00    +0.037 A 
ATOM      8  C   LIG    1       25.197 -28.756   7.204  0.00  0.00    -0.022 A 
ATOM      9  C   LIG    1       25.682 -27.464   7.438  0.00  0.00    +0.051 A 
ATOM     10  C   LIG    1       25.467 -26.450   6.501  0.00  0.00    +0.121 A 
ATOM     11  C   LIG    1       24.789 -26.746   5.314  0.00  0.00    +0.047 A 
ATOM     12  C   LIG    1       25.496 -29.879   8.157  0.00  0.00    +0.046 C 
ATOM     13  C   LIG    1       24.319 -28.036   5.064  0.00  0.00    +0.027 A 
ATOM     14  C   LIG    1       24.406 -30.934   8.126  0.00  0.00    +0.101 C 
ENDBRANCH   2  10
ENDBRANCH   1   2
BRANCH   1  15
ATOM     15  C   LIG    1       25.088 -23.198   5.450  0.00  0.00    +0.041 C 
BRANCH  15  16
ATOM     16  C   LIG    1       24.209 -21.943   5.544  0.00  0.00    +0.011 C 
BRANCH  16  17
ATOM     17  C   LIG    1       25.024 -20.673   5.808  0.00  0.00    +0.078 C 
BRANCH  17  18
ATOM     18  C   LIG    1       25.632 -20.643   7.165  0.00  0.00    +0.152 A 
ATOM     19  N   LIG    1       26.977 -20.703   7.443  0.00  0.00    -0.226 N 
ATOM     20  N   LIG    1       27.157 -20.591   8.770  0.00  0.00    -0.044 NA
ATOM     21  N   LIG    1       25.945 -20.520   9.292  0.00  0.00    -0.023 NA
ATOM     22  N   LIG    1       24.989 -20.557   8.314  0.00  0.00    -0.113 NA
BRANCH  19  23
ATOM     23  C   LIG    1       28.103 -20.905   6.545  0.00  0.00    +0.111 C 
ATOM     24  C   LIG    1       28.461 -19.651   5.732  0.00  0.00    +0.027 C 
ATOM     25  C   LIG    1       29.295 -18.630   6.506  0.00  0.00    +0.002 C 
ATOM     26  C   LIG    1       30.513 -19.262   7.175  0.00  0.00    +0.000 C 
ATOM     27  C   LIG    1       30.146 -20.465   8.037  0.00  0.00    +0.002 C 
ATOM     28  C   LIG    1       29.333 -21.495   7.255  0.00  0.00    +0.027 C 
ENDBRANCH  19  23
ENDBRANCH  17  18
ENDBRANCH  16  17
ENDBRANCH  15  16
ENDBRANCH   1  15
TORSDOF 7
ENDMDL
