MODEL 1
REMARK VINA RESULT:       1.2      0.000      0.000
REMARK  Name = *****
REMARK                            x       y       z     vdW  Elec       q    Type
REMARK                         _______ _______ _______ _____ _____    ______ ____
ROOT
ATOM      1  C   LIG    1       27.218 -14.447   3.966  0.00  0.00    +0.119 A 
ATOM      2  C   LIG    1       25.937 -14.647   3.426  0.00  0.00    +0.083 A 
ATOM      3  C   LIG    1       25.470 -15.980   3.305  0.00  0.00    +0.039 A 
ATOM      4  C   LIG    1       26.236 -17.091   3.678  0.00  0.00    +0.056 A 
ATOM      5  N   LIG    1       25.635 -18.352   3.678  0.00  0.00    -0.326 N 
ATOM      6  H   LIG    1       24.884 -18.431   2.993  0.00  0.00    +0.148 HD
ATOM      7  C   LIG    1       26.506 -19.515   3.656  0.00  0.00    +0.164 C 
ATOM      8  N   LIG    1       27.341 -19.436   4.838  0.00  0.00    -0.170 NA
ATOM      9  H   LIG    1       26.818 -19.367   5.709  0.00  0.00    +0.150 HD
ATOM     10  S   LIG    1       28.474 -18.205   4.744  0.00  0.00    +0.062 S 
ATOM     11  O   LIG    1       29.403 -18.523   3.683  0.00  0.00    -0.153 OA
ATOM     12  O   LIG    1       28.900 -17.935   6.098  0.00  0.00    -0.153 OA
ATOM     13  C   LIG    1       27.504 -16.842   4.199  0.00  0.00    +0.128 A 
ATOM     14  C   LIG    1       28.008 -15.544   4.345  0.00  0.00    +0.059 A 
ENDROOT
BRANCH   2  15
ATOM     15  C   LIG    1       24.975 -13.572   2.969  0.00  0.00    +0.419 C 
ATOM     16  F   LIG    1       24.867 -12.585   3.907  0.00  0.00    -0.166 F 
ATOM     17  F   LIG    1       23.713 -14.065   2.823  0.00  0.00    -0.166 F 
ATOM     18  F   LIG    1       25.253 -12.923   1.812  0.00  0.00    -0.166 F 
ENDBRANCH   2  15
BRANCH   1  19
ATOM     19  S   LIG    1       27.889 -12.827   4.236  0.00  0.00    +0.057 S 
ATOM     20  O   LIG    1       27.300 -11.911   3.283  0.00  0.00    -0.153 OA
ATOM     21  O   LIG    1       27.890 -12.570   5.650  0.00  0.00    -0.153 OA
BRANCH  19  22
ATOM     22  N   LIG    1       29.474 -13.019   3.723  0.00  0.00    -0.203 NA
ATOM     23  H   LIG    1       29.530 -13.746   3.008  0.00  0.00    +0.144 HD
ATOM     24  H   LIG    1       29.854 -12.116   3.427  0.00  0.00    +0.144 HD
ENDBRANCH  19  22
ENDBRANCH   1  19
BRANCH   7  25
ATOM     25  C   LIG    1       25.667 -20.815   3.724  0.00  0.00    +0.075 C 
BRANCH  25  26
ATOM     26  C   LIG    1       24.606 -20.830   4.807  0.00  0.00    -0.044 A 
ATOM     27  C   LIG    1       24.877 -21.443   6.039  0.00  0.00    +0.003 A 
ATOM     28  C   LIG    1       23.927 -21.443   7.062  0.00  0.00    +0.000 A 
ATOM     29  C   LIG    1       22.692 -20.830   6.865  0.00  0.00    +0.000 A 
ATOM     30  C   LIG    1       22.401 -20.236   5.638  0.00  0.00    +0.000 A 
ATOM     31  C   LIG    1       23.348 -20.243   4.609  0.00  0.00    +0.003 A 
ENDBRANCH  25  26
ENDBRANCH   7  25
TORSDOF 5
ENDMDL
MODEL 2
REMARK VINA RESULT:       3.2      4.341      7.666
REMARK  Name = *****
REMARK                            x       y       z     vdW  Elec       q    Type
REMARK                         _______ _______ _______ _____ _____    ______ ____
ROOT
ATOM      1  C   LIG    1       23.434 -18.865   4.433  0.00  0.00    +0.119 A 
ATOM      2  C   LIG    1       24.692 -19.230   3.925  0.00  0.00    +0.083 A 
ATOM      3  C   LIG    1       25.532 -18.199   3.435  0.00  0.00    +0.039 A 
ATOM      4  C   LIG    1       25.153 -16.852   3.419  0.00  0.00    +0.056 A 
ATOM      5  N   LIG    1       26.106 -15.890   3.073  0.00  0.00    -0.326 N 
ATOM      6  H   LIG    1       26.816 -16.250   2.435  0.00  0.00    +0.148 HD
ATOM      7  C   LIG    1       25.625 -14.582   2.659  0.00  0.00    +0.164 C 
ATOM      8  N   LIG    1       24.856 -14.048   3.765  0.00  0.00    -0.170 NA
ATOM      9  H   LIG    1       25.371 -14.006   4.643  0.00  0.00    +0.150 HD
ATOM     10  S   LIG    1       23.403 -14.852   3.985  0.00  0.00    +0.062 S 
ATOM     11  O   LIG    1       22.568 -14.604   2.831  0.00  0.00    -0.153 OA
ATOM     12  O   LIG    1       22.973 -14.562   5.334  0.00  0.00    -0.153 OA
ATOM     13  C   LIG    1       23.893 -16.541   3.924  0.00  0.00    +0.128 A 
ATOM     14  C   LIG    1       23.029 -17.521   4.425  0.00  0.00    +0.059 A 
ENDROOT
BRANCH   2  15
ATOM     15  C   LIG    1       25.264 -20.629   3.861  0.00  0.00    +0.419 C 
ATOM     16  F   LIG    1       26.585 -20.599   3.515  0.00  0.00    -0.166 F 
ATOM     17  F   LIG    1       24.659 -21.369   2.890  0.00  0.00    -0.166 F 
ATOM     18  F   LIG    1       25.216 -21.386   4.984  0.00  0.00    -0.166 F 
ENDBRANCH   2  15
BRANCH   1  19
ATOM     19  S   LIG    1       22.319 -20.049   5.140  0.00  0.00    +0.057 S 
ATOM     20  O   LIG    1       22.677 -20.260   6.527  0.00  0.00    -0.153 OA
ATOM     21  O   LIG    1       20.983 -19.708   4.736  0.00  0.00    -0.153 OA
BRANCH  19  22
ATOM     22  N   LIG    1       22.773 -21.462   4.360  0.00  0.00    -0.203 NA
ATOM     23  H   LIG    1       22.401 -21.477   3.409  0.00  0.00    +0.144 HD
ATOM     24  H   LIG    1       23.790 -21.573   4.408  0.00  0.00    +0.144 HD
ENDBRANCH  19  22
ENDBRANCH   1  19
BRANCH   7  25
ATOM     25  C   LIG    1       26.819 -13.637   2.378  0.00  0.00    +0.075 C 
BRANCH  25  26
ATOM     26  C   LIG    1       27.558 -13.163   3.614  0.00  0.00    -0.044 A 
ATOM     27  C   LIG    1       28.710 -12.373   3.478  0.00  0.00    +0.003 A 
ATOM     28  C   LIG    1       29.389 -11.901   4.602  0.00  0.00    +0.000 A 
ATOM     29  C   LIG    1       28.926 -12.212   5.877  0.00  0.00    +0.000 A 
ATOM     30  C   LIG    1       27.796 -13.014   6.028  0.00  0.00    +0.000 A 
ATOM     31  C   LIG    1       27.119 -13.496   4.903  0.00  0.00    +0.003 A 
ENDBRANCH  25  26
ENDBRANCH   7  25
TORSDOF 5
ENDMDL
MODEL 3
REMARK VINA RESULT:       3.4      3.377      4.266
REMARK  Name = *****
REMARK                            x       y       z     vdW  Elec       q    Type
REMARK                         _______ _______ _______ _____ _____    ______ ____
ROOT
ATOM      1  C   LIG    1       24.594 -13.905   3.432  0.00  0.00    +0.119 A 
ATOM      2  C   LIG    1       25.926 -14.335   3.556  0.00  0.00    +0.083 A 
ATOM      3  C   LIG    1       26.156 -15.706   3.828  0.00  0.00    +0.039 A 
ATOM      4  C   LIG    1       25.120 -16.633   3.995  0.00  0.00    +0.056 A 
ATOM      5  N   LIG    1       25.441 -17.989   4.095  0.00  0.00    -0.326 N 
ATOM      6  H   LIG    1       26.366 -18.147   4.496  0.00  0.00    +0.148 HD
ATOM      7  C   LIG    1       24.447 -18.878   4.671  0.00  0.00    +0.164 C 
ATOM      8  N   LIG    1       23.262 -18.776   3.841  0.00  0.00    -0.170 NA
ATOM      9  H   LIG    1       23.430 -18.976   2.856  0.00  0.00    +0.150 HD
ATOM     10  S   LIG    1       22.486 -17.301   4.007  0.00  0.00    +0.062 S 
ATOM     11  O   LIG    1       21.974 -17.207   5.356  0.00  0.00    -0.153 OA
ATOM     12  O   LIG    1       21.646 -17.145   2.842  0.00  0.00    -0.153 OA
ATOM     13  C   LIG    1       23.817 -16.158   3.872  0.00  0.00    +0.128 A 
ATOM     14  C   LIG    1       23.537 -14.814   3.598  0.00  0.00    +0.059 A 
ENDROOT
BRANCH   2  15
ATOM     15  C   LIG    1       27.164 -13.478   3.411  0.00  0.00    +0.419 C 
ATOM     16  F   LIG    1       28.256 -14.246   3.118  0.00  0.00    -0.166 F 
ATOM     17  F   LIG    1       27.475 -12.850   4.580  0.00  0.00    -0.166 F 
ATOM     18  F   LIG    1       27.158 -12.509   2.464  0.00  0.00    -0.166 F 
ENDBRANCH   2  15
BRANCH   1  19
ATOM     19  S   LIG    1       24.174 -12.231   3.023  0.00  0.00    +0.057 S 
ATOM     20  O   LIG    1       25.390 -11.451   2.935  0.00  0.00    -0.153 OA
ATOM     21  O   LIG    1       23.199 -12.256   1.968  0.00  0.00    -0.153 OA
BRANCH  19  22
ATOM     22  N   LIG    1       23.430 -11.707   4.432  0.00  0.00    -0.203 NA
ATOM     23  H   LIG    1       23.883 -12.122   5.248  0.00  0.00    +0.144 HD
ATOM     24  H   LIG    1       23.403 -10.684   4.450  0.00  0.00    +0.144 HD
ENDBRANCH  19  22
ENDBRANCH   1  19
BRANCH   7  25
ATOM     25  C   LIG    1       24.953 -20.342   4.640  0.00  0.00    +0.075 C 
BRANCH  25  26
ATOM     26  C   LIG    1       26.290 -20.565   5.320  0.00  0.00    -0.044 A 
ATOM     27  C   LIG    1       27.435 -19.914   4.835  0.00  0.00    +0.003 A 
ATOM     28  C   LIG    1       28.671 -20.081   5.463  0.00  0.00    +0.000 A 
ATOM     29  C   LIG    1       28.777 -20.902   6.583  0.00  0.00    +0.000 A 
ATOM     30  C   LIG    1       27.653 -21.572   7.062  0.00  0.00    +0.000 A 
ATOM     31  C   LIG    1       26.416 -21.413   6.428  0.00  0.00    +0.003 A 
ENDBRANCH  25  26
ENDBRANCH   7  25
TORSDOF 5
ENDMDL
