MODEL 1
REMARK VINA RESULT:      10.3      0.000      0.000
REMARK  Name = *****
REMARK                            x       y       z     vdW  Elec       q    Type
REMARK                         _______ _______ _______ _____ _____    ______ ____
ROOT
ATOM      1  C   LIG    1       26.293 -20.432   4.884  0.00  0.00    +0.011 C 
ATOM      2  C   LIG    1       25.038 -19.919   4.178  0.00  0.00    +0.026 C 
ATOM      3  C   LIG    1       24.001 -19.185   5.082  0.00  0.00    +0.134 C 
ATOM      4  C   LIG    1       23.226 -18.308   4.038  0.00  0.00    +0.010 C 
ATOM      5  C   LIG    1       24.372 -17.759   3.144  0.00  0.00    +0.005 C 
ATOM      6  C   LIG    1       25.078 -16.455   3.632  0.00  0.00    +0.036 C 
ATOM      7  C   LIG    1       24.105 -15.372   4.158  0.00  0.00    +0.153 C 
ATOM      8  C   LIG    1       23.107 -15.970   5.171  0.00  0.00    +0.154 C 
ATOM      9  F   LIG    1       23.351 -15.002   3.056  0.00  0.00    -0.238 F 
ATOM     10  C   LIG    1       24.869 -14.063   4.669  0.00  0.00    +0.047 C 
ATOM     11  C   LIG    1       26.198 -13.922   3.910  0.00  0.00    -0.020 C 
ATOM     12  C   LIG    1       27.357 -13.544   4.478  0.00  0.00    +0.054 C 
ATOM     13  C   LIG    1       27.462 -13.312   5.932  0.00  0.00    +0.179 C 
ATOM     14  C   LIG    1       26.281 -13.662   6.748  0.00  0.00    +0.047 C 
ATOM     15  O   LIG    1       28.493 -12.907   6.445  0.00  0.00    -0.288 OA
ATOM     16  C   LIG    1       26.146 -14.383   2.486  0.00  0.00    +0.194 C 
ATOM     17  F   LIG    1       27.295 -14.095   1.813  0.00  0.00    -0.241 F 
ATOM     18  C   LIG    1       24.025 -12.799   4.359  0.00  0.00    +0.023 C 
ATOM     19  C   LIG    1       25.124 -14.020   6.174  0.00  0.00    -0.009 C 
ATOM     20  C   LIG    1       25.959 -15.899   2.473  0.00  0.00    +0.048 C 
ATOM     21  C   LIG    1       22.279 -19.181   3.162  0.00  0.00    +0.015 C 
ATOM     22  C   LIG    1       22.360 -17.165   4.594  0.00  0.00    +0.044 C 
ATOM     23  C   LIG    1       25.386 -18.923   3.054  0.00  0.00    +0.011 C 
ENDROOT
BRANCH   3  24
ATOM     24  O   LIG    1       24.701 -18.345   5.995  0.00  0.00    -0.380 OA
ATOM     25  H   LIG    1       25.283 -17.747   5.491  0.00  0.00    +0.211 HD
ENDBRANCH   3  24
BRANCH   3  26
ATOM     26  C   LIG    1       23.095 -20.197   5.840  0.00  0.00    +0.190 C 
ATOM     27  O   LIG    1       22.714 -20.000   6.999  0.00  0.00    -0.292 OA
BRANCH  26  28
ATOM     28  C   LIG    1       22.714 -21.499   5.137  0.00  0.00    +0.233 C 
BRANCH  28  29
ATOM     29  O   LIG    1       21.357 -21.572   4.755  0.00  0.00    -0.387 OA
ATOM     30  H   LIG    1       20.970 -20.689   4.895  0.00  0.00    +0.210 HD
ENDBRANCH  28  29
ENDBRANCH  26  28
ENDBRANCH   3  26
BRANCH   8  31
ATOM     31  O   LIG    1       22.126 -14.998   5.557  0.00  0.00    -0.389 OA
ATOM     32  H   LIG    1       22.503 -14.119   5.368  0.00  0.00    +0.210 HD
ENDBRANCH   8  31
TORSDOF 5
ENDMDL
MODEL 2
REMARK VINA RESULT:      10.9      0.707      1.084
REMARK  Name = *****
REMARK                            x       y       z     vdW  Elec       q    Type
REMARK                         _______ _______ _______ _____ _____    ______ ____
ROOT
ATOM      1  C   LIG    1       26.703 -20.295   4.478  0.00  0.00    +0.011 C 
ATOM      2  C   LIG    1       25.416 -19.797   3.822  0.00  0.00    +0.026 C 
ATOM      3  C   LIG    1       24.360 -19.172   4.784  0.00  0.00    +0.134 C 
ATOM      4  C   LIG    1       23.529 -18.267   3.809  0.00  0.00    +0.010 C 
ATOM      5  C   LIG    1       24.636 -17.608   2.938  0.00  0.00    +0.005 C 
ATOM      6  C   LIG    1       25.288 -16.307   3.501  0.00  0.00    +0.036 C 
ATOM      7  C   LIG    1       24.275 -15.306   4.108  0.00  0.00    +0.153 C 
ATOM      8  C   LIG    1       23.321 -16.014   5.092  0.00  0.00    +0.154 C 
ATOM      9  F   LIG    1       23.489 -14.902   3.042  0.00  0.00    -0.238 F 
ATOM     10  C   LIG    1       24.987 -13.999   4.693  0.00  0.00    +0.047 C 
ATOM     11  C   LIG    1       26.295 -13.747   3.929  0.00  0.00    -0.020 C 
ATOM     12  C   LIG    1       27.445 -13.353   4.506  0.00  0.00    +0.054 C 
ATOM     13  C   LIG    1       27.561 -13.210   5.971  0.00  0.00    +0.179 C 
ATOM     14  C   LIG    1       26.410 -13.666   6.777  0.00  0.00    +0.047 C 
ATOM     15  O   LIG    1       28.580 -12.792   6.497  0.00  0.00    -0.288 OA
ATOM     16  C   LIG    1       26.243 -14.118   2.479  0.00  0.00    +0.194 C 
ATOM     17  F   LIG    1       27.368 -13.734   1.812  0.00  0.00    -0.241 F 
ATOM     18  C   LIG    1       24.080 -12.759   4.476  0.00  0.00    +0.023 C 
ATOM     19  C   LIG    1       25.262 -14.040   6.195  0.00  0.00    -0.009 C 
ATOM     20  C   LIG    1       26.126 -15.637   2.370  0.00  0.00    +0.048 C 
ATOM     21  C   LIG    1       22.610 -19.125   2.890  0.00  0.00    +0.015 C 
ATOM     22  C   LIG    1       22.621 -17.203   4.448  0.00  0.00    +0.044 C 
ATOM     23  C   LIG    1       25.701 -18.716   2.761  0.00  0.00    +0.011 C 
ENDROOT
BRANCH   3  24
ATOM     24  O   LIG    1       25.035 -18.360   5.741  0.00  0.00    -0.380 OA
ATOM     25  H   LIG    1       25.913 -18.744   5.917  0.00  0.00    +0.211 HD
ENDBRANCH   3  24
BRANCH   3  26
ATOM     26  C   LIG    1       23.513 -20.271   5.487  0.00  0.00    +0.190 C 
ATOM     27  O   LIG    1       22.514 -20.771   4.958  0.00  0.00    -0.292 OA
BRANCH  26  28
ATOM     28  C   LIG    1       23.909 -20.701   6.899  0.00  0.00    +0.233 C 
BRANCH  28  29
ATOM     29  O   LIG    1       25.291 -20.937   7.062  0.00  0.00    -0.387 OA
ATOM     30  H   LIG    1       25.490 -20.847   8.012  0.00  0.00    +0.210 HD
ENDBRANCH  28  29
ENDBRANCH  26  28
ENDBRANCH   3  26
BRANCH   8  31
ATOM     31  O   LIG    1       22.303 -15.116   5.553  0.00  0.00    -0.389 OA
ATOM     32  H   LIG    1       22.127 -15.337   6.486  0.00  0.00    +0.210 HD
ENDBRANCH   8  31
TORSDOF 5
ENDMDL
MODEL 3
REMARK VINA RESULT:      12.6      1.364      1.721
REMARK  Name = *****
REMARK                            x       y       z     vdW  Elec       q    Type
REMARK                         _______ _______ _______ _____ _____    ______ ____
ROOT
ATOM      1  C   LIG    1       26.343 -20.407   7.003  0.00  0.00    +0.011 C 
ATOM      2  C   LIG    1       25.733 -20.478   5.604  0.00  0.00    +0.026 C 
ATOM      3  C   LIG    1       24.265 -19.971   5.476  0.00  0.00    +0.134 C 
ATOM      4  C   LIG    1       24.179 -19.612   3.951  0.00  0.00    +0.010 C 
ATOM      5  C   LIG    1       25.534 -18.894   3.699  0.00  0.00    +0.005 C 
ATOM      6  C   LIG    1       25.584 -17.363   4.000  0.00  0.00    +0.036 C 
ATOM      7  C   LIG    1       24.346 -16.582   3.496  0.00  0.00    +0.153 C 
ATOM      8  C   LIG    1       23.039 -17.273   3.937  0.00  0.00    +0.154 C 
ATOM      9  F   LIG    1       24.388 -16.696   2.116  0.00  0.00    -0.238 F 
ATOM     10  C   LIG    1       24.426 -15.023   3.845  0.00  0.00    +0.047 C 
ATOM     11  C   LIG    1       25.899 -14.598   3.937  0.00  0.00    -0.020 C 
ATOM     12  C   LIG    1       26.387 -13.760   4.869  0.00  0.00    +0.054 C 
ATOM     13  C   LIG    1       25.536 -13.237   5.956  0.00  0.00    +0.179 C 
ATOM     14  C   LIG    1       24.173 -13.795   6.060  0.00  0.00    +0.047 C 
ATOM     15  O   LIG    1       25.955 -12.426   6.766  0.00  0.00    -0.288 OA
ATOM     16  C   LIG    1       26.806 -15.310   2.982  0.00  0.00    +0.194 C 
ATOM     17  F   LIG    1       28.067 -14.792   2.991  0.00  0.00    -0.241 F 
ATOM     18  C   LIG    1       23.776 -14.191   2.709  0.00  0.00    +0.023 C 
ATOM     19  C   LIG    1       23.687 -14.616   5.118  0.00  0.00    -0.009 C 
ATOM     20  C   LIG    1       26.897 -16.776   3.399  0.00  0.00    +0.048 C 
ATOM     21  C   LIG    1       24.118 -20.896   3.072  0.00  0.00    +0.015 C 
ATOM     22  C   LIG    1       22.997 -18.734   3.507  0.00  0.00    +0.044 C 
ATOM     23  C   LIG    1       26.547 -19.654   4.587  0.00  0.00    +0.011 C 
ENDROOT
BRANCH   3  24
ATOM     24  O   LIG    1       24.117 -18.791   6.260  0.00  0.00    -0.380 OA
ATOM     25  H   LIG    1       24.755 -18.819   6.996  0.00  0.00    +0.211 HD
ENDBRANCH   3  24
BRANCH   3  26
ATOM     26  C   LIG    1       23.248 -21.063   5.916  0.00  0.00    +0.190 C 
ATOM     27  O   LIG    1       23.261 -21.556   7.048  0.00  0.00    -0.292 OA
BRANCH  26  28
ATOM     28  C   LIG    1       22.238 -21.571   4.888  0.00  0.00    +0.233 C 
BRANCH  28  29
ATOM     29  O   LIG    1       21.061 -20.795   4.804  0.00  0.00    -0.387 OA
ATOM     30  H   LIG    1       21.131 -20.091   5.474  0.00  0.00    +0.210 HD
ENDBRANCH  28  29
ENDBRANCH  26  28
ENDBRANCH   3  26
BRANCH   8  31
ATOM     31  O   LIG    1       21.897 -16.625   3.360  0.00  0.00    -0.389 OA
ATOM     32  H   LIG    1       22.174 -16.274   2.494  0.00  0.00    +0.210 HD
ENDBRANCH   8  31
TORSDOF 5
ENDMDL
