MODEL 1
REMARK VINA RESULT:      -8.2      0.000      0.000
REMARK  Name = *****
REMARK                            x       y       z     vdW  Elec       q    Type
REMARK                         _______ _______ _______ _____ _____    ______ ____
ROOT
ATOM      1  C   LIG    1       26.037 -21.018   7.375  0.00  0.00    +0.047 C 
ATOM      2  C   LIG    1       26.144 -22.432   6.753  0.00  0.00    +0.046 C 
ATOM      3  C   LIG    1       25.134 -22.454   5.598  0.00  0.00    +0.179 C 
ATOM      4  O   LIG    1       24.314 -23.622   5.711  0.00  0.00    -0.493 OA
ATOM      5  C   LIG    1       24.986 -24.419   6.616  0.00  0.00    +0.095 C 
ATOM      6  C   LIG    1       25.085 -25.742   6.435  0.00  0.00    +0.014 C 
ATOM      7  C   LIG    1       24.297 -21.182   5.703  0.00  0.00    +0.076 C 
ATOM      8  C   LIG    1       25.712 -23.597   7.630  0.00  0.00    +0.081 C 
ATOM      9  C   LIG    1       24.565 -20.643   7.109  0.00  0.00    +0.125 C 
ENDROOT
BRANCH   1  11
ATOM     10  C   LIG    1       28.308 -20.344   6.371  0.00  0.00    -0.000 C 
ATOM     11  C   LIG    1       27.031 -20.075   6.707  0.00  0.00    -0.022 C 
BRANCH  10  12
ATOM     12  C   LIG    1       29.315 -19.381   5.794  0.00  0.00    +0.137 C 
BRANCH  12  13
ATOM     13  O   LIG    1       28.616 -18.570   4.854  0.00  0.00    -0.388 OA
ATOM     14  H   LIG    1       28.209 -19.171   4.205  0.00  0.00    +0.210 HD
ENDBRANCH  12  13
BRANCH  12  15
ATOM     15  C   LIG    1       30.003 -18.494   6.834  0.00  0.00    +0.035 C 
BRANCH  15  16
ATOM     16  C   LIG    1       31.164 -19.169   7.565  0.00  0.00    +0.003 C 
BRANCH  16  17
ATOM     17  C   LIG    1       31.508 -18.413   8.856  0.00  0.00    -0.000 C 
BRANCH  17  19
ATOM     18  C   LIG    1       30.519 -17.393  10.945  0.00  0.00    +0.004 C 
ATOM     19  C   LIG    1       30.300 -17.707   9.475  0.00  0.00    -0.003 C 
ENDBRANCH  17  19
ENDBRANCH  16  17
ENDBRANCH  15  16
ENDBRANCH  12  15
ENDBRANCH  10  12
ENDBRANCH   1  11
BRANCH   9  20
ATOM     20  O   LIG    1       23.714 -21.260   8.068  0.00  0.00    -0.391 OA
ATOM     21  H   LIG    1       23.067 -20.584   8.349  0.00  0.00    +0.210 HD
ENDBRANCH   9  20
BRANCH   6  22
ATOM     22  C   LIG    1       24.421 -26.492   5.312  0.00  0.00    +0.031 C 
BRANCH  22  23
ATOM     23  C   LIG    1       24.961 -27.914   5.112  0.00  0.00    +0.015 C 
BRANCH  23  24
ATOM     24  C   LIG    1       25.145 -28.698   6.411  0.00  0.00    +0.121 C 
BRANCH  24  25
ATOM     25  C   LIG    1       24.008 -29.624   6.657  0.00  0.00    +0.305 C 
ATOM     26  O   LIG    1       23.790 -30.220   7.695  0.00  0.00    -0.251 OA
BRANCH  25  27
ATOM     27  O   LIG    1       23.234 -29.785   5.542  0.00  0.00    -0.481 OA
ATOM     28  H   LIG    1       22.972 -28.948   5.085  0.00  0.00    +0.295 HD
ENDBRANCH  25  27
ENDBRANCH  24  25
ENDBRANCH  23  24
ENDBRANCH  22  23
ENDBRANCH   6  22
TORSDOF 13
ENDMDL
MODEL 2
REMARK VINA RESULT:      -8.0      2.524      9.293
REMARK  Name = *****
REMARK                            x       y       z     vdW  Elec       q    Type
REMARK                         _______ _______ _______ _____ _____    ______ ____
ROOT
ATOM      1  C   LIG    1       24.899 -22.395   6.426  0.00  0.00    +0.047 C 
ATOM      2  C   LIG    1       26.388 -21.982   6.537  0.00  0.00    +0.046 C 
ATOM      3  C   LIG    1       26.718 -22.024   8.036  0.00  0.00    +0.179 C 
ATOM      4  O   LIG    1       27.353 -20.797   8.412  0.00  0.00    -0.493 OA
ATOM      5  C   LIG    1       27.711 -20.220   7.209  0.00  0.00    +0.095 C 
ATOM      6  C   LIG    1       28.892 -19.609   7.057  0.00  0.00    +0.014 C 
ATOM      7  C   LIG    1       25.402 -22.214   8.785  0.00  0.00    +0.076 C 
ATOM      8  C   LIG    1       26.733 -20.558   6.132  0.00  0.00    +0.081 C 
ATOM      9  C   LIG    1       24.310 -21.897   7.761  0.00  0.00    +0.125 C 
ENDROOT
BRANCH   1  11
ATOM     10  C   LIG    1       25.164 -24.622   5.165  0.00  0.00    -0.000 C 
ATOM     11  C   LIG    1       24.786 -23.904   6.241  0.00  0.00    -0.022 C 
BRANCH  10  12
ATOM     12  C   LIG    1       24.967 -26.103   4.950  0.00  0.00    +0.137 C 
BRANCH  12  13
ATOM     13  O   LIG    1       26.243 -26.643   4.623  0.00  0.00    -0.388 OA
ATOM     14  H   LIG    1       26.880 -25.908   4.645  0.00  0.00    +0.210 HD
ENDBRANCH  12  13
BRANCH  12  15
ATOM     15  C   LIG    1       24.384 -26.839   6.158  0.00  0.00    +0.035 C 
BRANCH  15  16
ATOM     16  C   LIG    1       24.592 -28.353   6.129  0.00  0.00    +0.003 C 
BRANCH  16  17
ATOM     17  C   LIG    1       25.047 -28.867   7.503  0.00  0.00    -0.000 C 
BRANCH  17  19
ATOM     18  C   LIG    1       26.571 -28.528   9.488  0.00  0.00    +0.004 C 
ATOM     19  C   LIG    1       26.179 -28.034   8.106  0.00  0.00    -0.003 C 
ENDBRANCH  17  19
ENDBRANCH  16  17
ENDBRANCH  15  16
ENDBRANCH  12  15
ENDBRANCH  10  12
ENDBRANCH   1  11
BRANCH   9  20
ATOM     20  O   LIG    1       24.052 -20.499   7.700  0.00  0.00    -0.391 OA
ATOM     21  H   LIG    1       23.781 -20.221   8.597  0.00  0.00    +0.210 HD
ENDBRANCH   9  20
BRANCH   6  22
ATOM     22  C   LIG    1       29.889 -19.411   8.168  0.00  0.00    +0.031 C 
BRANCH  22  23
ATOM     23  C   LIG    1       30.728 -18.135   8.028  0.00  0.00    +0.015 C 
BRANCH  23  24
ATOM     24  C   LIG    1       30.800 -17.294   9.302  0.00  0.00    +0.121 C 
BRANCH  24  25
ATOM     25  C   LIG    1       32.201 -16.924   9.634  0.00  0.00    +0.305 C 
ATOM     26  O   LIG    1       32.849 -17.361  10.567  0.00  0.00    -0.251 OA
BRANCH  25  27
ATOM     27  O   LIG    1       32.689 -15.969   8.785  0.00  0.00    -0.481 OA
ATOM     28  H   LIG    1       32.469 -15.037   9.028  0.00  0.00    +0.295 HD
ENDBRANCH  25  27
ENDBRANCH  24  25
ENDBRANCH  23  24
ENDBRANCH  22  23
ENDBRANCH   6  22
TORSDOF 13
ENDMDL
MODEL 3
REMARK VINA RESULT:      -8.0      2.260      8.603
REMARK  Name = *****
REMARK                            x       y       z     vdW  Elec       q    Type
REMARK                         _______ _______ _______ _____ _____    ______ ____
ROOT
ATOM      1  C   LIG    1       24.865 -22.518   6.356  0.00  0.00    +0.047 C 
ATOM      2  C   LIG    1       26.239 -21.878   6.038  0.00  0.00    +0.046 C 
ATOM      3  C   LIG    1       26.956 -21.745   7.388  0.00  0.00    +0.179 C 
ATOM      4  O   LIG    1       27.454 -20.410   7.526  0.00  0.00    -0.493 OA
ATOM      5  C   LIG    1       27.378 -19.888   6.250  0.00  0.00    +0.095 C 
ATOM      6  C   LIG    1       28.358 -19.121   5.756  0.00  0.00    +0.014 C 
ATOM      7  C   LIG    1       25.936 -22.068   8.477  0.00  0.00    +0.076 C 
ATOM      8  C   LIG    1       26.221 -20.457   5.498  0.00  0.00    +0.081 C 
ATOM      9  C   LIG    1       24.576 -22.005   7.781  0.00  0.00    +0.125 C 
ENDROOT
BRANCH   1  11
ATOM     10  C   LIG    1       25.220 -24.773   5.171  0.00  0.00    -0.000 C 
ATOM     11  C   LIG    1       24.961 -24.037   6.269  0.00  0.00    -0.022 C 
BRANCH  10  12
ATOM     12  C   LIG    1       25.224 -26.279   5.070  0.00  0.00    +0.137 C 
BRANCH  12  13
ATOM     13  O   LIG    1       26.589 -26.688   5.096  0.00  0.00    -0.388 OA
ATOM     14  H   LIG    1       27.120 -25.900   5.302  0.00  0.00    +0.210 HD
ENDBRANCH  12  13
BRANCH  12  15
ATOM     15  C   LIG    1       24.449 -26.984   6.186  0.00  0.00    +0.035 C 
BRANCH  15  16
ATOM     16  C   LIG    1       25.308 -27.877   7.080  0.00  0.00    +0.003 C 
BRANCH  16  17
ATOM     17  C   LIG    1       24.589 -29.200   7.382  0.00  0.00    -0.000 C 
BRANCH  17  19
ATOM     18  C   LIG    1       25.465 -30.438   5.362  0.00  0.00    +0.004 C 
ATOM     19  C   LIG    1       24.229 -29.985   6.119  0.00  0.00    -0.003 C 
ENDBRANCH  17  19
ENDBRANCH  16  17
ENDBRANCH  15  16
ENDBRANCH  12  15
ENDBRANCH  10  12
ENDBRANCH   1  11
BRANCH   9  20
ATOM     20  O   LIG    1       24.080 -20.671   7.739  0.00  0.00    -0.391 OA
ATOM     21  H   LIG    1       24.651 -20.138   8.325  0.00  0.00    +0.210 HD
ENDBRANCH   9  20
BRANCH   6  22
ATOM     22  C   LIG    1       29.565 -18.684   6.541  0.00  0.00    +0.031 C 
BRANCH  22  23
ATOM     23  C   LIG    1       30.543 -19.822   6.861  0.00  0.00    +0.015 C 
BRANCH  23  24
ATOM     24  C   LIG    1       31.198 -19.712   8.237  0.00  0.00    +0.121 C 
BRANCH  24  25
ATOM     25  C   LIG    1       31.205 -21.019   8.946  0.00  0.00    +0.305 C 
ATOM     26  O   LIG    1       32.167 -21.525   9.491  0.00  0.00    -0.251 OA
BRANCH  25  27
ATOM     27  O   LIG    1       29.989 -21.641   8.876  0.00  0.00    -0.481 OA
ATOM     28  H   LIG    1       29.979 -22.493   8.374  0.00  0.00    +0.295 HD
ENDBRANCH  25  27
ENDBRANCH  24  25
ENDBRANCH  23  24
ENDBRANCH  22  23
ENDBRANCH   6  22
TORSDOF 13
ENDMDL
MODEL 4
REMARK VINA RESULT:      -7.6      4.362      6.391
REMARK  Name = *****
REMARK                            x       y       z     vdW  Elec       q    Type
REMARK                         _______ _______ _______ _____ _____    ______ ____
ROOT
ATOM      1  C   LIG    1       24.948 -26.107   5.499  0.00  0.00    +0.047 C 
ATOM      2  C   LIG    1       24.298 -27.441   5.942  0.00  0.00    +0.046 C 
ATOM      3  C   LIG    1       25.038 -27.856   7.221  0.00  0.00    +0.179 C 
ATOM      4  O   LIG    1       25.457 -29.220   7.100  0.00  0.00    -0.493 OA
ATOM      5  C   LIG    1       24.734 -29.702   6.027  0.00  0.00    +0.095 C 
ATOM      6  C   LIG    1       24.195 -30.927   6.048  0.00  0.00    +0.014 C 
ATOM      7  C   LIG    1       26.236 -26.924   7.375  0.00  0.00    +0.076 C 
ATOM      8  C   LIG    1       24.486 -28.632   5.015  0.00  0.00    +0.081 C 
ATOM      9  C   LIG    1       26.395 -26.249   6.012  0.00  0.00    +0.125 C 
ENDROOT
BRANCH   1  11
ATOM     10  C   LIG    1       24.719 -23.745   6.494  0.00  0.00    -0.000 C 
ATOM     11  C   LIG    1       24.201 -24.930   6.116  0.00  0.00    -0.022 C 
BRANCH  10  12
ATOM     12  C   LIG    1       23.993 -22.619   7.187  0.00  0.00    +0.137 C 
BRANCH  12  13
ATOM     13  O   LIG    1       24.985 -21.681   7.596  0.00  0.00    -0.388 OA
ATOM     14  H   LIG    1       25.759 -22.193   7.889  0.00  0.00    +0.210 HD
ENDBRANCH  12  13
BRANCH  12  15
ATOM     15  C   LIG    1       22.944 -21.921   6.319  0.00  0.00    +0.035 C 
BRANCH  15  16
ATOM     16  C   LIG    1       23.131 -20.408   6.203  0.00  0.00    +0.003 C 
BRANCH  16  17
ATOM     17  C   LIG    1       22.432 -19.867   4.947  0.00  0.00    -0.000 C 
BRANCH  17  19
ATOM     18  C   LIG    1       24.557 -19.922   3.581  0.00  0.00    +0.004 C 
ATOM     19  C   LIG    1       23.374 -19.082   4.032  0.00  0.00    -0.003 C 
ENDBRANCH  17  19
ENDBRANCH  16  17
ENDBRANCH  15  16
ENDBRANCH  12  15
ENDBRANCH  10  12
ENDBRANCH   1  11
BRANCH   9  20
ATOM     20  O   LIG    1       27.161 -27.055   5.124  0.00  0.00    -0.391 OA
ATOM     21  H   LIG    1       26.835 -27.971   5.220  0.00  0.00    +0.210 HD
ENDBRANCH   9  20
BRANCH   6  22
ATOM     22  C   LIG    1       24.389 -31.915   7.167  0.00  0.00    +0.031 C 
BRANCH  22  23
ATOM     23  C   LIG    1       25.541 -32.901   6.931  0.00  0.00    +0.015 C 
BRANCH  23  24
ATOM     24  C   LIG    1       26.907 -32.380   7.379  0.00  0.00    +0.121 C 
BRANCH  24  25
ATOM     25  C   LIG    1       26.889 -31.955   8.803  0.00  0.00    +0.305 C 
ATOM     26  O   LIG    1       26.705 -32.686   9.759  0.00  0.00    -0.251 OA
BRANCH  25  27
ATOM     27  O   LIG    1       27.055 -30.605   8.933  0.00  0.00    -0.481 OA
ATOM     28  H   LIG    1       26.244 -30.103   9.195  0.00  0.00    +0.295 HD
ENDBRANCH  25  27
ENDBRANCH  24  25
ENDBRANCH  23  24
ENDBRANCH  22  23
ENDBRANCH   6  22
TORSDOF 13
ENDMDL
MODEL 5
REMARK VINA RESULT:      -7.5      3.702      7.869
REMARK  Name = *****
REMARK                            x       y       z     vdW  Elec       q    Type
REMARK                         _______ _______ _______ _____ _____    ______ ____
ROOT
ATOM      1  C   LIG    1       23.264 -21.007   6.550  0.00  0.00    +0.047 C 
ATOM      2  C   LIG    1       24.715 -20.515   6.778  0.00  0.00    +0.046 C 
ATOM      3  C   LIG    1       25.581 -21.309   5.790  0.00  0.00    +0.179 C 
ATOM      4  O   LIG    1       26.694 -21.876   6.491  0.00  0.00    -0.493 OA
ATOM      5  C   LIG    1       26.714 -21.200   7.694  0.00  0.00    +0.095 C 
ATOM      6  C   LIG    1       27.867 -20.802   8.246  0.00  0.00    +0.014 C 
ATOM      7  C   LIG    1       24.698 -22.398   5.186  0.00  0.00    +0.076 C 
ATOM      8  C   LIG    1       25.336 -20.824   8.130  0.00  0.00    +0.081 C 
ATOM      9  C   LIG    1       23.471 -22.466   6.096  0.00  0.00    +0.125 C 
ENDROOT
BRANCH   1  11
ATOM     10  C   LIG    1       23.028 -18.986   4.977  0.00  0.00    -0.000 C 
ATOM     11  C   LIG    1       22.575 -20.140   5.503  0.00  0.00    -0.022 C 
BRANCH  10  12
ATOM     12  C   LIG    1       22.302 -18.084   4.009  0.00  0.00    +0.137 C 
BRANCH  12  13
ATOM     13  O   LIG    1       20.961 -18.559   3.934  0.00  0.00    -0.388 OA
ATOM     14  H   LIG    1       20.379 -17.811   4.154  0.00  0.00    +0.210 HD
ENDBRANCH  12  13
BRANCH  12  15
ATOM     15  C   LIG    1       22.309 -16.606   4.403  0.00  0.00    +0.035 C 
BRANCH  15  16
ATOM     16  C   LIG    1       23.686 -15.947   4.344  0.00  0.00    +0.003 C 
BRANCH  16  17
ATOM     17  C   LIG    1       23.557 -14.424   4.200  0.00  0.00    -0.000 C 
BRANCH  17  19
ATOM     18  C   LIG    1       25.980 -14.753   3.566  0.00  0.00    +0.004 C 
ATOM     19  C   LIG    1       24.831 -13.764   3.671  0.00  0.00    -0.003 C 
ENDBRANCH  17  19
ENDBRANCH  16  17
ENDBRANCH  15  16
ENDBRANCH  12  15
ENDBRANCH  10  12
ENDBRANCH   1  11
BRANCH   9  20
ATOM     20  O   LIG    1       23.708 -23.308   7.219  0.00  0.00    -0.391 OA
ATOM     21  H   LIG    1       24.658 -23.533   7.209  0.00  0.00    +0.210 HD
ENDBRANCH   9  20
BRANCH   6  22
ATOM     22  C   LIG    1       29.226 -21.116   7.680  0.00  0.00    +0.031 C 
BRANCH  22  23
ATOM     23  C   LIG    1       29.937 -19.903   7.065  0.00  0.00    +0.015 C 
BRANCH  23  24
ATOM     24  C   LIG    1       30.160 -18.751   8.044  0.00  0.00    +0.121 C 
BRANCH  24  25
ATOM     25  C   LIG    1       31.565 -18.708   8.528  0.00  0.00    +0.305 C 
ATOM     26  O   LIG    1       32.105 -19.555   9.215  0.00  0.00    -0.251 OA
BRANCH  25  27
ATOM     27  O   LIG    1       32.196 -17.555   8.153  0.00  0.00    -0.481 OA
ATOM     28  H   LIG    1       32.245 -17.398   7.178  0.00  0.00    +0.295 HD
ENDBRANCH  25  27
ENDBRANCH  24  25
ENDBRANCH  23  24
ENDBRANCH  22  23
ENDBRANCH   6  22
TORSDOF 13
ENDMDL
MODEL 6
REMARK VINA RESULT:      -7.5      3.412      8.835
REMARK  Name = *****
REMARK                            x       y       z     vdW  Elec       q    Type
REMARK                         _______ _______ _______ _____ _____    ______ ____
ROOT
ATOM      1  C   LIG    1       25.176 -23.607   7.342  0.00  0.00    +0.047 C 
ATOM      2  C   LIG    1       24.309 -22.808   6.338  0.00  0.00    +0.046 C 
ATOM      3  C   LIG    1       25.205 -21.668   5.834  0.00  0.00    +0.179 C 
ATOM      4  O   LIG    1       24.496 -20.428   5.944  0.00  0.00    -0.493 OA
ATOM      5  C   LIG    1       23.183 -20.807   6.141  0.00  0.00    +0.095 C 
ATOM      6  C   LIG    1       22.177 -20.164   5.536  0.00  0.00    +0.014 C 
ATOM      7  C   LIG    1       26.461 -21.662   6.701  0.00  0.00    +0.076 C 
ATOM      8  C   LIG    1       23.096 -22.088   6.905  0.00  0.00    +0.081 C 
ATOM      9  C   LIG    1       26.113 -22.525   7.914  0.00  0.00    +0.125 C 
ENDROOT
BRANCH   1  11
ATOM     10  C   LIG    1       25.406 -25.586   5.715  0.00  0.00    -0.000 C 
ATOM     11  C   LIG    1       25.915 -24.728   6.620  0.00  0.00    -0.022 C 
BRANCH  10  12
ATOM     12  C   LIG    1       26.118 -26.751   5.071  0.00  0.00    +0.137 C 
BRANCH  12  13
ATOM     13  O   LIG    1       27.353 -26.910   5.764  0.00  0.00    -0.388 OA
ATOM     14  H   LIG    1       27.154 -26.875   6.715  0.00  0.00    +0.210 HD
ENDBRANCH  12  13
BRANCH  12  15
ATOM     15  C   LIG    1       25.331 -28.062   5.104  0.00  0.00    +0.035 C 
BRANCH  15  16
ATOM     16  C   LIG    1       25.091 -28.616   6.508  0.00  0.00    +0.003 C 
BRANCH  16  17
ATOM     17  C   LIG    1       24.653 -30.086   6.447  0.00  0.00    -0.000 C 
BRANCH  17  19
ATOM     18  C   LIG    1       26.293 -32.002   6.296  0.00  0.00    +0.004 C 
ATOM     19  C   LIG    1       25.534 -30.933   5.527  0.00  0.00    -0.003 C 
ENDBRANCH  17  19
ENDBRANCH  16  17
ENDBRANCH  15  16
ENDBRANCH  12  15
ENDBRANCH  10  12
ENDBRANCH   1  11
BRANCH   9  20
ATOM     20  O   LIG    1       25.444 -21.764   8.913  0.00  0.00    -0.391 OA
ATOM     21  H   LIG    1       26.068 -21.661   9.657  0.00  0.00    +0.210 HD
ENDBRANCH   9  20
BRANCH   6  22
ATOM     22  C   LIG    1       22.354 -18.942   4.674  0.00  0.00    +0.031 C 
BRANCH  22  23
ATOM     23  C   LIG    1       23.577 -19.008   3.750  0.00  0.00    +0.015 C 
BRANCH  23  24
ATOM     24  C   LIG    1       24.326 -17.683   3.614  0.00  0.00    +0.121 C 
BRANCH  24  25
ATOM     25  C   LIG    1       25.792 -17.893   3.495  0.00  0.00    +0.305 C 
ATOM     26  O   LIG    1       26.603 -17.057   3.141  0.00  0.00    -0.251 OA
BRANCH  25  27
ATOM     27  O   LIG    1       26.146 -19.182   3.782  0.00  0.00    -0.481 OA
ATOM     28  H   LIG    1       26.957 -19.284   4.337  0.00  0.00    +0.295 HD
ENDBRANCH  25  27
ENDBRANCH  24  25
ENDBRANCH  23  24
ENDBRANCH  22  23
ENDBRANCH   6  22
TORSDOF 13
ENDMDL
MODEL 7
REMARK VINA RESULT:      -7.4      2.746      5.667
REMARK  Name = *****
REMARK                            x       y       z     vdW  Elec       q    Type
REMARK                         _______ _______ _______ _____ _____    ______ ____
ROOT
ATOM      1  C   LIG    1       25.162 -26.103   5.302  0.00  0.00    +0.047 C 
ATOM      2  C   LIG    1       24.388 -27.352   5.792  0.00  0.00    +0.046 C 
ATOM      3  C   LIG    1       25.025 -27.734   7.135  0.00  0.00    +0.179 C 
ATOM      4  O   LIG    1       25.342 -29.130   7.126  0.00  0.00    -0.493 OA
ATOM      5  C   LIG    1       24.639 -29.628   6.047  0.00  0.00    +0.095 C 
ATOM      6  C   LIG    1       24.006 -30.805   6.115  0.00  0.00    +0.014 C 
ATOM      7  C   LIG    1       26.284 -26.885   7.297  0.00  0.00    +0.076 C 
ATOM      8  C   LIG    1       24.529 -28.614   4.956  0.00  0.00    +0.081 C 
ATOM      9  C   LIG    1       26.565 -26.319   5.904  0.00  0.00    +0.125 C 
ENDROOT
BRANCH   1  11
ATOM     10  C   LIG    1       24.815 -23.563   5.508  0.00  0.00    -0.000 C 
ATOM     11  C   LIG    1       24.479 -24.835   5.799  0.00  0.00    -0.022 C 
BRANCH  10  12
ATOM     12  C   LIG    1       24.193 -22.310   6.075  0.00  0.00    +0.137 C 
BRANCH  12  13
ATOM     13  O   LIG    1       22.851 -22.266   5.598  0.00  0.00    -0.388 OA
ATOM     14  H   LIG    1       22.848 -21.702   4.805  0.00  0.00    +0.210 HD
ENDBRANCH  12  13
BRANCH  12  15
ATOM     15  C   LIG    1       24.204 -22.240   7.603  0.00  0.00    +0.035 C 
BRANCH  15  16
ATOM     16  C   LIG    1       25.599 -22.119   8.216  0.00  0.00    +0.003 C 
BRANCH  16  17
ATOM     17  C   LIG    1       26.009 -20.645   8.352  0.00  0.00    -0.000 C 
BRANCH  17  19
ATOM     18  C   LIG    1       27.408 -20.309   6.276  0.00  0.00    +0.004 C 
ATOM     19  C   LIG    1       27.404 -20.359   7.794  0.00  0.00    -0.003 C 
ENDBRANCH  17  19
ENDBRANCH  16  17
ENDBRANCH  15  16
ENDBRANCH  12  15
ENDBRANCH  10  12
ENDBRANCH   1  11
BRANCH   9  20
ATOM     20  O   LIG    1       27.310 -27.239   5.115  0.00  0.00    -0.391 OA
ATOM     21  H   LIG    1       28.166 -27.373   5.567  0.00  0.00    +0.210 HD
ENDBRANCH   9  20
BRANCH   6  22
ATOM     22  C   LIG    1       24.064 -31.727   7.304  0.00  0.00    +0.031 C 
BRANCH  22  23
ATOM     23  C   LIG    1       25.079 -32.867   7.156  0.00  0.00    +0.015 C 
BRANCH  23  24
ATOM     24  C   LIG    1       26.536 -32.424   7.284  0.00  0.00    +0.121 C 
BRANCH  24  25
ATOM     25  C   LIG    1       26.857 -31.996   8.671  0.00  0.00    +0.305 C 
ATOM     26  O   LIG    1       26.919 -32.727   9.643  0.00  0.00    -0.251 OA
BRANCH  25  27
ATOM     27  O   LIG    1       27.030 -30.643   8.759  0.00  0.00    -0.481 OA
ATOM     28  H   LIG    1       27.054 -30.279   9.677  0.00  0.00    +0.295 HD
ENDBRANCH  25  27
ENDBRANCH  24  25
ENDBRANCH  23  24
ENDBRANCH  22  23
ENDBRANCH   6  22
TORSDOF 13
ENDMDL
MODEL 8
REMARK VINA RESULT:      -7.4      4.416      6.560
REMARK  Name = *****
REMARK                            x       y       z     vdW  Elec       q    Type
REMARK                         _______ _______ _______ _____ _____    ______ ____
ROOT
ATOM      1  C   LIG    1       25.030 -26.520   5.310  0.00  0.00    +0.047 C 
ATOM      2  C   LIG    1       24.476 -27.922   5.668  0.00  0.00    +0.046 C 
ATOM      3  C   LIG    1       25.021 -28.236   7.068  0.00  0.00    +0.179 C 
ATOM      4  O   LIG    1       25.615 -29.539   7.060  0.00  0.00    -0.493 OA
ATOM      5  C   LIG    1       25.157 -30.111   5.890  0.00  0.00    +0.095 C 
ATOM      6  C   LIG    1       24.774 -31.393   5.849  0.00  0.00    +0.014 C 
ATOM      7  C   LIG    1       26.053 -27.163   7.405  0.00  0.00    +0.076 C 
ATOM      8  C   LIG    1       24.967 -29.085   4.821  0.00  0.00    +0.081 C 
ATOM      9  C   LIG    1       26.369 -26.481   6.072  0.00  0.00    +0.125 C 
ENDROOT
BRANCH   1  11
ATOM     10  C   LIG    1       24.276 -24.114   5.823  0.00  0.00    -0.000 C 
ATOM     11  C   LIG    1       24.049 -25.440   5.754  0.00  0.00    -0.022 C 
BRANCH  10  12
ATOM     12  C   LIG    1       23.333 -23.060   6.350  0.00  0.00    +0.137 C 
BRANCH  12  13
ATOM     13  O   LIG    1       22.167 -23.742   6.801  0.00  0.00    -0.388 OA
ATOM     14  H   LIG    1       22.021 -23.477   7.726  0.00  0.00    +0.210 HD
ENDBRANCH  12  13
BRANCH  12  15
ATOM     15  C   LIG    1       23.912 -22.212   7.484  0.00  0.00    +0.035 C 
BRANCH  15  16
ATOM     16  C   LIG    1       23.755 -20.705   7.284  0.00  0.00    +0.003 C 
BRANCH  16  17
ATOM     17  C   LIG    1       23.768 -20.349   5.790  0.00  0.00    -0.000 C 
BRANCH  17  19
ATOM     18  C   LIG    1       22.757 -18.719   4.146  0.00  0.00    +0.004 C 
ATOM     19  C   LIG    1       22.499 -19.624   5.338  0.00  0.00    -0.003 C 
ENDBRANCH  17  19
ENDBRANCH  16  17
ENDBRANCH  15  16
ENDBRANCH  12  15
ENDBRANCH  10  12
ENDBRANCH   1  11
BRANCH   9  20
ATOM     20  O   LIG    1       27.371 -27.192   5.355  0.00  0.00    -0.391 OA
ATOM     21  H   LIG    1       27.295 -28.130   5.616  0.00  0.00    +0.210 HD
ENDBRANCH   9  20
BRANCH   6  22
ATOM     22  C   LIG    1       24.883 -32.344   7.011  0.00  0.00    +0.031 C 
BRANCH  22  23
ATOM     23  C   LIG    1       23.560 -32.566   7.756  0.00  0.00    +0.015 C 
BRANCH  23  24
ATOM     24  C   LIG    1       23.652 -32.343   9.265  0.00  0.00    +0.121 C 
BRANCH  24  25
ATOM     25  C   LIG    1       23.247 -30.962   9.640  0.00  0.00    +0.305 C 
ATOM     26  O   LIG    1       22.102 -30.568   9.765  0.00  0.00    -0.251 OA
BRANCH  25  27
ATOM     27  O   LIG    1       24.327 -30.136   9.782  0.00  0.00    -0.481 OA
ATOM     28  H   LIG    1       24.340 -29.351   9.182  0.00  0.00    +0.295 HD
ENDBRANCH  25  27
ENDBRANCH  24  25
ENDBRANCH  23  24
ENDBRANCH  22  23
ENDBRANCH   6  22
TORSDOF 13
ENDMDL
MODEL 9
REMARK VINA RESULT:      -7.4      3.560      5.547
REMARK  Name = *****
REMARK                            x       y       z     vdW  Elec       q    Type
REMARK                         _______ _______ _______ _____ _____    ______ ____
ROOT
ATOM      1  C   LIG    1       27.483 -21.971   7.361  0.00  0.00    +0.047 C 
ATOM      2  C   LIG    1       26.415 -21.475   6.355  0.00  0.00    +0.046 C 
ATOM      3  C   LIG    1       25.660 -20.350   7.076  0.00  0.00    +0.179 C 
ATOM      4  O   LIG    1       24.251 -20.585   6.970  0.00  0.00    -0.493 OA
ATOM      5  C   LIG    1       24.143 -21.542   5.980  0.00  0.00    +0.095 C 
ATOM      6  C   LIG    1       23.177 -21.477   5.055  0.00  0.00    +0.014 C 
ATOM      7  C   LIG    1       26.111 -20.361   8.534  0.00  0.00    +0.076 C 
ATOM      8  C   LIG    1       25.320 -22.461   5.981  0.00  0.00    +0.081 C 
ATOM      9  C   LIG    1       26.812 -21.708   8.724  0.00  0.00    +0.125 C 
ENDROOT
BRANCH   1  11
ATOM     10  C   LIG    1       28.963 -20.076   6.446  0.00  0.00    -0.000 C 
ATOM     11  C   LIG    1       28.783 -21.198   7.169  0.00  0.00    -0.022 C 
BRANCH  10  12
ATOM     12  C   LIG    1       30.268 -19.366   6.184  0.00  0.00    +0.137 C 
BRANCH  12  13
ATOM     13  O   LIG    1       29.951 -18.171   5.476  0.00  0.00    -0.388 OA
ATOM     14  H   LIG    1       30.092 -17.429   6.090  0.00  0.00    +0.210 HD
ENDBRANCH  12  13
BRANCH  12  15
ATOM     15  C   LIG    1       31.062 -19.027   7.447  0.00  0.00    +0.035 C 
BRANCH  15  16
ATOM     16  C   LIG    1       30.287 -18.198   8.471  0.00  0.00    +0.003 C 
BRANCH  16  17
ATOM     17  C   LIG    1       31.234 -17.617   9.531  0.00  0.00    -0.000 C 
BRANCH  17  19
ATOM     18  C   LIG    1       31.389 -16.431  11.756  0.00  0.00    +0.004 C 
ATOM     19  C   LIG    1       30.529 -17.297  10.850  0.00  0.00    -0.003 C 
ENDBRANCH  17  19
ENDBRANCH  16  17
ENDBRANCH  15  16
ENDBRANCH  12  15
ENDBRANCH  10  12
ENDBRANCH   1  11
BRANCH   9  20
ATOM     20  O   LIG    1       25.876 -22.737   9.025  0.00  0.00    -0.391 OA
ATOM     21  H   LIG    1       25.936 -22.902   9.986  0.00  0.00    +0.210 HD
ENDBRANCH   9  20
BRANCH   6  22
ATOM     22  C   LIG    1       22.086 -20.440   5.047  0.00  0.00    +0.031 C 
BRANCH  22  23
ATOM     23  C   LIG    1       22.546 -19.059   4.564  0.00  0.00    +0.015 C 
BRANCH  23  24
ATOM     24  C   LIG    1       23.380 -19.094   3.284  0.00  0.00    +0.121 C 
BRANCH  24  25
ATOM     25  C   LIG    1       24.747 -18.552   3.506  0.00  0.00    +0.305 C 
ATOM     26  O   LIG    1       25.047 -17.373   3.528  0.00  0.00    -0.251 OA
BRANCH  25  27
ATOM     27  O   LIG    1       25.673 -19.548   3.636  0.00  0.00    -0.481 OA
ATOM     28  H   LIG    1       26.180 -19.546   4.484  0.00  0.00    +0.295 HD
ENDBRANCH  25  27
ENDBRANCH  24  25
ENDBRANCH  23  24
ENDBRANCH  22  23
ENDBRANCH   6  22
TORSDOF 13
ENDMDL
