MODEL 1
REMARK VINA RESULT:      -9.0      0.000      0.000
REMARK  Name = *****
REMARK                            x       y       z     vdW  Elec       q    Type
REMARK                         _______ _______ _______ _____ _____    ______ ____
ROOT
ATOM      1  N   ALA A  1       28.794 -19.623   8.393  0.00  0.00    -0.294 NA
ATOM      2  H   ALA A  1       28.346 -19.192   9.205  0.00  0.00    +0.123 HD
ENDROOT
BRANCH   1   3
ATOM      3  CA  ALA A  1       27.757 -19.972   7.394  0.00  0.00    +0.138 C 
ATOM      4  CB  ALA A  1       28.440 -20.379   6.089  0.00  0.00    +0.034 C 
BRANCH   3   5
ATOM      5  C   ALA A  1       26.847 -21.154   7.814  0.00  0.00    +0.233 C 
ATOM      6  N   UNK A  2       25.753 -21.419   6.985  0.00  0.00    -0.283 N 
ATOM      7  C   UNK A  2       24.990 -20.357   6.338  0.00  0.00    +0.080 C 
ATOM      8  C   UNK A  2       23.531 -20.750   6.528  0.00  0.00    +0.012 C 
ATOM      9  C   UNK A  2       22.792 -20.114   5.362  0.00  0.00    +0.005 C 
ATOM     10  C   UNK A  2       23.828 -19.908   4.255  0.00  0.00    +0.002 C 
ATOM     11  C   UNK A  2       23.564 -22.274   6.517  0.00  0.00    +0.039 C 
ATOM     12  C   UNK A  2       25.186 -20.308   4.826  0.00  0.00    +0.023 C 
ATOM     13  C   UNK A  2       24.898 -22.615   7.202  0.00  0.00    +0.185 C 
ATOM     14  O   ALA A  1       27.163 -21.920   8.727  0.00  0.00    -0.274 OA
BRANCH  13  15
ATOM     15  C   UNK A  2       25.439 -23.902   6.548  0.00  0.00    +0.326 C 
ATOM     16  O   UNK A  2       25.976 -24.808   7.155  0.00  0.00    -0.249 OA
BRANCH  15  17
ATOM     17  O   UNK A  2       25.171 -23.974   5.215  0.00  0.00    -0.479 OA
ATOM     18  H   UNK A  2       25.391 -23.124   4.797  0.00  0.00    +0.295 HD
ENDBRANCH  15  17
ENDBRANCH  13  15
ENDBRANCH   3   5
ENDBRANCH   1   3
BRANCH   1  19
ATOM     19  C   UNK A  0       29.883 -18.738   7.876  0.00  0.00    +0.164 C 
BRANCH  19  20
ATOM     20  C   UNK A  0       31.235 -19.465   7.812  0.00  0.00    +0.324 C 
ATOM     21  O   UNK A  0       31.908 -19.540   6.775  0.00  0.00    -0.249 OA
BRANCH  20  22
ATOM     22  O   UNK A  0       31.635 -19.943   9.017  0.00  0.00    -0.464 OA
BRANCH  22  24
ATOM     23  C   UNK A  0       30.688 -22.234   9.161  0.00  0.00    +0.048 C 
ATOM     24  C   UNK A  0       31.916 -21.342   9.119  0.00  0.00    +0.229 C 
ENDBRANCH  22  24
ENDBRANCH  20  22
ENDBRANCH  19  20
BRANCH  19  25
ATOM     25  C   UNK A  0       30.015 -17.489   8.795  0.00  0.00    +0.035 C 
BRANCH  25  26
ATOM     26  C   UNK A  0       31.458 -16.994   9.099  0.00  0.00    +0.037 C 
BRANCH  26  27
ATOM     27  C   UNK A  0       31.786 -16.732  10.570  0.00  0.00    -0.047 A 
ATOM     28  C   UNK A  0       32.700 -15.718  10.917  0.00  0.00    +0.003 A 
ATOM     29  C   UNK A  0       33.008 -15.443  12.259  0.00  0.00    +0.000 A 
ATOM     30  C   UNK A  0       32.426 -16.192  13.278  0.00  0.00    +0.000 A 
ATOM     31  C   UNK A  0       31.543 -17.214  12.954  0.00  0.00    +0.000 A 
ATOM     32  C   UNK A  0       31.223 -17.477  11.617  0.00  0.00    +0.003 A 
ENDBRANCH  26  27
ENDBRANCH  25  26
ENDBRANCH  19  25
ENDBRANCH   1  19
TORSDOF 11
ENDMDL
MODEL 2
REMARK VINA RESULT:      -8.8      1.977      8.477
REMARK  Name = *****
REMARK                            x       y       z     vdW  Elec       q    Type
REMARK                         _______ _______ _______ _____ _____    ______ ____
ROOT
ATOM      1  N   ALA A  1       26.297 -19.906   6.639  0.00  0.00    -0.294 NA
ATOM      2  H   ALA A  1       25.765 -19.045   6.786  0.00  0.00    +0.123 HD
ENDROOT
BRANCH   1   3
ATOM      3  CA  ALA A  1       27.117 -20.181   7.843  0.00  0.00    +0.138 C 
ATOM      4  CB  ALA A  1       26.409 -21.232   8.698  0.00  0.00    +0.034 C 
BRANCH   3   5
ATOM      5  C   ALA A  1       28.532 -20.733   7.532  0.00  0.00    +0.233 C 
ATOM      6  N   UNK A  2       29.594 -20.132   8.214  0.00  0.00    -0.283 N 
ATOM      7  C   UNK A  2       29.627 -18.702   8.503  0.00  0.00    +0.080 C 
ATOM      8  C   UNK A  2       31.046 -18.265   8.169  0.00  0.00    +0.012 C 
ATOM      9  C   UNK A  2       31.309 -17.056   9.049  0.00  0.00    +0.005 C 
ATOM     10  C   UNK A  2       30.357 -17.174  10.242  0.00  0.00    +0.002 C 
ATOM     11  C   UNK A  2       31.887 -19.494   8.493  0.00  0.00    +0.039 C 
ATOM     12  C   UNK A  2       29.461 -18.382   9.986  0.00  0.00    +0.023 C 
ATOM     13  C   UNK A  2       30.974 -20.672   8.111  0.00  0.00    +0.185 C 
ATOM     14  O   ALA A  1       28.694 -21.750   6.856  0.00  0.00    -0.274 OA
BRANCH  13  15
ATOM     15  C   UNK A  2       31.273 -21.826   9.090  0.00  0.00    +0.326 C 
ATOM     16  O   UNK A  2       30.720 -21.977  10.162  0.00  0.00    -0.249 OA
BRANCH  15  17
ATOM     17  O   UNK A  2       32.162 -22.728   8.592  0.00  0.00    -0.479 OA
ATOM     18  H   UNK A  2       32.940 -22.257   8.247  0.00  0.00    +0.295 HD
ENDBRANCH  15  17
ENDBRANCH  13  15
ENDBRANCH   3   5
ENDBRANCH   1   3
BRANCH   1  19
ATOM     19  C   UNK A  0       25.381 -21.018   6.243  0.00  0.00    +0.164 C 
BRANCH  19  20
ATOM     20  C   UNK A  0       24.916 -20.890   4.784  0.00  0.00    +0.324 C 
ATOM     21  O   UNK A  0       24.517 -21.856   4.119  0.00  0.00    -0.249 OA
BRANCH  20  22
ATOM     22  O   UNK A  0       24.922 -19.608   4.339  0.00  0.00    -0.464 OA
BRANCH  22  24
ATOM     23  C   UNK A  0       22.528 -19.018   4.632  0.00  0.00    +0.048 C 
ATOM     24  C   UNK A  0       23.733 -19.114   3.715  0.00  0.00    +0.229 C 
ENDBRANCH  22  24
ENDBRANCH  20  22
ENDBRANCH  19  20
BRANCH  19  25
ATOM     25  C   UNK A  0       24.138 -21.022   7.180  0.00  0.00    +0.035 C 
BRANCH  25  26
ATOM     26  C   UNK A  0       23.323 -22.345   7.254  0.00  0.00    +0.037 C 
BRANCH  26  27
ATOM     27  C   UNK A  0       24.079 -23.625   6.897  0.00  0.00    -0.047 A 
ATOM     28  C   UNK A  0       23.388 -24.716   6.331  0.00  0.00    +0.003 A 
ATOM     29  C   UNK A  0       24.059 -25.897   5.977  0.00  0.00    +0.000 A 
ATOM     30  C   UNK A  0       25.426 -26.021   6.203  0.00  0.00    +0.000 A 
ATOM     31  C   UNK A  0       26.119 -24.967   6.785  0.00  0.00    +0.000 A 
ATOM     32  C   UNK A  0       25.454 -23.782   7.123  0.00  0.00    +0.003 A 
ENDBRANCH  26  27
ENDBRANCH  25  26
ENDBRANCH  19  25
ENDBRANCH   1  19
TORSDOF 11
ENDMDL
MODEL 3
REMARK VINA RESULT:      -8.4      5.130      9.366
REMARK  Name = *****
REMARK                            x       y       z     vdW  Elec       q    Type
REMARK                         _______ _______ _______ _____ _____    ______ ____
ROOT
ATOM      1  N   ALA A  1       24.306 -26.590   6.560  0.00  0.00    -0.294 NA
ATOM      2  H   ALA A  1       23.873 -26.665   7.483  0.00  0.00    +0.123 HD
ENDROOT
BRANCH   1   3
ATOM      3  CA  ALA A  1       24.772 -25.199   6.354  0.00  0.00    +0.138 C 
ATOM      4  CB  ALA A  1       25.179 -25.021   4.892  0.00  0.00    +0.034 C 
BRANCH   3   5
ATOM      5  C   ALA A  1       23.700 -24.121   6.658  0.00  0.00    +0.233 C 
ATOM      6  N   UNK A  2       24.165 -22.812   6.814  0.00  0.00    -0.283 N 
ATOM      7  C   UNK A  2       25.433 -22.507   7.467  0.00  0.00    +0.080 C 
ATOM      8  C   UNK A  2       25.130 -21.330   8.385  0.00  0.00    +0.012 C 
ATOM      9  C   UNK A  2       26.448 -20.588   8.531  0.00  0.00    +0.005 C 
ATOM     10  C   UNK A  2       27.282 -20.944   7.298  0.00  0.00    +0.002 C 
ATOM     11  C   UNK A  2       24.039 -20.567   7.643  0.00  0.00    +0.039 C 
ATOM     12  C   UNK A  2       26.498 -21.986   6.506  0.00  0.00    +0.023 C 
ATOM     13  C   UNK A  2       23.219 -21.675   6.959  0.00  0.00    +0.185 C 
ATOM     14  O   ALA A  1       22.495 -24.373   6.597  0.00  0.00    -0.274 OA
BRANCH  13  15
ATOM     15  C   UNK A  2       22.704 -21.110   5.620  0.00  0.00    +0.326 C 
ATOM     16  O   UNK A  2       23.197 -20.162   5.040  0.00  0.00    -0.249 OA
BRANCH  15  17
ATOM     17  O   UNK A  2       21.686 -21.842   5.090  0.00  0.00    -0.479 OA
ATOM     18  H   UNK A  2       21.918 -22.104   4.182  0.00  0.00    +0.295 HD
ENDBRANCH  15  17
ENDBRANCH  13  15
ENDBRANCH   3   5
ENDBRANCH   1   3
BRANCH   1  19
ATOM     19  C   UNK A  0       25.367 -27.631   6.403  0.00  0.00    +0.164 C 
BRANCH  19  20
ATOM     20  C   UNK A  0       24.788 -28.981   5.952  0.00  0.00    +0.324 C 
ATOM     21  O   UNK A  0       23.606 -29.300   6.134  0.00  0.00    -0.249 OA
BRANCH  20  22
ATOM     22  O   UNK A  0       25.688 -29.741   5.276  0.00  0.00    -0.464 OA
BRANCH  22  24
ATOM     23  C   UNK A  0       26.314 -31.946   6.228  0.00  0.00    +0.048 C 
ATOM     24  C   UNK A  0       25.473 -31.155   5.243  0.00  0.00    +0.229 C 
ENDBRANCH  22  24
ENDBRANCH  20  22
ENDBRANCH  19  20
BRANCH  19  25
ATOM     25  C   UNK A  0       26.112 -27.819   7.757  0.00  0.00    +0.035 C 
BRANCH  25  26
ATOM     26  C   UNK A  0       25.735 -29.073   8.595  0.00  0.00    +0.037 C 
BRANCH  26  27
ATOM     27  C   UNK A  0       25.890 -28.944  10.111  0.00  0.00    -0.047 A 
ATOM     28  C   UNK A  0       25.002 -29.624  10.969  0.00  0.00    +0.003 A 
ATOM     29  C   UNK A  0       25.130 -29.538  12.365  0.00  0.00    +0.000 A 
ATOM     30  C   UNK A  0       26.132 -28.754  12.929  0.00  0.00    +0.000 A 
ATOM     31  C   UNK A  0       27.000 -28.055  12.100  0.00  0.00    +0.000 A 
ATOM     32  C   UNK A  0       26.883 -28.154  10.707  0.00  0.00    +0.003 A 
ENDBRANCH  26  27
ENDBRANCH  25  26
ENDBRANCH  19  25
ENDBRANCH   1  19
TORSDOF 11
ENDMDL
MODEL 4
REMARK VINA RESULT:      -8.4      1.860      8.164
REMARK  Name = *****
REMARK                            x       y       z     vdW  Elec       q    Type
REMARK                         _______ _______ _______ _____ _____    ______ ____
ROOT
ATOM      1  N   ALA A  1       26.089 -20.864   6.710  0.00  0.00    -0.294 NA
ATOM      2  H   ALA A  1       25.452 -20.121   6.416  0.00  0.00    +0.123 HD
ENDROOT
BRANCH   1   3
ATOM      3  CA  ALA A  1       27.121 -20.294   7.607  0.00  0.00    +0.138 C 
ATOM      4  CB  ALA A  1       26.724 -20.564   9.058  0.00  0.00    +0.034 C 
BRANCH   3   5
ATOM      5  C   ALA A  1       28.536 -20.895   7.407  0.00  0.00    +0.233 C 
ATOM      6  N   UNK A  2       29.576 -20.279   8.111  0.00  0.00    -0.283 N 
ATOM      7  C   UNK A  2       29.631 -18.836   8.317  0.00  0.00    +0.080 C 
ATOM      8  C   UNK A  2       31.077 -18.452   8.036  0.00  0.00    +0.012 C 
ATOM      9  C   UNK A  2       31.324 -17.199   8.858  0.00  0.00    +0.005 C 
ATOM     10  C   UNK A  2       30.307 -17.225  10.001  0.00  0.00    +0.002 C 
ATOM     11  C   UNK A  2       31.867 -19.679   8.478  0.00  0.00    +0.039 C 
ATOM     12  C   UNK A  2       29.394 -18.425   9.768  0.00  0.00    +0.023 C 
ATOM     13  C   UNK A  2       30.945 -20.857   8.115  0.00  0.00    +0.185 C 
ATOM     14  O   ALA A  1       28.708 -21.954   6.801  0.00  0.00    -0.274 OA
BRANCH  13  15
ATOM     15  C   UNK A  2       31.160 -21.956   9.174  0.00  0.00    +0.326 C 
ATOM     16  O   UNK A  2       30.644 -21.960  10.275  0.00  0.00    -0.249 OA
BRANCH  15  17
ATOM     17  O   UNK A  2       31.921 -22.990   8.720  0.00  0.00    -0.479 OA
ATOM     18  H   UNK A  2       31.343 -23.662   8.318  0.00  0.00    +0.295 HD
ENDBRANCH  15  17
ENDBRANCH  13  15
ENDBRANCH   3   5
ENDBRANCH   1   3
BRANCH   1  19
ATOM     19  C   UNK A  0       25.318 -22.003   7.295  0.00  0.00    +0.164 C 
BRANCH  19  20
ATOM     20  C   UNK A  0       25.439 -23.278   6.446  0.00  0.00    +0.324 C 
ATOM     21  O   UNK A  0       25.258 -23.290   5.221  0.00  0.00    -0.249 OA
BRANCH  20  22
ATOM     22  O   UNK A  0       25.833 -24.357   7.169  0.00  0.00    -0.464 OA
BRANCH  22  24
ATOM     23  C   UNK A  0       24.556 -26.304   6.308  0.00  0.00    +0.048 C 
ATOM     24  C   UNK A  0       25.897 -25.620   6.500  0.00  0.00    +0.229 C 
ENDBRANCH  22  24
ENDBRANCH  20  22
ENDBRANCH  19  20
BRANCH  19  25
ATOM     25  C   UNK A  0       23.818 -21.605   7.412  0.00  0.00    +0.035 C 
BRANCH  25  26
ATOM     26  C   UNK A  0       22.987 -21.610   6.097  0.00  0.00    +0.037 C 
BRANCH  26  27
ATOM     27  C   UNK A  0       23.134 -20.379   5.201  0.00  0.00    -0.047 A 
ATOM     28  C   UNK A  0       22.228 -19.307   5.325  0.00  0.00    +0.003 A 
ATOM     29  C   UNK A  0       22.349 -18.157   4.528  0.00  0.00    +0.000 A 
ATOM     30  C   UNK A  0       23.361 -18.067   3.578  0.00  0.00    +0.000 A 
ATOM     31  C   UNK A  0       24.248 -19.125   3.422  0.00  0.00    +0.000 A 
ATOM     32  C   UNK A  0       24.138 -20.265   4.228  0.00  0.00    +0.003 A 
ENDBRANCH  26  27
ENDBRANCH  25  26
ENDBRANCH  19  25
ENDBRANCH   1  19
TORSDOF 11
ENDMDL
MODEL 5
REMARK VINA RESULT:      -8.3      7.265     10.982
REMARK  Name = *****
REMARK                            x       y       z     vdW  Elec       q    Type
REMARK                         _______ _______ _______ _____ _____    ______ ____
ROOT
ATOM      1  N   ALA A  1       25.995 -29.427   8.259  0.00  0.00    -0.294 NA
ATOM      2  H   ALA A  1       26.875 -28.917   8.152  0.00  0.00    +0.123 HD
ENDROOT
BRANCH   1   3
ATOM      3  CA  ALA A  1       25.623 -29.457   9.693  0.00  0.00    +0.138 C 
ATOM      4  CB  ALA A  1       24.821 -30.727   9.974  0.00  0.00    +0.034 C 
BRANCH   3   5
ATOM      5  C   ALA A  1       26.834 -29.466  10.662  0.00  0.00    +0.233 C 
ATOM      6  N   UNK A  2       26.637 -28.859  11.905  0.00  0.00    -0.283 N 
ATOM      7  C   UNK A  2       25.831 -27.654  12.067  0.00  0.00    +0.080 C 
ATOM      8  C   UNK A  2       26.638 -26.761  12.998  0.00  0.00    +0.012 C 
ATOM      9  C   UNK A  2       25.613 -25.888  13.702  0.00  0.00    +0.005 C 
ATOM     10  C   UNK A  2       24.287 -26.649  13.647  0.00  0.00    +0.002 C 
ATOM     11  C   UNK A  2       27.370 -27.750  13.899  0.00  0.00    +0.039 C 
ATOM     12  C   UNK A  2       24.518 -27.901  12.805  0.00  0.00    +0.023 C 
ATOM     13  C   UNK A  2       27.673 -28.937  12.968  0.00  0.00    +0.185 C 
ATOM     14  O   ALA A  1       27.851 -30.117  10.416  0.00  0.00    -0.274 OA
BRANCH  13  15
ATOM     15  C   UNK A  2       27.606 -30.221  13.819  0.00  0.00    +0.326 C 
ATOM     16  O   UNK A  2       28.571 -30.760  14.325  0.00  0.00    -0.249 OA
BRANCH  15  17
ATOM     17  O   UNK A  2       26.332 -30.651  14.033  0.00  0.00    -0.479 OA
ATOM     18  H   UNK A  2       25.963 -30.188  14.805  0.00  0.00    +0.295 HD
ENDBRANCH  15  17
ENDBRANCH  13  15
ENDBRANCH   3   5
ENDBRANCH   1   3
BRANCH   1  19
ATOM     19  C   UNK A  0       24.952 -28.850   7.358  0.00  0.00    +0.164 C 
BRANCH  19  20
ATOM     20  C   UNK A  0       24.550 -29.827   6.241  0.00  0.00    +0.324 C 
ATOM     21  O   UNK A  0       23.388 -30.224   6.082  0.00  0.00    -0.249 OA
BRANCH  20  22
ATOM     22  O   UNK A  0       25.583 -30.139   5.418  0.00  0.00    -0.464 OA
BRANCH  22  24
ATOM     23  C   UNK A  0       26.631 -32.288   6.088  0.00  0.00    +0.048 C 
ATOM     24  C   UNK A  0       25.781 -31.518   5.093  0.00  0.00    +0.229 C 
ENDBRANCH  22  24
ENDBRANCH  20  22
ENDBRANCH  19  20
BRANCH  19  25
ATOM     25  C   UNK A  0       25.487 -27.534   6.722  0.00  0.00    +0.035 C 
BRANCH  25  26
ATOM     26  C   UNK A  0       24.430 -26.575   6.104  0.00  0.00    +0.037 C 
BRANCH  26  27
ATOM     27  C   UNK A  0       24.532 -25.105   6.512  0.00  0.00    -0.047 A 
ATOM     28  C   UNK A  0       23.368 -24.314   6.588  0.00  0.00    +0.003 A 
ATOM     29  C   UNK A  0       23.428 -22.966   6.977  0.00  0.00    +0.000 A 
ATOM     30  C   UNK A  0       24.653 -22.377   7.273  0.00  0.00    +0.000 A 
ATOM     31  C   UNK A  0       25.815 -23.133   7.177  0.00  0.00    +0.000 A 
ATOM     32  C   UNK A  0       25.753 -24.482   6.806  0.00  0.00    +0.003 A 
ENDBRANCH  26  27
ENDBRANCH  25  26
ENDBRANCH  19  25
ENDBRANCH   1  19
TORSDOF 11
ENDMDL
MODEL 6
REMARK VINA RESULT:      -7.9      7.089     11.053
REMARK  Name = *****
REMARK                            x       y       z     vdW  Elec       q    Type
REMARK                         _______ _______ _______ _____ _____    ______ ____
ROOT
ATOM      1  N   ALA A  1       26.144 -29.065   8.017  0.00  0.00    -0.294 NA
ATOM      2  H   ALA A  1       26.740 -28.277   8.280  0.00  0.00    +0.123 HD
ENDROOT
BRANCH   1   3
ATOM      3  CA  ALA A  1       25.767 -29.818   9.236  0.00  0.00    +0.138 C 
ATOM      4  CB  ALA A  1       26.203 -31.274   9.078  0.00  0.00    +0.034 C 
BRANCH   3   5
ATOM      5  C   ALA A  1       26.425 -29.288  10.536  0.00  0.00    +0.233 C 
ATOM      6  N   UNK A  2       25.629 -29.304  11.684  0.00  0.00    -0.283 N 
ATOM      7  C   UNK A  2       24.201 -29.009  11.648  0.00  0.00    +0.080 C 
ATOM      8  C   UNK A  2       23.959 -28.087  12.836  0.00  0.00    +0.012 C 
ATOM      9  C   UNK A  2       22.508 -28.312  13.225  0.00  0.00    +0.005 C 
ATOM     10  C   UNK A  2       22.133 -29.703  12.712  0.00  0.00    +0.002 C 
ATOM     11  C   UNK A  2       24.982 -28.551  13.866  0.00  0.00    +0.039 C 
ATOM     12  C   UNK A  2       23.326 -30.229  11.919  0.00  0.00    +0.023 C 
ATOM     13  C   UNK A  2       26.196 -28.962  13.014  0.00  0.00    +0.185 C 
ATOM     14  O   ALA A  1       27.629 -29.028  10.590  0.00  0.00    -0.274 OA
BRANCH  13  15
ATOM     15  C   UNK A  2       26.884 -30.143  13.728  0.00  0.00    +0.326 C 
ATOM     16  O   UNK A  2       26.322 -30.906  14.490  0.00  0.00    -0.249 OA
BRANCH  15  17
ATOM     17  O   UNK A  2       28.180 -30.313  13.348  0.00  0.00    -0.479 OA
ATOM     18  H   UNK A  2       28.207 -30.584  12.414  0.00  0.00    +0.295 HD
ENDBRANCH  15  17
ENDBRANCH  13  15
ENDBRANCH   3   5
ENDBRANCH   1   3
BRANCH   1  19
ATOM     19  C   UNK A  0       24.988 -28.586   7.199  0.00  0.00    +0.164 C 
BRANCH  19  20
ATOM     20  C   UNK A  0       24.538 -29.634   6.168  0.00  0.00    +0.324 C 
ATOM     21  O   UNK A  0       23.346 -29.865   5.924  0.00  0.00    -0.249 OA
BRANCH  20  22
ATOM     22  O   UNK A  0       25.577 -30.211   5.515  0.00  0.00    -0.464 OA
BRANCH  22  24
ATOM     23  C   UNK A  0       25.850 -32.233   4.100  0.00  0.00    +0.048 C 
ATOM     24  C   UNK A  0       25.629 -31.641   5.480  0.00  0.00    +0.229 C 
ENDBRANCH  22  24
ENDBRANCH  20  22
ENDBRANCH  19  20
BRANCH  19  25
ATOM     25  C   UNK A  0       25.385 -27.275   6.459  0.00  0.00    +0.035 C 
BRANCH  25  26
ATOM     26  C   UNK A  0       24.222 -26.335   6.031  0.00  0.00    +0.037 C 
BRANCH  26  27
ATOM     27  C   UNK A  0       24.327 -24.880   6.488  0.00  0.00    -0.047 A 
ATOM     28  C   UNK A  0       25.588 -24.326   6.789  0.00  0.00    +0.003 A 
ATOM     29  C   UNK A  0       25.717 -22.988   7.195  0.00  0.00    +0.000 A 
ATOM     30  C   UNK A  0       24.589 -22.185   7.331  0.00  0.00    +0.000 A 
ATOM     31  C   UNK A  0       23.335 -22.721   7.065  0.00  0.00    +0.000 A 
ATOM     32  C   UNK A  0       23.207 -24.051   6.644  0.00  0.00    +0.003 A 
ENDBRANCH  26  27
ENDBRANCH  25  26
ENDBRANCH  19  25
ENDBRANCH   1  19
TORSDOF 11
ENDMDL
MODEL 7
REMARK VINA RESULT:      -7.7      2.567      4.992
REMARK  Name = *****
REMARK                            x       y       z     vdW  Elec       q    Type
REMARK                         _______ _______ _______ _____ _____    ______ ____
ROOT
ATOM      1  N   ALA A  1       28.073 -19.676   7.161  0.00  0.00    -0.294 NA
ATOM      2  H   ALA A  1       27.359 -19.065   6.758  0.00  0.00    +0.123 HD
ENDROOT
BRANCH   1   3
ATOM      3  CA  ALA A  1       27.708 -21.088   6.898  0.00  0.00    +0.138 C 
ATOM      4  CB  ALA A  1       28.786 -21.998   7.486  0.00  0.00    +0.034 C 
BRANCH   3   5
ATOM      5  C   ALA A  1       26.359 -21.521   7.527  0.00  0.00    +0.233 C 
ATOM      6  N   UNK A  2       25.241 -21.468   6.690  0.00  0.00    -0.283 N 
ATOM      7  C   UNK A  2       25.056 -20.413   5.700  0.00  0.00    +0.080 C 
ATOM      8  C   UNK A  2       23.598 -19.997   5.834  0.00  0.00    +0.012 C 
ATOM      9  C   UNK A  2       23.209 -19.460   4.467  0.00  0.00    +0.005 C 
ATOM     10  C   UNK A  2       24.170 -20.099   3.462  0.00  0.00    +0.002 C 
ATOM     11  C   UNK A  2       22.893 -21.285   6.245  0.00  0.00    +0.039 C 
ATOM     12  C   UNK A  2       25.190 -20.905   4.262  0.00  0.00    +0.023 C 
ATOM     13  C   UNK A  2       23.926 -21.998   7.136  0.00  0.00    +0.185 C 
ATOM     14  O   ALA A  1       26.305 -22.042   8.643  0.00  0.00    -0.274 OA
BRANCH  13  15
ATOM     15  C   UNK A  2       23.753 -23.515   6.921  0.00  0.00    +0.326 C 
ATOM     16  O   UNK A  2       22.680 -24.074   6.803  0.00  0.00    -0.249 OA
BRANCH  15  17
ATOM     17  O   UNK A  2       24.938 -24.170   6.778  0.00  0.00    -0.479 OA
ATOM     18  H   UNK A  2       24.831 -24.890   6.133  0.00  0.00    +0.295 HD
ENDBRANCH  15  17
ENDBRANCH  13  15
ENDBRANCH   3   5
ENDBRANCH   1   3
BRANCH   1  19
ATOM     19  C   UNK A  0       29.427 -19.281   6.666  0.00  0.00    +0.164 C 
BRANCH  19  20
ATOM     20  C   UNK A  0       30.312 -18.723   7.791  0.00  0.00    +0.324 C 
ATOM     21  O   UNK A  0       31.503 -18.427   7.625  0.00  0.00    -0.249 OA
BRANCH  20  22
ATOM     22  O   UNK A  0       29.632 -18.526   8.949  0.00  0.00    -0.464 OA
BRANCH  22  24
ATOM     23  C   UNK A  0       30.705 -17.767  11.055  0.00  0.00    +0.048 C 
ATOM     24  C   UNK A  0       30.004 -17.406   9.758  0.00  0.00    +0.229 C 
ENDBRANCH  22  24
ENDBRANCH  20  22
ENDBRANCH  19  20
BRANCH  19  25
ATOM     25  C   UNK A  0       29.277 -18.206   5.550  0.00  0.00    +0.035 C 
BRANCH  25  26
ATOM     26  C   UNK A  0       28.041 -18.336   4.615  0.00  0.00    +0.037 C 
BRANCH  26  27
ATOM     27  C   UNK A  0       27.399 -17.026   4.158  0.00  0.00    -0.047 A 
ATOM     28  C   UNK A  0       26.150 -17.045   3.504  0.00  0.00    +0.003 A 
ATOM     29  C   UNK A  0       25.528 -15.857   3.089  0.00  0.00    +0.000 A 
ATOM     30  C   UNK A  0       26.152 -14.630   3.297  0.00  0.00    +0.000 A 
ATOM     31  C   UNK A  0       27.395 -14.593   3.915  0.00  0.00    +0.000 A 
ATOM     32  C   UNK A  0       28.008 -15.777   4.345  0.00  0.00    +0.003 A 
ENDBRANCH  26  27
ENDBRANCH  25  26
ENDBRANCH  19  25
ENDBRANCH   1  19
TORSDOF 11
ENDMDL
MODEL 8
REMARK VINA RESULT:      -7.7      2.927      7.850
REMARK  Name = *****
REMARK                            x       y       z     vdW  Elec       q    Type
REMARK                         _______ _______ _______ _____ _____    ______ ____
ROOT
ATOM      1  N   ALA A  1       26.678 -20.785   5.915  0.00  0.00    -0.294 NA
ATOM      2  H   ALA A  1       27.287 -21.171   5.189  0.00  0.00    +0.123 HD
ENDROOT
BRANCH   1   3
ATOM      3  CA  ALA A  1       27.513 -20.259   7.020  0.00  0.00    +0.138 C 
ATOM      4  CB  ALA A  1       26.863 -20.625   8.353  0.00  0.00    +0.034 C 
BRANCH   3   5
ATOM      5  C   ALA A  1       28.955 -20.828   7.050  0.00  0.00    +0.233 C 
ATOM      6  N   UNK A  2       29.842 -20.221   7.943  0.00  0.00    -0.283 N 
ATOM      7  C   UNK A  2       29.827 -18.785   8.203  0.00  0.00    +0.080 C 
ATOM      8  C   UNK A  2       31.291 -18.367   8.190  0.00  0.00    +0.012 C 
ATOM      9  C   UNK A  2       31.362 -17.140   9.083  0.00  0.00    +0.005 C 
ATOM     10  C   UNK A  2       30.163 -17.224  10.030  0.00  0.00    +0.002 C 
ATOM     11  C   UNK A  2       32.020 -19.595   8.723  0.00  0.00    +0.039 C 
ATOM     12  C   UNK A  2       29.333 -18.430   9.602  0.00  0.00    +0.023 C 
ATOM     13  C   UNK A  2       31.202 -20.774   8.167  0.00  0.00    +0.185 C 
ATOM     14  O   ALA A  1       29.253 -21.862   6.449  0.00  0.00    -0.274 OA
BRANCH  13  15
ATOM     15  C   UNK A  2       31.256 -21.907   9.212  0.00  0.00    +0.326 C 
ATOM     16  O   UNK A  2       30.708 -21.868  10.296  0.00  0.00    -0.249 OA
BRANCH  15  17
ATOM     17  O   UNK A  2       31.909 -23.014   8.762  0.00  0.00    -0.479 OA
ATOM     18  H   UNK A  2       31.370 -23.803   8.950  0.00  0.00    +0.295 HD
ENDBRANCH  15  17
ENDBRANCH  13  15
ENDBRANCH   3   5
ENDBRANCH   1   3
BRANCH   1  19
ATOM     19  C   UNK A  0       25.735 -19.790   5.320  0.00  0.00    +0.164 C 
BRANCH  19  20
ATOM     20  C   UNK A  0       24.420 -20.443   4.863  0.00  0.00    +0.324 C 
ATOM     21  O   UNK A  0       24.373 -21.305   3.975  0.00  0.00    -0.249 OA
BRANCH  20  22
ATOM     22  O   UNK A  0       23.347 -20.027   5.581  0.00  0.00    -0.464 OA
BRANCH  22  24
ATOM     23  C   UNK A  0       22.129 -18.162   4.486  0.00  0.00    +0.048 C 
ATOM     24  C   UNK A  0       22.176 -19.632   4.861  0.00  0.00    +0.229 C 
ENDBRANCH  22  24
ENDBRANCH  20  22
ENDBRANCH  19  20
BRANCH  19  25
ATOM     25  C   UNK A  0       26.413 -19.095   4.104  0.00  0.00    +0.035 C 
BRANCH  25  26
ATOM     26  C   UNK A  0       25.541 -18.092   3.295  0.00  0.00    +0.037 C 
BRANCH  26  27
ATOM     27  C   UNK A  0       25.825 -16.608   3.530  0.00  0.00    -0.047 A 
ATOM     28  C   UNK A  0       27.156 -16.152   3.614  0.00  0.00    +0.003 A 
ATOM     29  C   UNK A  0       27.448 -14.793   3.811  0.00  0.00    +0.000 A 
ATOM     30  C   UNK A  0       26.418 -13.868   3.951  0.00  0.00    +0.000 A 
ATOM     31  C   UNK A  0       25.099 -14.303   3.898  0.00  0.00    +0.000 A 
ATOM     32  C   UNK A  0       24.808 -15.656   3.684  0.00  0.00    +0.003 A 
ENDBRANCH  26  27
ENDBRANCH  25  26
ENDBRANCH  19  25
ENDBRANCH   1  19
TORSDOF 11
ENDMDL
MODEL 9
REMARK VINA RESULT:      -7.6      3.281      5.432
REMARK  Name = *****
REMARK                            x       y       z     vdW  Elec       q    Type
REMARK                         _______ _______ _______ _____ _____    ______ ____
ROOT
ATOM      1  N   ALA A  1       26.056 -18.968   3.689  0.00  0.00    -0.294 NA
ATOM      2  H   ALA A  1       26.668 -19.776   3.553  0.00  0.00    +0.123 HD
ENDROOT
BRANCH   1   3
ATOM      3  CA  ALA A  1       24.801 -19.414   4.340  0.00  0.00    +0.138 C 
ATOM      4  CB  ALA A  1       23.611 -18.846   3.568  0.00  0.00    +0.034 C 
BRANCH   3   5
ATOM      5  C   ALA A  1       24.620 -20.953   4.378  0.00  0.00    +0.233 C 
ATOM      6  N   UNK A  2       24.815 -21.569   5.617  0.00  0.00    -0.283 N 
ATOM      7  C   UNK A  2       25.841 -21.126   6.556  0.00  0.00    +0.080 C 
ATOM      8  C   UNK A  2       26.492 -22.406   7.061  0.00  0.00    +0.012 C 
ATOM      9  C   UNK A  2       27.022 -22.065   8.443  0.00  0.00    +0.005 C 
ATOM     10  C   UNK A  2       26.192 -20.882   8.945  0.00  0.00    +0.002 C 
ATOM     11  C   UNK A  2       25.355 -23.421   7.040  0.00  0.00    +0.039 C 
ATOM     12  C   UNK A  2       25.269 -20.462   7.805  0.00  0.00    +0.023 C 
ATOM     13  C   UNK A  2       24.525 -23.014   5.809  0.00  0.00    +0.185 C 
ATOM     14  O   ALA A  1       24.166 -21.574   3.415  0.00  0.00    -0.274 OA
BRANCH  13  15
ATOM     15  C   UNK A  2       23.048 -23.322   6.124  0.00  0.00    +0.326 C 
ATOM     16  O   UNK A  2       22.670 -24.271   6.784  0.00  0.00    -0.249 OA
BRANCH  15  17
ATOM     17  O   UNK A  2       22.195 -22.365   5.666  0.00  0.00    -0.479 OA
ATOM     18  H   UNK A  2       21.720 -21.972   6.419  0.00  0.00    +0.295 HD
ENDBRANCH  15  17
ENDBRANCH  13  15
ENDBRANCH   3   5
ENDBRANCH   1   3
BRANCH   1  19
ATOM     19  C   UNK A  0       26.784 -17.887   4.419  0.00  0.00    +0.164 C 
BRANCH  19  20
ATOM     20  C   UNK A  0       26.808 -16.570   3.626  0.00  0.00    +0.324 C 
ATOM     21  O   UNK A  0       25.961 -16.288   2.768  0.00  0.00    -0.249 OA
BRANCH  20  22
ATOM     22  O   UNK A  0       27.802 -15.735   4.021  0.00  0.00    -0.464 OA
BRANCH  22  24
ATOM     23  C   UNK A  0       26.956 -13.630   5.028  0.00  0.00    +0.048 C 
ATOM     24  C   UNK A  0       27.600 -14.330   3.845  0.00  0.00    +0.229 C 
ENDBRANCH  22  24
ENDBRANCH  20  22
ENDBRANCH  19  20
BRANCH  19  25
ATOM     25  C   UNK A  0       28.245 -18.344   4.699  0.00  0.00    +0.035 C 
BRANCH  25  26
ATOM     26  C   UNK A  0       28.425 -19.621   5.569  0.00  0.00    +0.037 C 
BRANCH  26  27
ATOM     27  C   UNK A  0       29.378 -19.499   6.758  0.00  0.00    -0.047 A 
ATOM     28  C   UNK A  0       29.887 -20.660   7.374  0.00  0.00    +0.003 A 
ATOM     29  C   UNK A  0       30.778 -20.580   8.456  0.00  0.00    +0.000 A 
ATOM     30  C   UNK A  0       31.158 -19.339   8.959  0.00  0.00    +0.000 A 
ATOM     31  C   UNK A  0       30.646 -18.183   8.383  0.00  0.00    +0.000 A 
ATOM     32  C   UNK A  0       29.771 -18.263   7.292  0.00  0.00    +0.003 A 
ENDBRANCH  26  27
ENDBRANCH  25  26
ENDBRANCH  19  25
ENDBRANCH   1  19
TORSDOF 11
ENDMDL
