MODEL 1
REMARK VINA RESULT:      -5.0      0.000      0.000
REMARK  Name = *****
REMARK                            x       y       z     vdW  Elec       q    Type
REMARK                         _______ _______ _______ _____ _____    ______ ____
ROOT
ATOM      1  N   LIG    1       25.579 -15.655   3.523  0.00  0.00    -0.234 N 
ATOM      2  C   LIG    1       24.867 -14.498   3.800  0.00  0.00    +0.408 C 
ATOM      3  O   LIG    1       23.696 -14.371   4.115  0.00  0.00    -0.226 OA
ATOM      4  O   LIG    1       25.690 -13.405   3.694  0.00  0.00    -0.443 OA
ATOM      5  C   LIG    1       26.960 -13.822   3.175  0.00  0.00    +0.221 C 
ATOM      6  C   LIG    1       26.947 -15.331   3.254  0.00  0.00    +0.164 C 
ENDROOT
BRANCH   1  10
ATOM      7  C   LIG    1       21.839 -18.817   4.387  0.00  0.00    +0.044 C 
ATOM      8  C   LIG    1       23.276 -18.579   4.027  0.00  0.00    -0.049 A 
ATOM      9  C   LIG    1       23.773 -17.266   3.948  0.00  0.00    +0.027 A 
ATOM     10  C   LIG    1       25.112 -16.997   3.606  0.00  0.00    +0.040 A 
ATOM     11  C   LIG    1       25.942 -18.092   3.344  0.00  0.00    +0.024 A 
ATOM     12  C   LIG    1       25.456 -19.403   3.407  0.00  0.00    +0.002 A 
ATOM     13  C   LIG    1       24.129 -19.647   3.744  0.00  0.00    +0.003 A 
ENDBRANCH   1  10
BRANCH   5  14
ATOM     14  C   LIG    1       28.074 -13.203   4.015  0.00  0.00    +0.202 C 
BRANCH  14  15
ATOM     15  O   LIG    1       29.325 -13.316   3.342  0.00  0.00    -0.391 OA
ATOM     16  H   LIG    1       29.975 -13.614   4.006  0.00  0.00    +0.210 HD
ENDBRANCH  14  15
ENDBRANCH   5  14
TORSDOF 3
ENDMDL
MODEL 2
REMARK VINA RESULT:      -4.8      0.779      1.766
REMARK  Name = *****
REMARK                            x       y       z     vdW  Elec       q    Type
REMARK                         _______ _______ _______ _____ _____    ______ ____
ROOT
ATOM      1  N   LIG    1       25.079 -15.531   3.656  0.00  0.00    -0.234 N 
ATOM      2  C   LIG    1       24.732 -14.198   3.823  0.00  0.00    +0.408 C 
ATOM      3  O   LIG    1       23.656 -13.715   4.128  0.00  0.00    -0.226 OA
ATOM      4  O   LIG    1       25.828 -13.399   3.609  0.00  0.00    -0.443 OA
ATOM      5  C   LIG    1       26.911 -14.206   3.128  0.00  0.00    +0.221 C 
ATOM      6  C   LIG    1       26.474 -15.635   3.352  0.00  0.00    +0.164 C 
ENDROOT
BRANCH   1  10
ATOM      7  C   LIG    1       24.520 -20.471   3.533  0.00  0.00    +0.044 C 
ATOM      8  C   LIG    1       23.955 -19.111   3.821  0.00  0.00    -0.049 A 
ATOM      9  C   LIG    1       24.740 -17.964   3.607  0.00  0.00    +0.027 A 
ATOM     10  C   LIG    1       24.254 -16.670   3.871  0.00  0.00    +0.040 A 
ATOM     11  C   LIG    1       22.947 -16.561   4.359  0.00  0.00    +0.024 A 
ATOM     12  C   LIG    1       22.160 -17.696   4.588  0.00  0.00    +0.002 A 
ATOM     13  C   LIG    1       22.662 -18.966   4.323  0.00  0.00    +0.003 A 
ENDBRANCH   1  10
BRANCH   5  14
ATOM     14  C   LIG    1       28.179 -13.856   3.900  0.00  0.00    +0.202 C 
BRANCH  14  15
ATOM     15  O   LIG    1       28.812 -12.715   3.327  0.00  0.00    -0.391 OA
ATOM     16  H   LIG    1       29.763 -12.789   3.529  0.00  0.00    +0.210 HD
ENDBRANCH  14  15
ENDBRANCH   5  14
TORSDOF 3
ENDMDL
MODEL 3
REMARK VINA RESULT:      -4.7      1.358      2.418
REMARK  Name = *****
REMARK                            x       y       z     vdW  Elec       q    Type
REMARK                         _______ _______ _______ _____ _____    ______ ____
ROOT
ATOM      1  N   LIG    1       24.992 -15.257   3.724  0.00  0.00    -0.234 N 
ATOM      2  C   LIG    1       26.118 -14.570   3.292  0.00  0.00    +0.408 C 
ATOM      3  O   LIG    1       27.177 -15.009   2.879  0.00  0.00    -0.226 OA
ATOM      4  O   LIG    1       25.896 -13.217   3.363  0.00  0.00    -0.443 OA
ATOM      5  C   LIG    1       24.640 -12.980   4.012  0.00  0.00    +0.221 C 
ATOM      6  C   LIG    1       23.958 -14.328   4.066  0.00  0.00    +0.164 C 
ENDROOT
BRANCH   1  10
ATOM      7  C   LIG    1       21.955 -19.122   4.474  0.00  0.00    +0.044 C 
ATOM      8  C   LIG    1       23.304 -18.592   4.085  0.00  0.00    -0.049 A 
ATOM      9  C   LIG    1       23.542 -17.206   4.088  0.00  0.00    +0.027 A 
ATOM     10  C   LIG    1       24.789 -16.665   3.723  0.00  0.00    +0.040 A 
ATOM     11  C   LIG    1       25.797 -17.563   3.353  0.00  0.00    +0.024 A 
ATOM     12  C   LIG    1       25.568 -18.943   3.335  0.00  0.00    +0.002 A 
ATOM     13  C   LIG    1       24.327 -19.457   3.697  0.00  0.00    +0.003 A 
ENDBRANCH   1  10
BRANCH   5  14
ATOM     14  C   LIG    1       23.844 -11.956   3.208  0.00  0.00    +0.202 C 
BRANCH  14  15
ATOM     15  O   LIG    1       23.931 -12.240   1.815  0.00  0.00    -0.391 OA
ATOM     16  H   LIG    1       24.365 -11.472   1.398  0.00  0.00    +0.210 HD
ENDBRANCH  14  15
ENDBRANCH   5  14
TORSDOF 3
ENDMDL
MODEL 4
REMARK VINA RESULT:      -4.7      1.677      2.976
REMARK  Name = *****
REMARK                            x       y       z     vdW  Elec       q    Type
REMARK                         _______ _______ _______ _____ _____    ______ ____
ROOT
ATOM      1  N   LIG    1       24.393 -15.540   3.966  0.00  0.00    -0.234 N 
ATOM      2  C   LIG    1       25.661 -15.172   3.540  0.00  0.00    +0.408 C 
ATOM      3  O   LIG    1       26.600 -15.878   3.219  0.00  0.00    -0.226 OA
ATOM      4  O   LIG    1       25.759 -13.803   3.492  0.00  0.00    -0.443 OA
ATOM      5  C   LIG    1       24.573 -13.227   4.054  0.00  0.00    +0.221 C 
ATOM      6  C   LIG    1       23.594 -14.371   4.179  0.00  0.00    +0.164 C 
ENDROOT
BRANCH   1  10
ATOM      7  C   LIG    1       25.043 -20.440   3.424  0.00  0.00    +0.044 C 
ATOM      8  C   LIG    1       24.166 -19.286   3.809  0.00  0.00    -0.049 A 
ATOM      9  C   LIG    1       24.651 -17.970   3.709  0.00  0.00    +0.027 A 
ATOM     10  C   LIG    1       23.866 -16.857   4.066  0.00  0.00    +0.040 A 
ATOM     11  C   LIG    1       22.570 -17.108   4.531  0.00  0.00    +0.024 A 
ATOM     12  C   LIG    1       22.079 -18.413   4.647  0.00  0.00    +0.002 A 
ATOM     13  C   LIG    1       22.873 -19.498   4.290  0.00  0.00    +0.003 A 
ENDBRANCH   1  10
BRANCH   5  14
ATOM     14  C   LIG    1       24.065 -12.123   3.131  0.00  0.00    +0.202 C 
BRANCH  14  15
ATOM     15  O   LIG    1       23.858 -12.630   1.816  0.00  0.00    -0.391 OA
ATOM     16  H   LIG    1       24.620 -12.339   1.279  0.00  0.00    +0.210 HD
ENDBRANCH  14  15
ENDBRANCH   5  14
TORSDOF 3
ENDMDL
MODEL 5
REMARK VINA RESULT:      -4.6      3.952      4.912
REMARK  Name = *****
REMARK                            x       y       z     vdW  Elec       q    Type
REMARK                         _______ _______ _______ _____ _____    ______ ____
ROOT
ATOM      1  N   LIG    1       26.183 -20.052   5.274  0.00  0.00    -0.234 N 
ATOM      2  C   LIG    1       26.934 -19.133   4.555  0.00  0.00    +0.408 C 
ATOM      3  O   LIG    1       26.572 -18.341   3.703  0.00  0.00    -0.226 OA
ATOM      4  O   LIG    1       28.248 -19.195   4.947  0.00  0.00    -0.443 OA
ATOM      5  C   LIG    1       28.420 -20.298   5.846  0.00  0.00    +0.221 C 
ATOM      6  C   LIG    1       27.020 -20.734   6.213  0.00  0.00    +0.164 C 
ENDROOT
BRANCH   1  10
ATOM      7  C   LIG    1       21.703 -18.354   3.941  0.00  0.00    +0.044 C 
ATOM      8  C   LIG    1       22.547 -19.421   4.573  0.00  0.00    -0.049 A 
ATOM      9  C   LIG    1       23.943 -19.261   4.649  0.00  0.00    +0.027 A 
ATOM     10  C   LIG    1       24.774 -20.239   5.226  0.00  0.00    +0.040 A 
ATOM     11  C   LIG    1       24.158 -21.391   5.728  0.00  0.00    +0.024 A 
ATOM     12  C   LIG    1       22.772 -21.568   5.647  0.00  0.00    +0.002 A 
ATOM     13  C   LIG    1       21.970 -20.589   5.070  0.00  0.00    +0.003 A 
ENDBRANCH   1  10
BRANCH   5  14
ATOM     14  C   LIG    1       29.225 -19.839   7.058  0.00  0.00    +0.202 C 
BRANCH  14  15
ATOM     15  O   LIG    1       29.475 -18.438   6.987  0.00  0.00    -0.391 OA
ATOM     16  H   LIG    1       29.106 -18.045   7.800  0.00  0.00    +0.210 HD
ENDBRANCH  14  15
ENDBRANCH   5  14
TORSDOF 3
ENDMDL
MODEL 6
REMARK VINA RESULT:      -4.4      4.283      6.836
REMARK  Name = *****
REMARK                            x       y       z     vdW  Elec       q    Type
REMARK                         _______ _______ _______ _____ _____    ______ ____
ROOT
ATOM      1  N   LIG    1       24.905 -20.196   5.533  0.00  0.00    -0.234 N 
ATOM      2  C   LIG    1       24.365 -19.707   4.353  0.00  0.00    +0.408 C 
ATOM      3  O   LIG    1       24.929 -19.190   3.404  0.00  0.00    -0.226 OA
ATOM      4  O   LIG    1       23.005 -19.897   4.347  0.00  0.00    -0.443 OA
ATOM      5  C   LIG    1       22.593 -20.386   5.629  0.00  0.00    +0.221 C 
ATOM      6  C   LIG    1       23.870 -20.770   6.339  0.00  0.00    +0.164 C 
ENDROOT
BRANCH   1  10
ATOM      7  C   LIG    1       29.474 -18.249   5.278  0.00  0.00    +0.044 C 
ATOM      8  C   LIG    1       28.549 -19.319   5.778  0.00  0.00    -0.049 A 
ATOM      9  C   LIG    1       27.185 -19.287   5.435  0.00  0.00    +0.027 A 
ATOM     10  C   LIG    1       26.281 -20.265   5.888  0.00  0.00    +0.040 A 
ATOM     11  C   LIG    1       26.789 -21.284   6.702  0.00  0.00    +0.024 A 
ATOM     12  C   LIG    1       28.141 -21.320   7.061  0.00  0.00    +0.002 A 
ATOM     13  C   LIG    1       29.018 -20.341   6.604  0.00  0.00    +0.003 A 
ENDBRANCH   1  10
BRANCH   5  14
ATOM     14  C   LIG    1       21.653 -21.572   5.437  0.00  0.00    +0.202 C 
BRANCH  14  15
ATOM     15  O   LIG    1       20.828 -21.372   4.292  0.00  0.00    -0.391 OA
ATOM     16  H   LIG    1       21.019 -20.474   3.961  0.00  0.00    +0.210 HD
ENDBRANCH  14  15
ENDBRANCH   5  14
TORSDOF 3
ENDMDL
MODEL 7
REMARK VINA RESULT:      -4.3      2.796      6.018
REMARK  Name = *****
REMARK                            x       y       z     vdW  Elec       q    Type
REMARK                         _______ _______ _______ _____ _____    ______ ____
ROOT
ATOM      1  N   LIG    1       24.182 -17.151   3.846  0.00  0.00    -0.234 N 
ATOM      2  C   LIG    1       24.985 -18.219   3.473  0.00  0.00    +0.408 C 
ATOM      3  O   LIG    1       26.123 -18.212   3.039  0.00  0.00    -0.226 OA
ATOM      4  O   LIG    1       24.316 -19.401   3.679  0.00  0.00    -0.443 OA
ATOM      5  C   LIG    1       22.962 -19.116   4.053  0.00  0.00    +0.221 C 
ATOM      6  C   LIG    1       22.935 -17.636   4.356  0.00  0.00    +0.164 C 
ENDROOT
BRANCH   1  10
ATOM      7  C   LIG    1       27.612 -13.622   3.134  0.00  0.00    +0.044 C 
ATOM      8  C   LIG    1       26.215 -14.010   3.517  0.00  0.00    -0.049 A 
ATOM      9  C   LIG    1       25.837 -15.365   3.521  0.00  0.00    +0.027 A 
ATOM     10  C   LIG    1       24.535 -15.773   3.866  0.00  0.00    +0.040 A 
ATOM     11  C   LIG    1       23.617 -14.774   4.210  0.00  0.00    +0.024 A 
ATOM     12  C   LIG    1       23.978 -13.422   4.199  0.00  0.00    +0.002 A 
ATOM     13  C   LIG    1       25.270 -13.040   3.852  0.00  0.00    +0.003 A 
ENDBRANCH   1  10
BRANCH   5  14
ATOM     14  C   LIG    1       22.585 -19.966   5.263  0.00  0.00    +0.202 C 
BRANCH  14  15
ATOM     15  O   LIG    1       21.967 -21.180   4.845  0.00  0.00    -0.391 OA
ATOM     16  H   LIG    1       21.349 -20.948   4.127  0.00  0.00    +0.210 HD
ENDBRANCH  14  15
ENDBRANCH   5  14
TORSDOF 3
ENDMDL
MODEL 8
REMARK VINA RESULT:      -3.9      2.817      5.752
REMARK  Name = *****
REMARK                            x       y       z     vdW  Elec       q    Type
REMARK                         _______ _______ _______ _____ _____    ______ ____
ROOT
ATOM      1  N   LIG    1       24.515 -17.295   3.726  0.00  0.00    -0.234 N 
ATOM      2  C   LIG    1       25.156 -18.502   3.484  0.00  0.00    +0.408 C 
ATOM      3  O   LIG    1       26.306 -18.707   3.137  0.00  0.00    -0.226 OA
ATOM      4  O   LIG    1       24.293 -19.544   3.715  0.00  0.00    -0.443 OA
ATOM      5  C   LIG    1       22.982 -19.022   3.968  0.00  0.00    +0.221 C 
ATOM      6  C   LIG    1       23.176 -17.538   4.171  0.00  0.00    +0.164 C 
ENDROOT
BRANCH   1  10
ATOM      7  C   LIG    1       23.982 -12.390   4.346  0.00  0.00    +0.044 C 
ATOM      8  C   LIG    1       24.845 -13.563   3.986  0.00  0.00    -0.049 A 
ATOM      9  C   LIG    1       24.309 -14.863   4.005  0.00  0.00    +0.027 A 
ATOM     10  C   LIG    1       25.085 -15.993   3.683  0.00  0.00    +0.040 A 
ATOM     11  C   LIG    1       26.424 -15.777   3.339  0.00  0.00    +0.024 A 
ATOM     12  C   LIG    1       26.972 -14.489   3.328  0.00  0.00    +0.002 A 
ATOM     13  C   LIG    1       26.188 -13.387   3.652  0.00  0.00    +0.003 A 
ENDBRANCH   1  10
BRANCH   5  14
ATOM     14  C   LIG    1       22.396 -19.708   5.198  0.00  0.00    +0.202 C 
BRANCH  14  15
ATOM     15  O   LIG    1       22.132 -21.081   4.924  0.00  0.00    -0.391 OA
ATOM     16  H   LIG    1       21.162 -21.182   4.901  0.00  0.00    +0.210 HD
ENDBRANCH  14  15
ENDBRANCH   5  14
TORSDOF 3
ENDMDL
MODEL 9
REMARK VINA RESULT:      -3.5      2.940      5.707
REMARK  Name = *****
REMARK                            x       y       z     vdW  Elec       q    Type
REMARK                         _______ _______ _______ _____ _____    ______ ____
ROOT
ATOM      1  N   LIG    1       24.274 -17.243   3.968  0.00  0.00    -0.234 N 
ATOM      2  C   LIG    1       23.055 -17.835   4.266  0.00  0.00    +0.408 C 
ATOM      3  O   LIG    1       21.997 -17.309   4.565  0.00  0.00    -0.226 OA
ATOM      4  O   LIG    1       23.160 -19.199   4.163  0.00  0.00    -0.443 OA
ATOM      5  C   LIG    1       24.532 -19.550   3.943  0.00  0.00    +0.221 C 
ATOM      6  C   LIG    1       25.229 -18.250   3.616  0.00  0.00    +0.164 C 
ENDROOT
BRANCH   1  10
ATOM      7  C   LIG    1       27.525 -13.615   2.968  0.00  0.00    +0.044 C 
ATOM      8  C   LIG    1       26.148 -14.041   3.387  0.00  0.00    -0.049 A 
ATOM      9  C   LIG    1       25.838 -15.408   3.497  0.00  0.00    +0.027 A 
ATOM     10  C   LIG    1       24.559 -15.852   3.879  0.00  0.00    +0.040 A 
ATOM     11  C   LIG    1       23.593 -14.876   4.149  0.00  0.00    +0.024 A 
ATOM     12  C   LIG    1       23.886 -13.513   4.031  0.00  0.00    +0.002 A 
ATOM     13  C   LIG    1       25.157 -13.096   3.650  0.00  0.00    +0.003 A 
ENDBRANCH   1  10
BRANCH   5  14
ATOM     14  C   LIG    1       24.616 -20.560   2.802  0.00  0.00    +0.202 C 
BRANCH  14  15
ATOM     15  O   LIG    1       23.625 -21.572   2.959  0.00  0.00    -0.391 OA
ATOM     16  H   LIG    1       23.807 -22.015   3.809  0.00  0.00    +0.210 HD
ENDBRANCH  14  15
ENDBRANCH   5  14
TORSDOF 3
ENDMDL
