MODEL 1
REMARK VINA RESULT:      -4.2      0.000      0.000
REMARK  Name = *****
REMARK                            x       y       z     vdW  Elec       q    Type
REMARK                         _______ _______ _______ _____ _____    ______ ____
ROOT
ATOM      1  C   LIG    1       23.569 -18.381   3.980  0.00  0.00    +0.158 C 
ENDROOT
BRANCH   1   2
ATOM      2  C   LIG    1       23.856 -16.893   4.066  0.00  0.00    -0.016 A 
ATOM      3  C   LIG    1       25.078 -16.342   3.643  0.00  0.00    +0.033 A 
ATOM      4  C   LIG    1       25.304 -14.958   3.639  0.00  0.00    +0.075 A 
ATOM      5  C   LIG    1       24.295 -14.116   4.134  0.00  0.00    +0.138 A 
ATOM      6  C   LIG    1       23.095 -14.651   4.607  0.00  0.00    +0.048 A 
ATOM      7  C   LIG    1       22.875 -16.028   4.568  0.00  0.00    +0.010 A 
BRANCH   4   8
ATOM      8  N   LIG    1       26.545 -14.530   3.135  0.00  0.00    -0.285 N 
ATOM      9  H   LIG    1       26.696 -14.571   2.133  0.00  0.00    +0.155 HD
ATOM     10  C   LIG    1       27.594 -13.967   3.806  0.00  0.00    +0.330 C 
ATOM     11  O   LIG    1       28.621 -13.638   3.249  0.00  0.00    -0.279 OA
ENDBRANCH   4   8
BRANCH   5  12
ATOM     12  O   LIG    1       24.479 -12.766   4.212  0.00  0.00    -0.505 OA
ATOM     13  H   LIG    1       23.743 -12.370   4.708  0.00  0.00    +0.292 HD
ENDBRANCH   5  12
ENDBRANCH   1   2
BRANCH   1  14
ATOM     14  O   LIG    1       23.296 -18.774   2.631  0.00  0.00    -0.386 OA
ATOM     15  H   LIG    1       23.663 -19.677   2.550  0.00  0.00    +0.210 HD
ENDBRANCH   1  14
BRANCH   1  16
ATOM     16  C   LIG    1       22.391 -18.846   4.885  0.00  0.00    +0.117 C 
BRANCH  16  17
ATOM     17  N   LIG    1       22.842 -19.754   5.958  0.00  0.00    -0.310 NA
ATOM     18  H   LIG    1       23.774 -19.452   6.261  0.00  0.00    +0.122 HD
BRANCH  17  19
ATOM     19  C   LIG    1       22.944 -21.169   5.530  0.00  0.00    +0.055 C 
ATOM     20  C   LIG    1       21.633 -21.501   4.800  0.00  0.00    +0.024 C 
BRANCH  19  21
ATOM     21  C   LIG    1       24.175 -21.424   4.629  0.00  0.00    +0.053 C 
BRANCH  21  25
ATOM     22  C   LIG    1       27.951 -20.335   6.399  0.00  0.00    +0.120 A 
ATOM     23  C   LIG    1       27.087 -21.217   7.050  0.00  0.00    +0.046 A 
ATOM     24  C   LIG    1       25.871 -21.572   6.477  0.00  0.00    +0.007 A 
ATOM     25  C   LIG    1       25.486 -21.021   5.254  0.00  0.00    -0.046 A 
ATOM     26  C   LIG    1       26.332 -20.103   4.618  0.00  0.00    +0.007 A 
ATOM     27  C   LIG    1       27.559 -19.759   5.190  0.00  0.00    +0.046 A 
BRANCH  22  29
ATOM     28  C   LIG    1       29.430 -18.568   6.844  0.00  0.00    +0.277 C 
ATOM     29  O   LIG    1       29.178 -19.973   6.887  0.00  0.00    -0.495 OA
ENDBRANCH  22  29
ENDBRANCH  21  25
ENDBRANCH  19  21
ENDBRANCH  17  19
ENDBRANCH  16  17
ENDBRANCH   1  16
TORSDOF 10
ENDMDL
MODEL 2
REMARK VINA RESULT:      -4.2      1.781      2.903
REMARK  Name = *****
REMARK                            x       y       z     vdW  Elec       q    Type
REMARK                         _______ _______ _______ _____ _____    ______ ____
ROOT
ATOM      1  C   LIG    1       23.078 -15.147   4.092  0.00  0.00    +0.158 C 
ENDROOT
BRANCH   1   2
ATOM      2  C   LIG    1       24.461 -14.582   3.822  0.00  0.00    -0.016 A 
ATOM      3  C   LIG    1       25.633 -15.289   4.145  0.00  0.00    +0.033 A 
ATOM      4  C   LIG    1       26.906 -14.803   3.811  0.00  0.00    +0.075 A 
ATOM      5  C   LIG    1       26.998 -13.546   3.194  0.00  0.00    +0.138 A 
ATOM      6  C   LIG    1       25.847 -12.807   2.914  0.00  0.00    +0.048 A 
ATOM      7  C   LIG    1       24.589 -13.323   3.221  0.00  0.00    +0.010 A 
BRANCH   4   8
ATOM      8  N   LIG    1       27.994 -15.633   4.134  0.00  0.00    -0.285 N 
ATOM      9  H   LIG    1       28.912 -15.213   4.212  0.00  0.00    +0.155 HD
ATOM     10  C   LIG    1       27.991 -16.963   4.454  0.00  0.00    +0.330 C 
ATOM     11  O   LIG    1       29.009 -17.570   4.717  0.00  0.00    -0.279 OA
ENDBRANCH   4   8
BRANCH   5  12
ATOM     12  O   LIG    1       28.212 -12.993   2.900  0.00  0.00    -0.505 OA
ATOM     13  H   LIG    1       28.587 -12.598   3.704  0.00  0.00    +0.292 HD
ENDBRANCH   5  12
ENDBRANCH   1   2
BRANCH   1  14
ATOM     14  O   LIG    1       22.702 -14.952   5.459  0.00  0.00    -0.386 OA
ATOM     15  H   LIG    1       22.534 -13.992   5.541  0.00  0.00    +0.210 HD
ENDBRANCH   1  14
BRANCH   1  16
ATOM     16  C   LIG    1       22.940 -16.658   3.745  0.00  0.00    +0.117 C 
BRANCH  16  17
ATOM     17  N   LIG    1       22.319 -17.424   4.844  0.00  0.00    -0.310 NA
ATOM     18  H   LIG    1       23.010 -17.521   5.594  0.00  0.00    +0.122 HD
BRANCH  17  19
ATOM     19  C   LIG    1       21.891 -18.786   4.445  0.00  0.00    +0.055 C 
ATOM     20  C   LIG    1       20.640 -18.612   3.568  0.00  0.00    +0.024 C 
BRANCH  19  21
ATOM     21  C   LIG    1       23.004 -19.558   3.700  0.00  0.00    +0.053 C 
BRANCH  21  25
ATOM     22  C   LIG    1       26.360 -20.580   6.203  0.00  0.00    +0.120 A 
ATOM     23  C   LIG    1       26.558 -20.040   4.932  0.00  0.00    +0.046 A 
ATOM     24  C   LIG    1       25.475 -19.706   4.126  0.00  0.00    +0.007 A 
ATOM     25  C   LIG    1       24.173 -19.940   4.570  0.00  0.00    -0.046 A 
ATOM     26  C   LIG    1       23.972 -20.522   5.828  0.00  0.00    +0.007 A 
ATOM     27  C   LIG    1       25.061 -20.844   6.641  0.00  0.00    +0.046 A 
BRANCH  22  29
ATOM     28  C   LIG    1       28.683 -20.700   6.517  0.00  0.00    +0.277 C 
ATOM     29  O   LIG    1       27.379 -20.897   7.062  0.00  0.00    -0.495 OA
ENDBRANCH  22  29
ENDBRANCH  21  25
ENDBRANCH  19  21
ENDBRANCH  17  19
ENDBRANCH  16  17
ENDBRANCH   1  16
TORSDOF 10
ENDMDL
MODEL 3
REMARK VINA RESULT:      -4.0      1.906      6.001
REMARK  Name = *****
REMARK                            x       y       z     vdW  Elec       q    Type
REMARK                         _______ _______ _______ _____ _____    ______ ____
ROOT
ATOM      1  C   LIG    1       22.398 -19.723   5.077  0.00  0.00    +0.158 C 
ENDROOT
BRANCH   1   2
ATOM      2  C   LIG    1       23.757 -20.208   5.545  0.00  0.00    -0.016 A 
ATOM      3  C   LIG    1       24.955 -19.732   4.981  0.00  0.00    +0.033 A 
ATOM      4  C   LIG    1       26.209 -20.115   5.479  0.00  0.00    +0.075 A 
ATOM      5  C   LIG    1       26.255 -21.048   6.526  0.00  0.00    +0.138 A 
ATOM      6  C   LIG    1       25.076 -21.571   7.062  0.00  0.00    +0.048 A 
ATOM      7  C   LIG    1       23.838 -21.150   6.578  0.00  0.00    +0.010 A 
BRANCH   4   8
ATOM      8  N   LIG    1       27.328 -19.521   4.868  0.00  0.00    -0.285 N 
ATOM      9  H   LIG    1       27.355 -19.474   3.856  0.00  0.00    +0.155 HD
ATOM     10  C   LIG    1       28.394 -18.897   5.455  0.00  0.00    +0.330 C 
ATOM     11  O   LIG    1       29.304 -18.420   4.809  0.00  0.00    -0.279 OA
ENDBRANCH   4   8
BRANCH   5  12
ATOM     12  O   LIG    1       27.447 -21.505   7.011  0.00  0.00    -0.505 OA
ATOM     13  H   LIG    1       27.944 -20.762   7.391  0.00  0.00    +0.292 HD
ENDBRANCH   5  12
ENDBRANCH   1   2
BRANCH   1  14
ATOM     14  O   LIG    1       21.626 -20.801   4.537  0.00  0.00    -0.386 OA
ATOM     15  H   LIG    1       22.268 -21.354   4.051  0.00  0.00    +0.210 HD
ENDBRANCH   1  14
BRANCH   1  16
ATOM     16  C   LIG    1       22.469 -18.581   4.022  0.00  0.00    +0.117 C 
BRANCH  16  17
ATOM     17  N   LIG    1       23.182 -17.394   4.537  0.00  0.00    -0.310 NA
ATOM     18  H   LIG    1       23.431 -17.572   5.515  0.00  0.00    +0.122 HD
BRANCH  17  19
ATOM     19  C   LIG    1       22.372 -16.155   4.495  0.00  0.00    +0.055 C 
ATOM     20  C   LIG    1       22.331 -15.610   5.932  0.00  0.00    +0.024 C 
BRANCH  19  21
ATOM     21  C   LIG    1       22.945 -15.110   3.509  0.00  0.00    +0.053 C 
BRANCH  21  25
ATOM     22  C   LIG    1       26.811 -13.533   4.576  0.00  0.00    +0.120 A 
ATOM     23  C   LIG    1       26.702 -14.671   3.775  0.00  0.00    +0.046 A 
ATOM     24  C   LIG    1       25.455 -15.177   3.427  0.00  0.00    +0.007 A 
ATOM     25  C   LIG    1       24.294 -14.568   3.905  0.00  0.00    -0.046 A 
ATOM     26  C   LIG    1       24.400 -13.451   4.743  0.00  0.00    +0.007 A 
ATOM     27  C   LIG    1       25.655 -12.937   5.080  0.00  0.00    +0.046 A 
BRANCH  22  29
ATOM     28  C   LIG    1       28.993 -12.999   3.895  0.00  0.00    +0.277 C 
ATOM     29  O   LIG    1       28.005 -12.961   4.925  0.00  0.00    -0.495 OA
ENDBRANCH  22  29
ENDBRANCH  21  25
ENDBRANCH  19  21
ENDBRANCH  17  19
ENDBRANCH  16  17
ENDBRANCH   1  16
TORSDOF 10
ENDMDL
MODEL 4
REMARK VINA RESULT:      -3.2      2.249      4.450
REMARK  Name = *****
REMARK                            x       y       z     vdW  Elec       q    Type
REMARK                         _______ _______ _______ _____ _____    ______ ____
ROOT
ATOM      1  C   LIG    1       26.817 -17.884   3.703  0.00  0.00    +0.158 C 
ENDROOT
BRANCH   1   2
ATOM      2  C   LIG    1       27.044 -16.384   3.661  0.00  0.00    -0.016 A 
ATOM      3  C   LIG    1       26.237 -15.527   2.892  0.00  0.00    +0.033 A 
ATOM      4  C   LIG    1       26.392 -14.134   2.929  0.00  0.00    +0.075 A 
ATOM      5  C   LIG    1       27.429 -13.599   3.710  0.00  0.00    +0.138 A 
ATOM      6  C   LIG    1       28.274 -14.439   4.438  0.00  0.00    +0.048 A 
ATOM      7  C   LIG    1       28.079 -15.819   4.418  0.00  0.00    +0.010 A 
BRANCH   4   8
ATOM      8  N   LIG    1       25.482 -13.385   2.161  0.00  0.00    -0.285 N 
ATOM      9  H   LIG    1       25.444 -13.553   1.162  0.00  0.00    +0.155 HD
ATOM     10  C   LIG    1       24.541 -12.487   2.583  0.00  0.00    +0.330 C 
ATOM     11  O   LIG    1       23.809 -11.903   1.812  0.00  0.00    -0.279 OA
ENDBRANCH   4   8
BRANCH   5  12
ATOM     12  O   LIG    1       27.668 -12.255   3.737  0.00  0.00    -0.505 OA
ATOM     13  H   LIG    1       26.823 -11.780   3.795  0.00  0.00    +0.292 HD
ENDBRANCH   5  12
ENDBRANCH   1   2
BRANCH   1  14
ATOM     14  O   LIG    1       25.419 -18.191   3.698  0.00  0.00    -0.386 OA
ATOM     15  H   LIG    1       25.125 -18.022   2.781  0.00  0.00    +0.210 HD
ENDBRANCH   1  14
BRANCH   1  16
ATOM     16  C   LIG    1       27.479 -18.584   4.925  0.00  0.00    +0.117 C 
BRANCH  16  17
ATOM     17  N   LIG    1       27.402 -20.056   4.830  0.00  0.00    -0.310 NA
ATOM     18  H   LIG    1       26.424 -20.312   4.659  0.00  0.00    +0.122 HD
BRANCH  17  19
ATOM     19  C   LIG    1       27.842 -20.751   6.062  0.00  0.00    +0.055 C 
ATOM     20  C   LIG    1       28.537 -19.694   6.936  0.00  0.00    +0.024 C 
BRANCH  19  21
ATOM     21  C   LIG    1       26.668 -21.423   6.810  0.00  0.00    +0.053 C 
BRANCH  21  25
ATOM     22  C   LIG    1       22.810 -20.458   5.149  0.00  0.00    +0.120 A 
ATOM     23  C   LIG    1       23.122 -20.122   6.466  0.00  0.00    +0.046 A 
ATOM     24  C   LIG    1       24.368 -20.429   7.001  0.00  0.00    +0.007 A 
ATOM     25  C   LIG    1       25.313 -21.110   6.232  0.00  0.00    -0.046 A 
ATOM     26  C   LIG    1       24.987 -21.487   4.922  0.00  0.00    +0.007 A 
ATOM     27  C   LIG    1       23.739 -21.165   4.383  0.00  0.00    +0.046 A 
BRANCH  22  29
ATOM     28  C   LIG    1       21.502 -18.790   4.141  0.00  0.00    +0.277 C 
ATOM     29  O   LIG    1       21.618 -20.154   4.548  0.00  0.00    -0.495 OA
ENDBRANCH  22  29
ENDBRANCH  21  25
ENDBRANCH  19  21
ENDBRANCH  17  19
ENDBRANCH  16  17
ENDBRANCH   1  16
TORSDOF 10
ENDMDL
MODEL 5
REMARK VINA RESULT:      -3.1      1.666      5.646
REMARK  Name = *****
REMARK                            x       y       z     vdW  Elec       q    Type
REMARK                         _______ _______ _______ _____ _____    ______ ____
ROOT
ATOM      1  C   LIG    1       24.005 -20.916   5.048  0.00  0.00    +0.158 C 
ENDROOT
BRANCH   1   2
ATOM      2  C   LIG    1       25.441 -20.779   5.518  0.00  0.00    -0.016 A 
ATOM      3  C   LIG    1       26.335 -19.865   4.931  0.00  0.00    +0.033 A 
ATOM      4  C   LIG    1       27.633 -19.678   5.429  0.00  0.00    +0.075 A 
ATOM      5  C   LIG    1       28.058 -20.476   6.502  0.00  0.00    +0.138 A 
ATOM      6  C   LIG    1       27.201 -21.426   7.062  0.00  0.00    +0.048 A 
ATOM      7  C   LIG    1       25.902 -21.571   6.577  0.00  0.00    +0.010 A 
BRANCH   4   8
ATOM      8  N   LIG    1       28.407 -18.691   4.792  0.00  0.00    -0.285 N 
ATOM      9  H   LIG    1       28.919 -18.947   3.956  0.00  0.00    +0.155 HD
ATOM     10  C   LIG    1       28.515 -17.361   5.092  0.00  0.00    +0.330 C 
ATOM     11  O   LIG    1       29.224 -16.607   4.458  0.00  0.00    -0.279 OA
ENDBRANCH   4   8
BRANCH   5  12
ATOM     12  O   LIG    1       29.330 -20.383   6.990  0.00  0.00    -0.505 OA
ATOM     13  H   LIG    1       29.607 -19.452   6.985  0.00  0.00    +0.292 HD
ENDBRANCH   5  12
ENDBRANCH   1   2
BRANCH   1  14
ATOM     14  O   LIG    1       23.946 -21.132   3.634  0.00  0.00    -0.386 OA
ATOM     15  H   LIG    1       22.995 -21.230   3.431  0.00  0.00    +0.210 HD
ENDBRANCH   1  14
BRANCH   1  16
ATOM     16  C   LIG    1       23.110 -19.694   5.405  0.00  0.00    +0.117 C 
BRANCH  16  17
ATOM     17  N   LIG    1       22.005 -19.516   4.440  0.00  0.00    -0.310 NA
ATOM     18  H   LIG    1       22.118 -20.210   3.695  0.00  0.00    +0.122 HD
BRANCH  17  19
ATOM     19  C   LIG    1       21.984 -18.176   3.809  0.00  0.00    +0.055 C 
ATOM     20  C   LIG    1       20.596 -18.015   3.169  0.00  0.00    +0.024 C 
BRANCH  19  21
ATOM     21  C   LIG    1       22.276 -17.043   4.821  0.00  0.00    +0.053 C 
BRANCH  21  25
ATOM     22  C   LIG    1       25.376 -14.352   3.507  0.00  0.00    +0.120 A 
ATOM     23  C   LIG    1       25.525 -15.732   3.368  0.00  0.00    +0.046 A 
ATOM     24  C   LIG    1       24.523 -16.600   3.787  0.00  0.00    +0.007 A 
ATOM     25  C   LIG    1       23.367 -16.099   4.385  0.00  0.00    -0.046 A 
ATOM     26  C   LIG    1       23.232 -14.716   4.566  0.00  0.00    +0.007 A 
ATOM     27  C   LIG    1       24.235 -13.845   4.131  0.00  0.00    +0.046 A 
BRANCH  22  29
ATOM     28  C   LIG    1       27.657 -13.827   3.330  0.00  0.00    +0.277 C 
ATOM     29  O   LIG    1       26.305 -13.440   3.083  0.00  0.00    -0.495 OA
ENDBRANCH  22  29
ENDBRANCH  21  25
ENDBRANCH  19  21
ENDBRANCH  17  19
ENDBRANCH  16  17
ENDBRANCH   1  16
TORSDOF 10
ENDMDL
MODEL 6
REMARK VINA RESULT:      -2.9      1.987      3.983
REMARK  Name = *****
REMARK                            x       y       z     vdW  Elec       q    Type
REMARK                         _______ _______ _______ _____ _____    ______ ____
ROOT
ATOM      1  C   LIG    1       26.914 -17.828   3.465  0.00  0.00    +0.158 C 
ENDROOT
BRANCH   1   2
ATOM      2  C   LIG    1       26.376 -16.430   3.709  0.00  0.00    -0.016 A 
ATOM      3  C   LIG    1       27.221 -15.309   3.794  0.00  0.00    +0.033 A 
ATOM      4  C   LIG    1       26.713 -14.008   3.927  0.00  0.00    +0.075 A 
ATOM      5  C   LIG    1       25.323 -13.843   4.042  0.00  0.00    +0.138 A 
ATOM      6  C   LIG    1       24.474 -14.951   4.012  0.00  0.00    +0.048 A 
ATOM      7  C   LIG    1       24.996 -16.233   3.842  0.00  0.00    +0.010 A 
BRANCH   4   8
ATOM      8  N   LIG    1       27.659 -12.968   3.940  0.00  0.00    -0.285 N 
ATOM      9  H   LIG    1       27.643 -12.294   3.183  0.00  0.00    +0.155 HD
ATOM     10  C   LIG    1       28.585 -12.663   4.899  0.00  0.00    +0.330 C 
ATOM     11  O   LIG    1       29.351 -11.729   4.789  0.00  0.00    -0.279 OA
ENDBRANCH   4   8
BRANCH   5  12
ATOM     12  O   LIG    1       24.773 -12.609   4.235  0.00  0.00    -0.505 OA
ATOM     13  H   LIG    1       24.989 -12.299   5.130  0.00  0.00    +0.292 HD
ENDBRANCH   5  12
ENDBRANCH   1   2
BRANCH   1  14
ATOM     14  O   LIG    1       25.848 -18.752   3.223  0.00  0.00    -0.386 OA
ATOM     15  H   LIG    1       25.136 -18.485   3.837  0.00  0.00    +0.210 HD
ENDBRANCH   1  14
BRANCH   1  16
ATOM     16  C   LIG    1       27.795 -18.371   4.627  0.00  0.00    +0.117 C 
BRANCH  16  17
ATOM     17  N   LIG    1       27.767 -19.846   4.700  0.00  0.00    -0.310 NA
ATOM     18  H   LIG    1       26.835 -20.161   4.411  0.00  0.00    +0.122 HD
BRANCH  17  19
ATOM     19  C   LIG    1       28.019 -20.374   6.062  0.00  0.00    +0.055 C 
ATOM     20  C   LIG    1       28.045 -19.160   7.004  0.00  0.00    +0.024 C 
BRANCH  19  21
ATOM     21  C   LIG    1       26.957 -21.409   6.498  0.00  0.00    +0.053 C 
BRANCH  21  25
ATOM     22  C   LIG    1       22.985 -20.429   5.143  0.00  0.00    +0.120 A 
ATOM     23  C   LIG    1       23.443 -19.986   6.384  0.00  0.00    +0.046 A 
ATOM     24  C   LIG    1       24.726 -20.299   6.819  0.00  0.00    +0.007 A 
ATOM     25  C   LIG    1       25.561 -21.090   6.030  0.00  0.00    -0.046 A 
ATOM     26  C   LIG    1       25.089 -21.571   4.801  0.00  0.00    +0.007 A 
ATOM     27  C   LIG    1       23.804 -21.245   4.361  0.00  0.00    +0.046 A 
BRANCH  22  29
ATOM     28  C   LIG    1       21.507 -18.729   4.483  0.00  0.00    +0.277 C 
ATOM     29  O   LIG    1       21.749 -20.127   4.636  0.00  0.00    -0.495 OA
ENDBRANCH  22  29
ENDBRANCH  21  25
ENDBRANCH  19  21
ENDBRANCH  17  19
ENDBRANCH  16  17
ENDBRANCH   1  16
TORSDOF 10
ENDMDL
MODEL 7
REMARK VINA RESULT:      -2.2      2.028      4.763
REMARK  Name = *****
REMARK                            x       y       z     vdW  Elec       q    Type
REMARK                         _______ _______ _______ _____ _____    ______ ____
ROOT
ATOM      1  C   LIG    1       28.083 -18.393   5.164  0.00  0.00    +0.158 C 
ENDROOT
BRANCH   1   2
ATOM      2  C   LIG    1       27.502 -17.197   4.433  0.00  0.00    -0.016 A 
ATOM      3  C   LIG    1       28.096 -15.925   4.491  0.00  0.00    +0.033 A 
ATOM      4  C   LIG    1       27.608 -14.845   3.741  0.00  0.00    +0.075 A 
ATOM      5  C   LIG    1       26.455 -15.039   2.964  0.00  0.00    +0.138 A 
ATOM      6  C   LIG    1       25.821 -16.283   2.936  0.00  0.00    +0.048 A 
ATOM      7  C   LIG    1       26.343 -17.354   3.660  0.00  0.00    +0.010 A 
BRANCH   4   8
ATOM      8  N   LIG    1       28.329 -13.641   3.840  0.00  0.00    -0.285 N 
ATOM      9  H   LIG    1       28.785 -13.284   3.008  0.00  0.00    +0.155 HD
ATOM     10  C   LIG    1       28.446 -12.799   4.911  0.00  0.00    +0.330 C 
ATOM     11  O   LIG    1       29.104 -11.780   4.867  0.00  0.00    -0.279 OA
ENDBRANCH   4   8
BRANCH   5  12
ATOM     12  O   LIG    1       25.898 -14.011   2.260  0.00  0.00    -0.505 OA
ATOM     13  H   LIG    1       26.601 -13.417   1.949  0.00  0.00    +0.292 HD
ENDBRANCH   5  12
ENDBRANCH   1   2
BRANCH   1  14
ATOM     14  O   LIG    1       29.457 -18.591   4.813  0.00  0.00    -0.386 OA
ATOM     15  H   LIG    1       29.958 -17.996   5.406  0.00  0.00    +0.210 HD
ENDBRANCH   1  14
BRANCH   1  16
ATOM     16  C   LIG    1       27.306 -19.719   4.914  0.00  0.00    +0.117 C 
BRANCH  16  17
ATOM     17  N   LIG    1       26.982 -20.417   6.174  0.00  0.00    -0.310 NA
ATOM     18  H   LIG    1       27.777 -21.018   6.418  0.00  0.00    +0.122 HD
BRANCH  17  19
ATOM     19  C   LIG    1       25.780 -21.277   6.079  0.00  0.00    +0.055 C 
ATOM     20  C   LIG    1       24.749 -20.697   7.062  0.00  0.00    +0.024 C 
BRANCH  19  21
ATOM     21  C   LIG    1       25.216 -21.345   4.641  0.00  0.00    +0.053 C 
BRANCH  21  25
ATOM     22  C   LIG    1       21.741 -18.897   3.932  0.00  0.00    +0.120 A 
ATOM     23  C   LIG    1       22.998 -18.500   3.475  0.00  0.00    +0.046 A 
ATOM     24  C   LIG    1       24.118 -19.291   3.699  0.00  0.00    +0.007 A 
ATOM     25  C   LIG    1       24.002 -20.482   4.417  0.00  0.00    -0.046 A 
ATOM     26  C   LIG    1       22.748 -20.863   4.915  0.00  0.00    +0.007 A 
ATOM     27  C   LIG    1       21.622 -20.072   4.676  0.00  0.00    +0.046 A 
BRANCH  22  29
ATOM     28  C   LIG    1       19.473 -18.987   3.333  0.00  0.00    +0.277 C 
ATOM     29  O   LIG    1       20.591 -18.185   3.714  0.00  0.00    -0.495 OA
ENDBRANCH  22  29
ENDBRANCH  21  25
ENDBRANCH  19  21
ENDBRANCH  17  19
ENDBRANCH  16  17
ENDBRANCH   1  16
TORSDOF 10
ENDMDL
MODEL 8
REMARK VINA RESULT:      -1.8      2.136      4.227
REMARK  Name = *****
REMARK                            x       y       z     vdW  Elec       q    Type
REMARK                         _______ _______ _______ _____ _____    ______ ____
ROOT
ATOM      1  C   LIG    1       23.815 -13.262   2.854  0.00  0.00    +0.158 C 
ENDROOT
BRANCH   1   2
ATOM      2  C   LIG    1       25.317 -13.298   3.068  0.00  0.00    -0.016 A 
ATOM      3  C   LIG    1       25.965 -14.412   3.632  0.00  0.00    +0.033 A 
ATOM      4  C   LIG    1       27.362 -14.477   3.744  0.00  0.00    +0.075 A 
ATOM      5  C   LIG    1       28.116 -13.366   3.336  0.00  0.00    +0.138 A 
ATOM      6  C   LIG    1       27.485 -12.231   2.822  0.00  0.00    +0.048 A 
ATOM      7  C   LIG    1       26.098 -12.200   2.685  0.00  0.00    +0.010 A 
BRANCH   4   8
ATOM      8  N   LIG    1       27.889 -15.670   4.269  0.00  0.00    -0.285 N 
ATOM      9  H   LIG    1       28.560 -15.607   5.026  0.00  0.00    +0.155 HD
ATOM     10  C   LIG    1       27.560 -16.961   3.961  0.00  0.00    +0.330 C 
ATOM     11  O   LIG    1       28.094 -17.913   4.492  0.00  0.00    -0.279 OA
ENDBRANCH   4   8
BRANCH   5  12
ATOM     12  O   LIG    1       29.474 -13.346   3.476  0.00  0.00    -0.505 OA
ATOM     13  H   LIG    1       29.888 -13.448   2.603  0.00  0.00    +0.292 HD
ENDBRANCH   5  12
ENDBRANCH   1   2
BRANCH   1  14
ATOM     14  O   LIG    1       23.365 -11.926   2.608  0.00  0.00    -0.386 OA
ATOM     15  H   LIG    1       24.055 -11.525   2.043  0.00  0.00    +0.210 HD
ENDBRANCH   1  14
BRANCH   1  16
ATOM     16  C   LIG    1       22.999 -13.856   4.038  0.00  0.00    +0.117 C 
BRANCH  16  17
ATOM     17  N   LIG    1       22.433 -15.181   3.711  0.00  0.00    -0.310 NA
ATOM     18  H   LIG    1       21.437 -15.058   3.500  0.00  0.00    +0.122 HD
BRANCH  17  19
ATOM     19  C   LIG    1       22.542 -16.158   4.820  0.00  0.00    +0.055 C 
ATOM     20  C   LIG    1       21.616 -15.656   5.939  0.00  0.00    +0.024 C 
BRANCH  19  21
ATOM     21  C   LIG    1       22.172 -17.593   4.378  0.00  0.00    +0.053 C 
BRANCH  21  25
ATOM     22  C   LIG    1       25.055 -20.619   5.428  0.00  0.00    +0.120 A 
ATOM     23  C   LIG    1       23.809 -20.575   6.054  0.00  0.00    +0.046 A 
ATOM     24  C   LIG    1       22.877 -19.602   5.712  0.00  0.00    +0.007 A 
ATOM     25  C   LIG    1       23.193 -18.634   4.758  0.00  0.00    -0.046 A 
ATOM     26  C   LIG    1       24.459 -18.649   4.158  0.00  0.00    +0.007 A 
ATOM     27  C   LIG    1       25.389 -19.636   4.494  0.00  0.00    +0.046 A 
BRANCH  22  29
ATOM     28  C   LIG    1       27.132 -21.085   6.417  0.00  0.00    +0.277 C 
ATOM     29  O   LIG    1       26.005 -21.571   5.689  0.00  0.00    -0.495 OA
ENDBRANCH  22  29
ENDBRANCH  21  25
ENDBRANCH  19  21
ENDBRANCH  17  19
ENDBRANCH  16  17
ENDBRANCH   1  16
TORSDOF 10
ENDMDL
