MODEL 1
REMARK VINA RESULT:      -6.7      0.000      0.000
REMARK  Name = *****
REMARK                            x       y       z     vdW  Elec       q    Type
REMARK                         _______ _______ _______ _____ _____    ______ ____
ROOT
ATOM      1  C   LIG    1       25.433 -28.181  13.024  0.00  0.00    +0.098 C 
ENDROOT
BRANCH   1   2
ATOM      2  C   LIG    1       26.301 -26.952  13.644  0.00  0.00    -0.028 A 
ATOM      3  C   LIG    1       26.754 -26.937  14.985  0.00  0.00    +0.005 A 
ATOM      4  C   LIG    1       27.563 -25.908  15.500  0.00  0.00    +0.000 A 
ATOM      5  C   LIG    1       27.939 -24.845  14.694  0.00  0.00    +0.000 A 
ATOM      6  C   LIG    1       27.484 -24.801  13.382  0.00  0.00    +0.000 A 
ATOM      7  C   LIG    1       26.652 -25.818  12.877  0.00  0.00    +0.005 A 
ENDBRANCH   1   2
BRANCH   1   8
ATOM      8  C   LIG    1       23.881 -27.871  13.051  0.00  0.00    -0.028 A 
ATOM      9  C   LIG    1       22.899 -28.747  12.556  0.00  0.00    +0.005 A 
ATOM     10  C   LIG    1       21.531 -28.447  12.504  0.00  0.00    +0.000 A 
ATOM     11  C   LIG    1       21.072 -27.261  13.037  0.00  0.00    +0.000 A 
ATOM     12  C   LIG    1       21.988 -26.389  13.608  0.00  0.00    +0.000 A 
ATOM     13  C   LIG    1       23.366 -26.673  13.586  0.00  0.00    +0.005 A 
ENDBRANCH   1   8
BRANCH   1  16
ATOM     14  C   LIG    1       27.266 -31.344  14.719  0.00  0.00    +0.131 C 
ATOM     15  N   LIG    1       27.120 -30.069  14.008  0.00  0.00    -0.307 N 
ATOM     16  C   LIG    1       25.804 -29.527  13.900  0.00  0.00    +0.230 C 
ATOM     17  O   LIG    1       24.910 -30.087  14.516  0.00  0.00    -0.274 OA
ATOM     18  C   LIG    1       28.397 -29.647  13.420  0.00  0.00    +0.131 C 
ENDBRANCH   1  16
BRANCH   1  19
ATOM     19  C   LIG    1       25.961 -28.439  11.556  0.00  0.00    +0.041 C 
BRANCH  19  20
ATOM     20  C   LIG    1       25.623 -29.778  10.845  0.00  0.00    +0.086 C 
BRANCH  20  21
ATOM     21  N   LIG    1       26.329 -29.921   9.543  0.00  0.00    -0.302 NA
ATOM     22  C   LIG    1       27.065 -31.195   9.415  0.00  0.00    +0.087 C 
ATOM     23  C   LIG    1       26.196 -32.423   9.125  0.00  0.00    +0.055 C 
ATOM     24  C   LIG    1       25.208 -32.228   7.951  0.00  0.00    +0.093 C 
ATOM     25  C   LIG    1       24.492 -30.871   8.130  0.00  0.00    +0.055 C 
ATOM     26  C   LIG    1       25.482 -29.726   8.363  0.00  0.00    +0.087 C 
BRANCH  24  27
ATOM     27  C   LIG    1       25.810 -32.444   6.556  0.00  0.00    -0.016 A 
ATOM     28  C   LIG    1       25.185 -31.963   5.387  0.00  0.00    +0.008 A 
ATOM     29  C   LIG    1       25.694 -32.227   4.114  0.00  0.00    +0.020 A 
ATOM     30  C   LIG    1       26.842 -32.992   3.978  0.00  0.00    +0.041 A 
ATOM     31 CL   LIG    1       27.456 -33.323   2.407  0.00  0.00    -0.084 Cl
ATOM     32  C   LIG    1       27.478 -33.501   5.106  0.00  0.00    +0.020 A 
ATOM     33  C   LIG    1       26.964 -33.234   6.382  0.00  0.00    +0.008 A 
ENDBRANCH  24  27
BRANCH  24  34
ATOM     34  O   LIG    1       24.235 -33.286   8.068  0.00  0.00    -0.384 OA
ATOM     35  H   LIG    1       23.714 -33.329   7.251  0.00  0.00    +0.211 HD
ENDBRANCH  24  34
ENDBRANCH  20  21
ENDBRANCH  19  20
ENDBRANCH   1  19
TORSDOF 8
ENDMDL
MODEL 2
REMARK VINA RESULT:      -6.5      4.943      8.408
REMARK  Name = *****
REMARK                            x       y       z     vdW  Elec       q    Type
REMARK                         _______ _______ _______ _____ _____    ______ ____
ROOT
ATOM      1  C   LIG    1       25.189 -30.264   7.820  0.00  0.00    +0.098 C 
ENDROOT
BRANCH   1   2
ATOM      2  C   LIG    1       23.905 -30.921   8.573  0.00  0.00    -0.028 A 
ATOM      3  C   LIG    1       23.450 -32.234   8.303  0.00  0.00    +0.005 A 
ATOM      4  C   LIG    1       22.383 -32.825   9.005  0.00  0.00    +0.000 A 
ATOM      5  C   LIG    1       21.720 -32.118   9.995  0.00  0.00    +0.000 A 
ATOM      6  C   LIG    1       22.109 -30.811  10.264  0.00  0.00    +0.000 A 
ATOM      7  C   LIG    1       23.159 -30.212   9.542  0.00  0.00    +0.005 A 
ENDBRANCH   1   2
BRANCH   1   8
ATOM      8  C   LIG    1       25.863 -31.286   6.817  0.00  0.00    -0.028 A 
ATOM      9  C   LIG    1       25.439 -31.477   5.490  0.00  0.00    +0.005 A 
ATOM     10  C   LIG    1       25.978 -32.435   4.621  0.00  0.00    +0.000 A 
ATOM     11  C   LIG    1       27.049 -33.201   5.031  0.00  0.00    +0.000 A 
ATOM     12  C   LIG    1       27.559 -33.004   6.306  0.00  0.00    +0.000 A 
ATOM     13  C   LIG    1       26.960 -32.089   7.190  0.00  0.00    +0.005 A 
ENDBRANCH   1   8
BRANCH   1  16
ATOM     14  C   LIG    1       27.410 -29.917  11.164  0.00  0.00    +0.131 C 
ATOM     15  N   LIG    1       26.557 -30.546  10.151  0.00  0.00    -0.307 N 
ATOM     16  C   LIG    1       26.239 -29.774   8.992  0.00  0.00    +0.230 C 
ATOM     17  O   LIG    1       26.804 -28.699   8.858  0.00  0.00    -0.274 OA
ATOM     18  C   LIG    1       26.079 -31.857  10.606  0.00  0.00    +0.131 C 
ENDBRANCH   1  16
BRANCH   1  19
ATOM     19  C   LIG    1       24.689 -28.956   7.087  0.00  0.00    +0.041 C 
BRANCH  19  20
ATOM     20  C   LIG    1       25.215 -28.627   5.664  0.00  0.00    +0.086 C 
BRANCH  20  21
ATOM     21  N   LIG    1       26.031 -27.382   5.635  0.00  0.00    -0.302 NA
ATOM     22  C   LIG    1       25.629 -26.443   4.569  0.00  0.00    +0.087 C 
ATOM     23  C   LIG    1       24.351 -25.647   4.849  0.00  0.00    +0.055 C 
ATOM     24  C   LIG    1       24.332 -24.959   6.234  0.00  0.00    +0.093 C 
ATOM     25  C   LIG    1       24.785 -25.983   7.299  0.00  0.00    +0.055 C 
ATOM     26  C   LIG    1       26.100 -26.667   6.914  0.00  0.00    +0.087 C 
BRANCH  24  27
ATOM     27  C   LIG    1       25.069 -23.615   6.299  0.00  0.00    -0.016 A 
ATOM     28  C   LIG    1       24.802 -22.568   5.393  0.00  0.00    +0.008 A 
ATOM     29  C   LIG    1       25.528 -21.376   5.405  0.00  0.00    +0.020 A 
ATOM     30  C   LIG    1       26.553 -21.205   6.322  0.00  0.00    +0.041 A 
ATOM     31 CL   LIG    1       27.450 -19.739   6.323  0.00  0.00    -0.084 Cl
ATOM     32  C   LIG    1       26.861 -22.221   7.221  0.00  0.00    +0.020 A 
ATOM     33  C   LIG    1       26.129 -23.417   7.206  0.00  0.00    +0.008 A 
ENDBRANCH  24  27
BRANCH  24  34
ATOM     34  O   LIG    1       22.957 -24.605   6.485  0.00  0.00    -0.384 OA
ATOM     35  H   LIG    1       22.419 -25.413   6.494  0.00  0.00    +0.211 HD
ENDBRANCH  24  34
ENDBRANCH  20  21
ENDBRANCH  19  20
ENDBRANCH   1  19
TORSDOF 8
ENDMDL
MODEL 3
REMARK VINA RESULT:      -6.5      4.713      8.552
REMARK  Name = *****
REMARK                            x       y       z     vdW  Elec       q    Type
REMARK                         _______ _______ _______ _____ _____    ______ ____
ROOT
ATOM      1  C   LIG    1       25.296 -31.293   7.089  0.00  0.00    +0.098 C 
ENDROOT
BRANCH   1   2
ATOM      2  C   LIG    1       26.356 -32.246   6.304  0.00  0.00    -0.028 A 
ATOM      3  C   LIG    1       26.178 -32.640   4.956  0.00  0.00    +0.005 A 
ATOM      4  C   LIG    1       27.129 -33.405   4.258  0.00  0.00    +0.000 A 
ATOM      5  C   LIG    1       28.292 -33.821   4.889  0.00  0.00    +0.000 A 
ATOM      6  C   LIG    1       28.488 -33.490   6.224  0.00  0.00    +0.000 A 
ATOM      7  C   LIG    1       27.521 -32.747   6.928  0.00  0.00    +0.005 A 
ENDBRANCH   1   2
BRANCH   1   8
ATOM      8  C   LIG    1       25.979 -30.530   8.296  0.00  0.00    -0.028 A 
ATOM      9  C   LIG    1       25.917 -29.137   8.477  0.00  0.00    +0.005 A 
ATOM     10  C   LIG    1       26.584 -28.446   9.496  0.00  0.00    +0.000 A 
ATOM     11  C   LIG    1       27.289 -29.150  10.450  0.00  0.00    +0.000 A 
ATOM     12  C   LIG    1       27.323 -30.535  10.365  0.00  0.00    +0.000 A 
ATOM     13  C   LIG    1       26.708 -31.207   9.294  0.00  0.00    +0.005 A 
ENDBRANCH   1   8
BRANCH   1  16
ATOM     14  C   LIG    1       22.222 -32.955   9.095  0.00  0.00    +0.131 C 
ATOM     15  N   LIG    1       23.191 -31.934   8.682  0.00  0.00    -0.307 N 
ATOM     16  C   LIG    1       24.060 -32.258   7.596  0.00  0.00    +0.230 C 
ATOM     17  O   LIG    1       23.852 -33.304   6.999  0.00  0.00    -0.274 OA
ATOM     18  C   LIG    1       23.154 -30.778   9.586  0.00  0.00    +0.131 C 
ENDBRANCH   1  16
BRANCH   1  19
ATOM     19  C   LIG    1       24.682 -30.296   6.027  0.00  0.00    +0.041 C 
BRANCH  19  20
ATOM     20  C   LIG    1       25.614 -29.311   5.272  0.00  0.00    +0.086 C 
BRANCH  20  21
ATOM     21  N   LIG    1       24.888 -28.110   4.777  0.00  0.00    -0.302 NA
ATOM     22  C   LIG    1       23.818 -27.657   5.689  0.00  0.00    +0.087 C 
ATOM     23  C   LIG    1       24.297 -26.904   6.933  0.00  0.00    +0.055 C 
ATOM     24  C   LIG    1       25.293 -25.760   6.629  0.00  0.00    +0.093 C 
ATOM     25  C   LIG    1       26.368 -26.289   5.654  0.00  0.00    +0.055 C 
ATOM     26  C   LIG    1       25.748 -26.973   4.433  0.00  0.00    +0.087 C 
BRANCH  24  27
ATOM     27  C   LIG    1       24.645 -24.437   6.195  0.00  0.00    -0.016 A 
ATOM     28  C   LIG    1       25.247 -23.582   5.251  0.00  0.00    +0.008 A 
ATOM     29  C   LIG    1       24.695 -22.344   4.916  0.00  0.00    +0.020 A 
ATOM     30  C   LIG    1       23.526 -21.925   5.531  0.00  0.00    +0.041 A 
ATOM     31 CL   LIG    1       22.859 -20.394   5.122  0.00  0.00    -0.084 Cl
ATOM     32  C   LIG    1       22.911 -22.731   6.482  0.00  0.00    +0.020 A 
ATOM     33  C   LIG    1       23.468 -23.974   6.815  0.00  0.00    +0.008 A 
ENDBRANCH  24  27
BRANCH  24  34
ATOM     34  O   LIG    1       25.923 -25.434   7.884  0.00  0.00    -0.384 OA
ATOM     35  H   LIG    1       25.269 -25.515   8.596  0.00  0.00    +0.211 HD
ENDBRANCH  24  34
ENDBRANCH  20  21
ENDBRANCH  19  20
ENDBRANCH   1  19
TORSDOF 8
ENDMDL
MODEL 4
REMARK VINA RESULT:      -6.3      2.820      4.332
REMARK  Name = *****
REMARK                            x       y       z     vdW  Elec       q    Type
REMARK                         _______ _______ _______ _____ _____    ______ ____
ROOT
ATOM      1  C   LIG    1       21.721 -30.751  12.341  0.00  0.00    +0.098 C 
ENDROOT
BRANCH   1   2
ATOM      2  C   LIG    1       21.908 -29.178  12.716  0.00  0.00    -0.028 A 
ATOM      3  C   LIG    1       23.171 -28.606  13.000  0.00  0.00    +0.005 A 
ATOM      4  C   LIG    1       23.340 -27.233  13.255  0.00  0.00    +0.000 A 
ATOM      5  C   LIG    1       22.246 -26.381  13.251  0.00  0.00    +0.000 A 
ATOM      6  C   LIG    1       20.983 -26.909  13.016  0.00  0.00    +0.000 A 
ATOM      7  C   LIG    1       20.813 -28.288  12.787  0.00  0.00    +0.005 A 
ENDBRANCH   1   2
BRANCH   1   8
ATOM      8  C   LIG    1       20.241 -31.069  11.877  0.00  0.00    -0.028 A 
ATOM      9  C   LIG    1       19.808 -31.003  10.541  0.00  0.00    +0.005 A 
ATOM     10  C   LIG    1       18.483 -31.206  10.133  0.00  0.00    +0.000 A 
ATOM     11  C   LIG    1       17.532 -31.575  11.061  0.00  0.00    +0.000 A 
ATOM     12  C   LIG    1       17.919 -31.729  12.385  0.00  0.00    +0.000 A 
ATOM     13  C   LIG    1       19.237 -31.451  12.789  0.00  0.00    +0.005 A 
ENDBRANCH   1   8
BRANCH   1  16
ATOM     14  C   LIG    1       22.897 -33.630  14.903  0.00  0.00    +0.131 C 
ATOM     15  N   LIG    1       22.693 -32.939  13.625  0.00  0.00    -0.307 N 
ATOM     16  C   LIG    1       22.144 -31.621  13.675  0.00  0.00    +0.230 C 
ATOM     17  O   LIG    1       22.007 -31.108  14.776  0.00  0.00    -0.274 OA
ATOM     18  C   LIG    1       22.994 -33.824  12.494  0.00  0.00    +0.131 C 
ENDBRANCH   1  16
BRANCH   1  19
ATOM     19  C   LIG    1       22.781 -31.099  11.221  0.00  0.00    +0.041 C 
BRANCH  19  20
ATOM     20  C   LIG    1       23.155 -30.029  10.160  0.00  0.00    +0.086 C 
BRANCH  20  21
ATOM     21  N   LIG    1       23.238 -30.597   8.787  0.00  0.00    -0.302 NA
ATOM     22  C   LIG    1       24.024 -29.765   7.855  0.00  0.00    +0.087 C 
ATOM     23  C   LIG    1       25.544 -29.851   8.026  0.00  0.00    +0.055 C 
ATOM     24  C   LIG    1       26.087 -31.299   8.075  0.00  0.00    +0.093 C 
ATOM     25  C   LIG    1       25.209 -32.122   9.044  0.00  0.00    +0.055 C 
ATOM     26  C   LIG    1       23.718 -31.982   8.727  0.00  0.00    +0.087 C 
BRANCH  24  27
ATOM     27  C   LIG    1       26.300 -31.956   6.705  0.00  0.00    -0.016 A 
ATOM     28  C   LIG    1       27.223 -33.003   6.510  0.00  0.00    +0.008 A 
ATOM     29  C   LIG    1       27.471 -33.547   5.249  0.00  0.00    +0.020 A 
ATOM     30  C   LIG    1       26.804 -33.045   4.142  0.00  0.00    +0.041 A 
ATOM     31 CL   LIG    1       27.123 -33.711   2.590  0.00  0.00    -0.084 Cl
ATOM     32  C   LIG    1       25.899 -32.000   4.288  0.00  0.00    +0.020 A 
ATOM     33  C   LIG    1       25.653 -31.457   5.557  0.00  0.00    +0.008 A 
ENDBRANCH  24  27
BRANCH  24  34
ATOM     34  O   LIG    1       27.419 -31.207   8.619  0.00  0.00    -0.384 OA
ATOM     35  H   LIG    1       27.381 -31.360   9.576  0.00  0.00    +0.211 HD
ENDBRANCH  24  34
ENDBRANCH  20  21
ENDBRANCH  19  20
ENDBRANCH   1  19
TORSDOF 8
ENDMDL
MODEL 5
REMARK VINA RESULT:      -6.2      4.648      7.138
REMARK  Name = *****
REMARK                            x       y       z     vdW  Elec       q    Type
REMARK                         _______ _______ _______ _____ _____    ______ ____
ROOT
ATOM      1  C   LIG    1       25.223 -31.475   8.923  0.00  0.00    +0.098 C 
ENDROOT
BRANCH   1   2
ATOM      2  C   LIG    1       25.726 -30.351   9.986  0.00  0.00    -0.028 A 
ATOM      3  C   LIG    1       27.090 -30.003  10.142  0.00  0.00    +0.005 A 
ATOM      4  C   LIG    1       27.516 -28.982  11.010  0.00  0.00    +0.000 A 
ATOM      5  C   LIG    1       26.594 -28.279  11.770  0.00  0.00    +0.000 A 
ATOM      6  C   LIG    1       25.249 -28.616  11.676  0.00  0.00    +0.000 A 
ATOM      7  C   LIG    1       24.827 -29.656  10.826  0.00  0.00    +0.005 A 
ENDBRANCH   1   2
BRANCH   1   8
ATOM      8  C   LIG    1       24.023 -32.330   9.501  0.00  0.00    -0.028 A 
ATOM      9  C   LIG    1       22.781 -32.473   8.858  0.00  0.00    +0.005 A 
ATOM     10  C   LIG    1       21.688 -33.162   9.400  0.00  0.00    +0.000 A 
ATOM     11  C   LIG    1       21.828 -33.824  10.601  0.00  0.00    +0.000 A 
ATOM     12  C   LIG    1       23.055 -33.781  11.247  0.00  0.00    +0.000 A 
ATOM     13  C   LIG    1       24.119 -33.024  10.724  0.00  0.00    +0.005 A 
ENDBRANCH   1   8
BRANCH   1  16
ATOM     14  C   LIG    1       27.947 -33.825   7.108  0.00  0.00    +0.131 C 
ATOM     15  N   LIG    1       26.824 -32.891   7.246  0.00  0.00    -0.307 N 
ATOM     16  C   LIG    1       26.526 -32.417   8.560  0.00  0.00    +0.230 C 
ATOM     17  O   LIG    1       27.302 -32.712   9.456  0.00  0.00    -0.274 OA
ATOM     18  C   LIG    1       26.126 -32.716   5.967  0.00  0.00    +0.131 C 
ENDBRANCH   1  16
BRANCH   1  19
ATOM     19  C   LIG    1       24.826 -30.722   7.590  0.00  0.00    +0.041 C 
BRANCH  19  20
ATOM     20  C   LIG    1       25.701 -29.542   7.087  0.00  0.00    +0.086 C 
BRANCH  20  21
ATOM     21  N   LIG    1       25.240 -28.230   7.617  0.00  0.00    -0.302 NA
ATOM     22  C   LIG    1       26.287 -27.189   7.595  0.00  0.00    +0.087 C 
ATOM     23  C   LIG    1       26.572 -26.579   6.219  0.00  0.00    +0.055 C 
ATOM     24  C   LIG    1       25.304 -26.111   5.467  0.00  0.00    +0.093 C 
ATOM     25  C   LIG    1       24.242 -27.230   5.548  0.00  0.00    +0.055 C 
ATOM     26  C   LIG    1       24.022 -27.709   6.986  0.00  0.00    +0.087 C 
BRANCH  24  27
ATOM     27  C   LIG    1       24.789 -24.722   5.870  0.00  0.00    -0.016 A 
ATOM     28  C   LIG    1       25.621 -23.584   5.867  0.00  0.00    +0.008 A 
ATOM     29  C   LIG    1       25.171 -22.339   6.308  0.00  0.00    +0.020 A 
ATOM     30  C   LIG    1       23.874 -22.202   6.775  0.00  0.00    +0.041 A 
ATOM     31 CL   LIG    1       23.331 -20.668   7.327  0.00  0.00    -0.084 Cl
ATOM     32  C   LIG    1       23.027 -23.305   6.811  0.00  0.00    +0.020 A 
ATOM     33  C   LIG    1       23.482 -24.555   6.367  0.00  0.00    +0.008 A 
ENDBRANCH  24  27
BRANCH  24  34
ATOM     34  O   LIG    1       25.697 -25.942   4.090  0.00  0.00    -0.384 OA
ATOM     35  H   LIG    1       24.943 -26.155   3.518  0.00  0.00    +0.211 HD
ENDBRANCH  24  34
ENDBRANCH  20  21
ENDBRANCH  19  20
ENDBRANCH   1  19
TORSDOF 8
ENDMDL
MODEL 6
REMARK VINA RESULT:      -6.1      5.525      8.752
REMARK  Name = *****
REMARK                            x       y       z     vdW  Elec       q    Type
REMARK                         _______ _______ _______ _____ _____    ______ ____
ROOT
ATOM      1  C   LIG    1       25.074 -30.002   7.690  0.00  0.00    +0.098 C 
ENDROOT
BRANCH   1   2
ATOM      2  C   LIG    1       23.867 -30.693   8.534  0.00  0.00    -0.028 A 
ATOM      3  C   LIG    1       23.404 -32.005   8.271  0.00  0.00    +0.005 A 
ATOM      4  C   LIG    1       22.409 -32.626   9.047  0.00  0.00    +0.000 A 
ATOM      5  C   LIG    1       21.827 -31.952  10.109  0.00  0.00    +0.000 A 
ATOM      6  C   LIG    1       22.225 -30.648  10.377  0.00  0.00    +0.000 A 
ATOM      7  C   LIG    1       23.202 -30.018   9.583  0.00  0.00    +0.005 A 
ENDBRANCH   1   2
BRANCH   1   8
ATOM      8  C   LIG    1       25.785 -31.041   6.730  0.00  0.00    -0.028 A 
ATOM      9  C   LIG    1       25.477 -31.185   5.366  0.00  0.00    +0.005 A 
ATOM     10  C   LIG    1       26.044 -32.155   4.529  0.00  0.00    +0.000 A 
ATOM     11  C   LIG    1       27.031 -32.985   5.018  0.00  0.00    +0.000 A 
ATOM     12  C   LIG    1       27.430 -32.839   6.340  0.00  0.00    +0.000 A 
ATOM     13  C   LIG    1       26.798 -31.909   7.185  0.00  0.00    +0.005 A 
ENDBRANCH   1   8
BRANCH   1  16
ATOM     14  C   LIG    1       27.451 -29.318  10.871  0.00  0.00    +0.131 C 
ATOM     15  N   LIG    1       26.622 -30.068   9.922  0.00  0.00    -0.307 N 
ATOM     16  C   LIG    1       26.127 -29.361   8.784  0.00  0.00    +0.230 C 
ATOM     17  O   LIG    1       26.532 -28.222   8.607  0.00  0.00    -0.274 OA
ATOM     18  C   LIG    1       26.356 -31.425  10.414  0.00  0.00    +0.131 C 
ENDBRANCH   1  16
BRANCH   1  19
ATOM     19  C   LIG    1       24.457 -28.784   6.892  0.00  0.00    +0.041 C 
BRANCH  19  20
ATOM     20  C   LIG    1       25.376 -27.907   6.000  0.00  0.00    +0.086 C 
BRANCH  20  21
ATOM     21  N   LIG    1       24.630 -26.814   5.320  0.00  0.00    -0.302 NA
ATOM     22  C   LIG    1       23.625 -26.165   6.186  0.00  0.00    +0.087 C 
ATOM     23  C   LIG    1       24.190 -25.190   7.223  0.00  0.00    +0.055 C 
ATOM     24  C   LIG    1       25.174 -24.151   6.635  0.00  0.00    +0.093 C 
ATOM     25  C   LIG    1       26.180 -24.887   5.722  0.00  0.00    +0.055 C 
ATOM     26  C   LIG    1       25.477 -25.788   4.703  0.00  0.00    +0.087 C 
BRANCH  24  27
ATOM     27  C   LIG    1       24.512 -22.928   5.986  0.00  0.00    -0.016 A 
ATOM     28  C   LIG    1       25.158 -22.163   4.994  0.00  0.00    +0.008 A 
ATOM     29  C   LIG    1       24.585 -21.008   4.461  0.00  0.00    +0.020 A 
ATOM     30  C   LIG    1       23.350 -20.579   4.919  0.00  0.00    +0.041 A 
ATOM     31 CL   LIG    1       22.656 -19.148   4.266  0.00  0.00    -0.084 Cl
ATOM     32  C   LIG    1       22.687 -21.294   5.910  0.00  0.00    +0.020 A 
ATOM     33  C   LIG    1       23.265 -22.455   6.443  0.00  0.00    +0.008 A 
ENDBRANCH  24  27
BRANCH  24  34
ATOM     34  O   LIG    1       25.886 -23.595   7.759  0.00  0.00    -0.384 OA
ATOM     35  H   LIG    1       26.248 -22.730   7.508  0.00  0.00    +0.211 HD
ENDBRANCH  24  34
ENDBRANCH  20  21
ENDBRANCH  19  20
ENDBRANCH   1  19
TORSDOF 8
ENDMDL
MODEL 7
REMARK VINA RESULT:      -6.1      3.934      8.150
REMARK  Name = *****
REMARK                            x       y       z     vdW  Elec       q    Type
REMARK                         _______ _______ _______ _____ _____    ______ ____
ROOT
ATOM      1  C   LIG    1       25.500 -30.299   9.868  0.00  0.00    +0.098 C 
ENDROOT
BRANCH   1   2
ATOM      2  C   LIG    1       25.360 -29.320   8.576  0.00  0.00    -0.028 A 
ATOM      3  C   LIG    1       24.364 -29.498   7.586  0.00  0.00    +0.005 A 
ATOM      4  C   LIG    1       24.201 -28.610   6.508  0.00  0.00    +0.000 A 
ATOM      5  C   LIG    1       25.039 -27.515   6.370  0.00  0.00    +0.000 A 
ATOM      6  C   LIG    1       26.056 -27.325   7.298  0.00  0.00    +0.000 A 
ATOM      7  C   LIG    1       26.235 -28.230   8.362  0.00  0.00    +0.005 A 
ENDBRANCH   1   2
BRANCH   1   8
ATOM      8  C   LIG    1       25.893 -29.493  11.172  0.00  0.00    -0.028 A 
ATOM      9  C   LIG    1       25.902 -30.050  12.464  0.00  0.00    +0.005 A 
ATOM     10  C   LIG    1       26.170 -29.324  13.631  0.00  0.00    +0.000 A 
ATOM     11  C   LIG    1       26.534 -27.997  13.541  0.00  0.00    +0.000 A 
ATOM     12  C   LIG    1       26.616 -27.413  12.285  0.00  0.00    +0.000 A 
ATOM     13  C   LIG    1       26.272 -28.137  11.129  0.00  0.00    +0.005 A 
ENDBRANCH   1   8
BRANCH   1  16
ATOM     14  C   LIG    1       27.439 -33.570   8.532  0.00  0.00    +0.131 C 
ATOM     15  N   LIG    1       26.366 -32.578   8.668  0.00  0.00    -0.307 N 
ATOM     16  C   LIG    1       26.628 -31.440   9.491  0.00  0.00    +0.230 C 
ATOM     17  O   LIG    1       27.766 -31.301   9.915  0.00  0.00    -0.274 OA
ATOM     18  C   LIG    1       25.141 -33.033   8.000  0.00  0.00    +0.131 C 
ENDBRANCH   1  16
BRANCH   1  19
ATOM     19  C   LIG    1       24.126 -31.063  10.033  0.00  0.00    +0.041 C 
BRANCH  19  20
ATOM     20  C   LIG    1       23.649 -31.483  11.450  0.00  0.00    +0.086 C 
BRANCH  20  21
ATOM     21  N   LIG    1       22.241 -31.081  11.716  0.00  0.00    -0.302 NA
ATOM     22  C   LIG    1       21.817 -31.321  13.110  0.00  0.00    +0.087 C 
ATOM     23  C   LIG    1       22.342 -30.310  14.134  0.00  0.00    +0.055 C 
ATOM     24  C   LIG    1       22.118 -28.834  13.728  0.00  0.00    +0.093 C 
ATOM     25  C   LIG    1       22.555 -28.656  12.257  0.00  0.00    +0.055 C 
ATOM     26  C   LIG    1       21.917 -29.702  11.338  0.00  0.00    +0.087 C 
BRANCH  24  27
ATOM     27  C   LIG    1       20.720 -28.282  14.041  0.00  0.00    -0.016 A 
ATOM     28  C   LIG    1       20.275 -27.041  13.544  0.00  0.00    +0.008 A 
ATOM     29  C   LIG    1       19.034 -26.506  13.893  0.00  0.00    +0.020 A 
ATOM     30  C   LIG    1       18.208 -27.199  14.764  0.00  0.00    +0.041 A 
ATOM     31 CL   LIG    1       16.686 -26.528  15.199  0.00  0.00    -0.084 Cl
ATOM     32  C   LIG    1       18.618 -28.418  15.291  0.00  0.00    +0.020 A 
ATOM     33  C   LIG    1       19.865 -28.953  14.938  0.00  0.00    +0.008 A 
ENDBRANCH  24  27
BRANCH  24  34
ATOM     34  O   LIG    1       22.989 -28.052  14.569  0.00  0.00    -0.384 OA
ATOM     35  H   LIG    1       23.861 -28.475  14.602  0.00  0.00    +0.211 HD
ENDBRANCH  24  34
ENDBRANCH  20  21
ENDBRANCH  19  20
ENDBRANCH   1  19
TORSDOF 8
ENDMDL
MODEL 8
REMARK VINA RESULT:      -5.8      4.906      7.669
REMARK  Name = *****
REMARK                            x       y       z     vdW  Elec       q    Type
REMARK                         _______ _______ _______ _____ _____    ______ ____
ROOT
ATOM      1  C   LIG    1       24.911 -30.447   8.091  0.00  0.00    +0.098 C 
ENDROOT
BRANCH   1   2
ATOM      2  C   LIG    1       26.020 -29.968   9.181  0.00  0.00    -0.028 A 
ATOM      3  C   LIG    1       26.175 -28.615   9.569  0.00  0.00    +0.005 A 
ATOM      4  C   LIG    1       27.086 -28.212  10.563  0.00  0.00    +0.000 A 
ATOM      5  C   LIG    1       27.890 -29.148  11.195  0.00  0.00    +0.000 A 
ATOM      6  C   LIG    1       27.798 -30.481  10.816  0.00  0.00    +0.000 A 
ATOM      7  C   LIG    1       26.905 -30.878   9.803  0.00  0.00    +0.005 A 
ENDBRANCH   1   2
BRANCH   1   8
ATOM      8  C   LIG    1       23.661 -31.124   8.789  0.00  0.00    -0.028 A 
ATOM      9  C   LIG    1       22.776 -30.442   9.642  0.00  0.00    +0.005 A 
ATOM     10  C   LIG    1       21.716 -31.051  10.325  0.00  0.00    +0.000 A 
ATOM     11  C   LIG    1       21.441 -32.385  10.108  0.00  0.00    +0.000 A 
ATOM     12  C   LIG    1       22.236 -33.092   9.217  0.00  0.00    +0.000 A 
ATOM     13  C   LIG    1       23.341 -32.483   8.596  0.00  0.00    +0.005 A 
ENDBRANCH   1   8
BRANCH   1  16
ATOM     14  C   LIG    1       25.788 -33.139   5.224  0.00  0.00    +0.131 C 
ATOM     15  N   LIG    1       25.008 -32.152   5.978  0.00  0.00    -0.307 N 
ATOM     16  C   LIG    1       25.666 -31.481   7.053  0.00  0.00    +0.230 C 
ATOM     17  O   LIG    1       26.866 -31.673   7.189  0.00  0.00    -0.274 OA
ATOM     18  C   LIG    1       23.609 -32.138   5.535  0.00  0.00    +0.131 C 
ENDBRANCH   1  16
BRANCH   1  19
ATOM     19  C   LIG    1       24.502 -29.177   7.243  0.00  0.00    +0.041 C 
BRANCH  19  20
ATOM     20  C   LIG    1       25.189 -28.914   5.876  0.00  0.00    +0.086 C 
BRANCH  20  21
ATOM     21  N   LIG    1       26.047 -27.699   5.899  0.00  0.00    -0.302 NA
ATOM     22  C   LIG    1       25.854 -26.824   4.725  0.00  0.00    +0.087 C 
ATOM     23  C   LIG    1       24.579 -25.974   4.749  0.00  0.00    +0.055 C 
ATOM     24  C   LIG    1       24.372 -25.193   6.068  0.00  0.00    +0.093 C 
ATOM     25  C   LIG    1       24.613 -26.154   7.253  0.00  0.00    +0.055 C 
ATOM     26  C   LIG    1       25.944 -26.900   7.125  0.00  0.00    +0.087 C 
BRANCH  24  27
ATOM     27  C   LIG    1       25.142 -23.869   6.163  0.00  0.00    -0.016 A 
ATOM     28  C   LIG    1       26.154 -23.657   7.121  0.00  0.00    +0.008 A 
ATOM     29  C   LIG    1       26.799 -22.428   7.257  0.00  0.00    +0.020 A 
ATOM     30  C   LIG    1       26.437 -21.368   6.440  0.00  0.00    +0.041 A 
ATOM     31 CL   LIG    1       27.228 -19.853   6.620  0.00  0.00    -0.084 Cl
ATOM     32  C   LIG    1       25.431 -21.530   5.494  0.00  0.00    +0.020 A 
ATOM     33  C   LIG    1       24.785 -22.767   5.360  0.00  0.00    +0.008 A 
ENDBRANCH  24  27
BRANCH  24  34
ATOM     34  O   LIG    1       22.989 -24.783   6.075  0.00  0.00    -0.384 OA
ATOM     35  H   LIG    1       22.513 -25.265   5.380  0.00  0.00    +0.211 HD
ENDBRANCH  24  34
ENDBRANCH  20  21
ENDBRANCH  19  20
ENDBRANCH   1  19
TORSDOF 8
ENDMDL
MODEL 9
REMARK VINA RESULT:      -5.7      4.037      5.663
REMARK  Name = *****
REMARK                            x       y       z     vdW  Elec       q    Type
REMARK                         _______ _______ _______ _____ _____    ______ ____
ROOT
ATOM      1  C   LIG    1       25.050 -31.285  10.933  0.00  0.00    +0.098 C 
ENDROOT
BRANCH   1   2
ATOM      2  C   LIG    1       25.505 -29.926  11.704  0.00  0.00    -0.028 A 
ATOM      3  C   LIG    1       26.863 -29.591  11.924  0.00  0.00    +0.005 A 
ATOM      4  C   LIG    1       27.256 -28.383  12.528  0.00  0.00    +0.000 A 
ATOM      5  C   LIG    1       26.303 -27.470  12.951  0.00  0.00    +0.000 A 
ATOM      6  C   LIG    1       24.958 -27.777  12.790  0.00  0.00    +0.000 A 
ATOM      7  C   LIG    1       24.566 -28.999  12.209  0.00  0.00    +0.005 A 
ENDBRANCH   1   2
BRANCH   1   8
ATOM      8  C   LIG    1       23.488 -31.314  10.674  0.00  0.00    -0.028 A 
ATOM      9  C   LIG    1       22.638 -30.215  10.887  0.00  0.00    +0.005 A 
ATOM     10  C   LIG    1       21.246 -30.256  10.737  0.00  0.00    +0.000 A 
ATOM     11  C   LIG    1       20.644 -31.407  10.271  0.00  0.00    +0.000 A 
ATOM     12  C   LIG    1       21.442 -32.502   9.972  0.00  0.00    +0.000 A 
ATOM     13  C   LIG    1       22.830 -32.466  10.199  0.00  0.00    +0.005 A 
ENDBRANCH   1   8
BRANCH   1  16
ATOM     14  C   LIG    1       25.842 -33.820  13.964  0.00  0.00    +0.131 C 
ATOM     15  N   LIG    1       25.225 -32.699  13.247  0.00  0.00    -0.307 N 
ATOM     16  C   LIG    1       25.539 -32.556  11.861  0.00  0.00    +0.230 C 
ATOM     17  O   LIG    1       26.191 -33.447  11.335  0.00  0.00    -0.274 OA
ATOM     18  C   LIG    1       24.468 -31.840  14.165  0.00  0.00    +0.131 C 
ENDBRANCH   1  16
BRANCH   1  19
ATOM     19  C   LIG    1       25.876 -31.365   9.587  0.00  0.00    +0.041 C 
BRANCH  19  20
ATOM     20  C   LIG    1       25.300 -30.723   8.296  0.00  0.00    +0.086 C 
BRANCH  20  21
ATOM     21  N   LIG    1       24.796 -29.342   8.526  0.00  0.00    -0.302 NA
ATOM     22  C   LIG    1       25.871 -28.362   8.783  0.00  0.00    +0.087 C 
ATOM     23  C   LIG    1       26.653 -27.914   7.545  0.00  0.00    +0.055 C 
ATOM     24  C   LIG    1       25.758 -27.464   6.366  0.00  0.00    +0.093 C 
ATOM     25  C   LIG    1       24.642 -28.515   6.167  0.00  0.00    +0.055 C 
ATOM     26  C   LIG    1       23.911 -28.831   7.474  0.00  0.00    +0.087 C 
BRANCH  24  27
ATOM     27  C   LIG    1       25.252 -26.017   6.453  0.00  0.00    -0.016 A 
ATOM     28  C   LIG    1       26.066 -24.966   6.921  0.00  0.00    +0.008 A 
ATOM     29  C   LIG    1       25.580 -23.666   7.073  0.00  0.00    +0.020 A 
ATOM     30  C   LIG    1       24.257 -23.387   6.768  0.00  0.00    +0.041 A 
ATOM     31 CL   LIG    1       23.663 -21.787   6.968  0.00  0.00    -0.084 Cl
ATOM     32  C   LIG    1       23.416 -24.401   6.321  0.00  0.00    +0.020 A 
ATOM     33  C   LIG    1       23.908 -25.705   6.170  0.00  0.00    +0.008 A 
ENDBRANCH  24  27
BRANCH  24  34
ATOM     34  O   LIG    1       26.605 -27.458   5.200  0.00  0.00    -0.384 OA
ATOM     35  H   LIG    1       27.211 -28.215   5.246  0.00  0.00    +0.211 HD
ENDBRANCH  24  34
ENDBRANCH  20  21
ENDBRANCH  19  20
ENDBRANCH   1  19
TORSDOF 8
ENDMDL
