MODEL 1
REMARK VINA RESULT:       3.9      0.000      0.000
REMARK  Name = *****
REMARK                            x       y       z     vdW  Elec       q    Type
REMARK                         _______ _______ _______ _____ _____    ______ ____
ROOT
ATOM      1  N   LIG    1       22.717 -17.503   4.136  0.00  0.00    -0.296 NA
ATOM      2  C   LIG    1       23.084 -18.505   3.112  0.00  0.00    +0.100 C 
ATOM      3  C   LIG    1       24.578 -18.497   2.700  0.00  0.00    +0.100 C 
ATOM      4  N   LIG    1       25.544 -18.626   3.823  0.00  0.00    -0.289 NA
ATOM      5  C   LIG    1       25.158 -17.627   4.851  0.00  0.00    +0.100 C 
ATOM      6  C   LIG    1       23.667 -17.627   5.263  0.00  0.00    +0.100 C 
ENDROOT
BRANCH   1   7
ATOM      7  C   LIG    1       22.705 -16.131   3.601  0.00  0.00    +0.112 C 
BRANCH   7   8
ATOM      8  C   LIG    1       23.905 -15.337   4.033  0.00  0.00    -0.011 C 
ATOM      9  C   LIG    1       24.968 -15.028   3.260  0.00  0.00    +0.005 C 
BRANCH   9  10
ATOM     10  C   LIG    1       26.116 -14.264   3.774  0.00  0.00    -0.025 A 
ATOM     11  C   LIG    1       26.090 -13.764   5.086  0.00  0.00    +0.008 A 
ATOM     12  C   LIG    1       27.167 -13.021   5.579  0.00  0.00    +0.001 A 
ATOM     13  C   LIG    1       28.284 -12.783   4.781  0.00  0.00    +0.000 A 
ATOM     14  C   LIG    1       28.328 -13.292   3.486  0.00  0.00    +0.001 A 
ATOM     15  C   LIG    1       27.257 -14.035   2.994  0.00  0.00    +0.008 A 
ENDBRANCH   9  10
ENDBRANCH   7   8
ENDBRANCH   1   7
BRANCH   4  16
ATOM     16  C   LIG    1       25.621 -20.029   4.343  0.00  0.00    +0.117 C 
BRANCH  16  17
ATOM     17  C   LIG    1       24.333 -20.540   5.014  0.00  0.00    -0.026 A 
ATOM     18  C   LIG    1       23.221 -20.989   4.278  0.00  0.00    +0.005 A 
ATOM     19  C   LIG    1       22.096 -21.509   4.922  0.00  0.00    +0.000 A 
ATOM     20  C   LIG    1       22.040 -21.540   6.314  0.00  0.00    +0.000 A 
ATOM     21  C   LIG    1       23.105 -21.043   7.062  0.00  0.00    +0.000 A 
ATOM     22  C   LIG    1       24.242 -20.547   6.418  0.00  0.00    +0.005 A 
ENDBRANCH  16  17
BRANCH  16  23
ATOM     23  C   LIG    1       26.810 -20.223   5.299  0.00  0.00    -0.026 A 
ATOM     24  C   LIG    1       27.936 -19.382   5.245  0.00  0.00    +0.005 A 
ATOM     25  C   LIG    1       29.033 -19.599   6.081  0.00  0.00    +0.000 A 
ATOM     26  C   LIG    1       29.023 -20.660   6.985  0.00  0.00    +0.000 A 
ATOM     27  C   LIG    1       27.912 -21.496   7.062  0.00  0.00    +0.000 A 
ATOM     28  C   LIG    1       26.810 -21.277   6.230  0.00  0.00    +0.005 A 
ENDBRANCH  16  23
ENDBRANCH   4  16
TORSDOF 6
ENDMDL
MODEL 2
REMARK VINA RESULT:       5.2      1.852      6.269
REMARK  Name = *****
REMARK                            x       y       z     vdW  Elec       q    Type
REMARK                         _______ _______ _______ _____ _____    ______ ____
ROOT
ATOM      1  N   LIG    1       24.369 -14.045   4.382  0.00  0.00    -0.296 NA
ATOM      2  C   LIG    1       24.820 -15.350   4.912  0.00  0.00    +0.100 C 
ATOM      3  C   LIG    1       25.151 -16.411   3.832  0.00  0.00    +0.100 C 
ATOM      4  N   LIG    1       26.134 -15.979   2.803  0.00  0.00    -0.289 NA
ATOM      5  C   LIG    1       25.681 -14.662   2.289  0.00  0.00    +0.100 C 
ATOM      6  C   LIG    1       25.344 -13.601   3.362  0.00  0.00    +0.100 C 
ENDROOT
BRANCH   1   7
ATOM      7  C   LIG    1       23.007 -14.105   3.825  0.00  0.00    +0.112 C 
BRANCH   7   8
ATOM      8  C   LIG    1       22.496 -15.513   3.713  0.00  0.00    -0.011 C 
ATOM      9  C   LIG    1       22.403 -16.403   4.724  0.00  0.00    +0.005 C 
BRANCH   9  10
ATOM     10  C   LIG    1       21.912 -17.775   4.519  0.00  0.00    -0.025 A 
ATOM     11  C   LIG    1       20.777 -17.999   3.723  0.00  0.00    +0.008 A 
ATOM     12  C   LIG    1       20.290 -19.297   3.536  0.00  0.00    +0.001 A 
ATOM     13  C   LIG    1       20.935 -20.382   4.124  0.00  0.00    +0.000 A 
ATOM     14  C   LIG    1       22.073 -20.173   4.899  0.00  0.00    +0.001 A 
ATOM     15  C   LIG    1       22.561 -18.881   5.084  0.00  0.00    +0.008 A 
ENDBRANCH   9  10
ENDBRANCH   7   8
ENDBRANCH   1   7
BRANCH   4  16
ATOM     16  C   LIG    1       27.537 -15.972   3.329  0.00  0.00    +0.117 C 
BRANCH  16  17
ATOM     17  C   LIG    1       27.905 -17.188   4.198  0.00  0.00    -0.026 A 
ATOM     18  C   LIG    1       29.085 -17.246   4.961  0.00  0.00    +0.005 A 
ATOM     19  C   LIG    1       29.351 -18.338   5.790  0.00  0.00    +0.000 A 
ATOM     20  C   LIG    1       28.469 -19.415   5.833  0.00  0.00    +0.000 A 
ATOM     21  C   LIG    1       27.325 -19.405   5.038  0.00  0.00    +0.000 A 
ATOM     22  C   LIG    1       27.044 -18.301   4.228  0.00  0.00    +0.005 A 
ENDBRANCH  16  17
BRANCH  16  23
ATOM     23  C   LIG    1       27.857 -14.677   4.095  0.00  0.00    -0.026 A 
ATOM     24  C   LIG    1       27.409 -14.478   5.413  0.00  0.00    +0.005 A 
ATOM     25  C   LIG    1       27.658 -13.278   6.081  0.00  0.00    +0.000 A 
ATOM     26  C   LIG    1       28.359 -12.256   5.443  0.00  0.00    +0.000 A 
ATOM     27  C   LIG    1       28.822 -12.440   4.142  0.00  0.00    +0.000 A 
ATOM     28  C   LIG    1       28.579 -13.642   3.473  0.00  0.00    +0.005 A 
ENDBRANCH  16  23
ENDBRANCH   4  16
TORSDOF 6
ENDMDL
