MODEL 1
REMARK VINA RESULT:      -6.0      0.000      0.000
REMARK  Name = *****
REMARK                            x       y       z     vdW  Elec       q    Type
REMARK                         _______ _______ _______ _____ _____    ______ ____
ROOT
ATOM      1  C   LIG    1       25.285 -30.429   9.017  0.00  0.00    +0.123 C 
ENDROOT
BRANCH   1   4
ATOM      2 CL   LIG    1       25.975 -32.949  10.940  0.00  0.00    -0.083 Cl
ATOM      3  C   LIG    1       26.479 -32.773   9.290  0.00  0.00    +0.047 A 
ATOM      4  C   LIG    1       26.139 -31.655   8.479  0.00  0.00    +0.005 A 
ATOM      5  C   LIG    1       26.644 -31.665   7.156  0.00  0.00    +0.008 A 
ATOM      6  C   LIG    1       27.436 -32.713   6.673  0.00  0.00    +0.001 A 
ATOM      7  C   LIG    1       27.739 -33.794   7.487  0.00  0.00    +0.001 A 
ATOM      8  C   LIG    1       27.259 -33.825   8.788  0.00  0.00    +0.020 A 
ENDBRANCH   1   4
BRANCH   1   9
ATOM      9  C   LIG    1       23.833 -30.910   9.477  0.00  0.00    -0.013 A 
ATOM     10  C   LIG    1       23.261 -32.124   9.030  0.00  0.00    +0.006 A 
ATOM     11  C   LIG    1       21.971 -32.527   9.407  0.00  0.00    +0.000 A 
ATOM     12  C   LIG    1       21.193 -31.711  10.213  0.00  0.00    +0.000 A 
ATOM     13  C   LIG    1       21.692 -30.476  10.611  0.00  0.00    +0.000 A 
ATOM     14  C   LIG    1       22.975 -30.074  10.226  0.00  0.00    +0.006 A 
ENDBRANCH   1   9
BRANCH   1  15
ATOM     15  C   LIG    1       25.101 -29.314   7.896  0.00  0.00    -0.013 A 
ATOM     16  C   LIG    1       24.222 -29.518   6.806  0.00  0.00    +0.006 A 
ATOM     17  C   LIG    1       24.054 -28.551   5.808  0.00  0.00    +0.000 A 
ATOM     18  C   LIG    1       24.775 -27.363   5.853  0.00  0.00    +0.000 A 
ATOM     19  C   LIG    1       25.675 -27.147   6.889  0.00  0.00    +0.000 A 
ATOM     20  C   LIG    1       25.838 -28.108   7.892  0.00  0.00    +0.006 A 
ENDBRANCH   1  15
BRANCH   1  21
ATOM     21  N   LIG    1       26.080 -29.803  10.144  0.00  0.00    -0.319 N 
ATOM     22  C   LIG    1       27.465 -29.683  10.156  0.00  0.00    +0.200 A 
ATOM     23  N   LIG    1       27.907 -28.961  11.158  0.00  0.00    -0.244 NA
ATOM     24  C   LIG    1       26.790 -28.586  11.839  0.00  0.00    +0.130 A 
ATOM     25  C   LIG    1       25.658 -29.084  11.239  0.00  0.00    +0.108 A 
ENDBRANCH   1  21
TORSDOF 4
ENDMDL
MODEL 2
REMARK VINA RESULT:      -5.9      1.625      4.464
REMARK  Name = *****
REMARK                            x       y       z     vdW  Elec       q    Type
REMARK                         _______ _______ _______ _____ _____    ______ ____
ROOT
ATOM      1  C   LIG    1       25.355 -30.610   8.934  0.00  0.00    +0.123 C 
ENDROOT
BRANCH   1   4
ATOM      2 CL   LIG    1       23.621 -31.409   6.311  0.00  0.00    -0.083 Cl
ATOM      3  C   LIG    1       24.378 -29.874   6.588  0.00  0.00    +0.047 A 
ATOM      4  C   LIG    1       25.119 -29.564   7.763  0.00  0.00    +0.005 A 
ATOM      5  C   LIG    1       25.681 -28.266   7.822  0.00  0.00    +0.008 A 
ATOM      6  C   LIG    1       25.524 -27.341   6.784  0.00  0.00    +0.001 A 
ATOM      7  C   LIG    1       24.787 -27.672   5.657  0.00  0.00    +0.001 A 
ATOM      8  C   LIG    1       24.214 -28.932   5.563  0.00  0.00    +0.020 A 
ENDBRANCH   1   4
BRANCH   1   9
ATOM      9  C   LIG    1       23.970 -31.240   9.418  0.00  0.00    -0.013 A 
ATOM     10  C   LIG    1       22.877 -30.441   9.828  0.00  0.00    +0.006 A 
ATOM     11  C   LIG    1       21.673 -30.997  10.288  0.00  0.00    +0.000 A 
ATOM     12  C   LIG    1       21.535 -32.372  10.389  0.00  0.00    +0.000 A 
ATOM     13  C   LIG    1       22.613 -33.189  10.066  0.00  0.00    +0.000 A 
ATOM     14  C   LIG    1       23.814 -32.630   9.617  0.00  0.00    +0.006 A 
ENDBRANCH   1   9
BRANCH   1  15
ATOM     15  C   LIG    1       26.050 -29.926  10.192  0.00  0.00    -0.013 A 
ATOM     16  C   LIG    1       25.275 -29.340  11.220  0.00  0.00    +0.006 A 
ATOM     17  C   LIG    1       25.871 -28.728  12.329  0.00  0.00    +0.000 A 
ATOM     18  C   LIG    1       27.255 -28.660  12.434  0.00  0.00    +0.000 A 
ATOM     19  C   LIG    1       28.046 -29.192  11.423  0.00  0.00    +0.000 A 
ATOM     20  C   LIG    1       27.453 -29.811  10.318  0.00  0.00    +0.006 A 
ENDBRANCH   1  15
BRANCH   1  21
ATOM     21  N   LIG    1       26.319 -31.650   8.401  0.00  0.00    -0.319 N 
ATOM     22  C   LIG    1       26.815 -32.715   9.144  0.00  0.00    +0.200 A 
ATOM     23  N   LIG    1       27.499 -33.569   8.421  0.00  0.00    -0.244 NA
ATOM     24  C   LIG    1       27.464 -33.065   7.157  0.00  0.00    +0.130 A 
ATOM     25  C   LIG    1       26.746 -31.894   7.116  0.00  0.00    +0.108 A 
ENDBRANCH   1  21
TORSDOF 4
ENDMDL
MODEL 3
REMARK VINA RESULT:      -5.9      1.341      4.339
REMARK  Name = *****
REMARK                            x       y       z     vdW  Elec       q    Type
REMARK                         _______ _______ _______ _____ _____    ______ ____
ROOT
ATOM      1  C   LIG    1       25.290 -30.296   8.810  0.00  0.00    +0.123 C 
ENDROOT
BRANCH   1   4
ATOM      2 CL   LIG    1       25.264 -32.140  11.480  0.00  0.00    -0.083 Cl
ATOM      3  C   LIG    1       25.982 -30.567  11.349  0.00  0.00    +0.047 A 
ATOM      4  C   LIG    1       25.981 -29.800  10.150  0.00  0.00    +0.005 A 
ATOM      5  C   LIG    1       26.601 -28.529  10.222  0.00  0.00    +0.008 A 
ATOM      6  C   LIG    1       27.178 -28.050  11.403  0.00  0.00    +0.001 A 
ATOM      7  C   LIG    1       27.171 -28.828  12.551  0.00  0.00    +0.001 A 
ATOM      8  C   LIG    1       26.579 -30.082  12.521  0.00  0.00    +0.020 A 
ENDBRANCH   1   4
BRANCH   1   9
ATOM      9  C   LIG    1       26.137 -31.473   8.140  0.00  0.00    -0.013 A 
ATOM     10  C   LIG    1       26.961 -32.339   8.897  0.00  0.00    +0.006 A 
ATOM     11  C   LIG    1       27.733 -33.349   8.302  0.00  0.00    +0.000 A 
ATOM     12  C   LIG    1       27.735 -33.504   6.925  0.00  0.00    +0.000 A 
ATOM     13  C   LIG    1       26.996 -32.625   6.141  0.00  0.00    +0.000 A 
ATOM     14  C   LIG    1       26.236 -31.613   6.737  0.00  0.00    +0.006 A 
ENDBRANCH   1   9
BRANCH   1  15
ATOM     15  C   LIG    1       25.165 -29.116   7.750  0.00  0.00    -0.013 A 
ATOM     16  C   LIG    1       24.256 -29.203   6.669  0.00  0.00    +0.006 A 
ATOM     17  C   LIG    1       24.138 -28.177   5.724  0.00  0.00    +0.000 A 
ATOM     18  C   LIG    1       24.941 -27.046   5.814  0.00  0.00    +0.000 A 
ATOM     19  C   LIG    1       25.872 -26.945   6.840  0.00  0.00    +0.000 A 
ATOM     20  C   LIG    1       25.984 -27.965   7.790  0.00  0.00    +0.006 A 
ENDBRANCH   1  15
BRANCH   1  21
ATOM     21  N   LIG    1       23.883 -30.721   9.175  0.00  0.00    -0.319 N 
ATOM     22  C   LIG    1       23.311 -31.936   8.817  0.00  0.00    +0.200 A 
ATOM     23  N   LIG    1       22.147 -32.140   9.387  0.00  0.00    -0.244 NA
ATOM     24  C   LIG    1       21.929 -31.034  10.148  0.00  0.00    +0.130 A 
ATOM     25  C   LIG    1       22.976 -30.149  10.039  0.00  0.00    +0.108 A 
ENDBRANCH   1  21
TORSDOF 4
ENDMDL
MODEL 4
REMARK VINA RESULT:      -5.9      1.213      4.874
REMARK  Name = *****
REMARK                            x       y       z     vdW  Elec       q    Type
REMARK                         _______ _______ _______ _____ _____    ______ ____
ROOT
ATOM      1  C   LIG    1       25.427 -30.600   8.768  0.00  0.00    +0.123 C 
ENDROOT
BRANCH   1   4
ATOM      2 CL   LIG    1       23.577 -31.185   6.168  0.00  0.00    -0.083 Cl
ATOM      3  C   LIG    1       24.376 -29.687   6.519  0.00  0.00    +0.047 A 
ATOM      4  C   LIG    1       25.168 -29.472   7.682  0.00  0.00    +0.005 A 
ATOM      5  C   LIG    1       25.760 -28.192   7.806  0.00  0.00    +0.008 A 
ATOM      6  C   LIG    1       25.583 -27.195   6.841  0.00  0.00    +0.001 A 
ATOM      7  C   LIG    1       24.796 -27.434   5.724  0.00  0.00    +0.001 A 
ATOM      8  C   LIG    1       24.193 -28.674   5.567  0.00  0.00    +0.020 A 
ENDBRANCH   1   4
BRANCH   1   9
ATOM      9  C   LIG    1       26.311 -31.782   8.156  0.00  0.00    -0.013 A 
ATOM     10  C   LIG    1       26.957 -32.743   8.969  0.00  0.00    +0.006 A 
ATOM     11  C   LIG    1       27.763 -33.759   8.432  0.00  0.00    +0.000 A 
ATOM     12  C   LIG    1       27.982 -33.825   7.065  0.00  0.00    +0.000 A 
ATOM     13  C   LIG    1       27.425 -32.854   6.240  0.00  0.00    +0.000 A 
ATOM     14  C   LIG    1       26.630 -31.838   6.781  0.00  0.00    +0.006 A 
ENDBRANCH   1   9
BRANCH   1  15
ATOM     15  C   LIG    1       24.061 -31.228   9.290  0.00  0.00    -0.013 A 
ATOM     16  C   LIG    1       23.043 -30.407   9.829  0.00  0.00    +0.006 A 
ATOM     17  C   LIG    1       21.839 -30.944  10.298  0.00  0.00    +0.000 A 
ATOM     18  C   LIG    1       21.624 -32.317  10.268  0.00  0.00    +0.000 A 
ATOM     19  C   LIG    1       22.619 -33.156   9.781  0.00  0.00    +0.000 A 
ATOM     20  C   LIG    1       23.819 -32.621   9.304  0.00  0.00    +0.006 A 
ENDBRANCH   1  15
BRANCH   1  21
ATOM     21  N   LIG    1       26.089 -29.924   9.951  0.00  0.00    -0.319 N 
ATOM     22  C   LIG    1       27.451 -29.661  10.045  0.00  0.00    +0.200 A 
ATOM     23  N   LIG    1       27.758 -28.924  11.085  0.00  0.00    -0.244 NA
ATOM     24  C   LIG    1       26.573 -28.685  11.709  0.00  0.00    +0.130 A 
ATOM     25  C   LIG    1       25.535 -29.283  11.035  0.00  0.00    +0.108 A 
ENDBRANCH   1  21
TORSDOF 4
ENDMDL
MODEL 5
REMARK VINA RESULT:      -5.7      0.969      4.690
REMARK  Name = *****
REMARK                            x       y       z     vdW  Elec       q    Type
REMARK                         _______ _______ _______ _____ _____    ______ ____
ROOT
ATOM      1  C   LIG    1       25.393 -30.217   9.098  0.00  0.00    +0.123 C 
ENDROOT
BRANCH   1   4
ATOM      2 CL   LIG    1       23.390 -32.437   7.839  0.00  0.00    -0.083 Cl
ATOM      3  C   LIG    1       23.115 -31.546   9.300  0.00  0.00    +0.047 A 
ATOM      4  C   LIG    1       24.031 -30.590   9.823  0.00  0.00    +0.005 A 
ATOM      5  C   LIG    1       23.644 -29.943  11.021  0.00  0.00    +0.008 A 
ATOM      6  C   LIG    1       22.428 -30.223  11.655  0.00  0.00    +0.001 A 
ATOM      7  C   LIG    1       21.563 -31.168  11.125  0.00  0.00    +0.001 A 
ATOM      8  C   LIG    1       21.908 -31.829   9.956  0.00  0.00    +0.020 A 
ENDBRANCH   1   4
BRANCH   1   9
ATOM      9  C   LIG    1       25.132 -29.212   7.885  0.00  0.00    -0.013 A 
ATOM     10  C   LIG    1       24.277 -29.534   6.805  0.00  0.00    +0.006 A 
ATOM     11  C   LIG    1       24.076 -28.665   5.722  0.00  0.00    +0.000 A 
ATOM     12  C   LIG    1       24.755 -27.457   5.663  0.00  0.00    +0.000 A 
ATOM     13  C   LIG    1       25.661 -27.138   6.668  0.00  0.00    +0.000 A 
ATOM     14  C   LIG    1       25.864 -28.012   7.741  0.00  0.00    +0.006 A 
ENDBRANCH   1   9
BRANCH   1  15
ATOM     15  C   LIG    1       26.115 -31.512   8.516  0.00  0.00    -0.013 A 
ATOM     16  C   LIG    1       26.392 -32.623   9.346  0.00  0.00    +0.006 A 
ATOM     17  C   LIG    1       27.032 -33.766   8.853  0.00  0.00    +0.000 A 
ATOM     18  C   LIG    1       27.436 -33.825   7.524  0.00  0.00    +0.000 A 
ATOM     19  C   LIG    1       27.214 -32.735   6.691  0.00  0.00    +0.000 A 
ATOM     20  C   LIG    1       26.567 -31.596   7.180  0.00  0.00    +0.006 A 
ENDBRANCH   1  15
BRANCH   1  21
ATOM     21  N   LIG    1       26.307 -29.634  10.157  0.00  0.00    -0.319 N 
ATOM     22  C   LIG    1       27.618 -30.040  10.373  0.00  0.00    +0.200 A 
ATOM     23  N   LIG    1       28.254 -29.277  11.230  0.00  0.00    -0.244 NA
ATOM     24  C   LIG    1       27.347 -28.334  11.601  0.00  0.00    +0.130 A 
ATOM     25  C   LIG    1       26.147 -28.527  10.958  0.00  0.00    +0.108 A 
ENDBRANCH   1  21
TORSDOF 4
ENDMDL
MODEL 6
REMARK VINA RESULT:      -5.7      3.202      5.540
REMARK  Name = *****
REMARK                            x       y       z     vdW  Elec       q    Type
REMARK                         _______ _______ _______ _____ _____    ______ ____
ROOT
ATOM      1  C   LIG    1       24.943 -28.958  12.861  0.00  0.00    +0.123 C 
ENDROOT
BRANCH   1   4
ATOM      2 CL   LIG    1       28.060 -29.426  12.091  0.00  0.00    -0.083 Cl
ATOM      3  C   LIG    1       26.715 -29.633  11.016  0.00  0.00    +0.047 A 
ATOM      4  C   LIG    1       25.361 -29.430  11.403  0.00  0.00    +0.005 A 
ATOM      5  C   LIG    1       24.386 -29.630  10.397  0.00  0.00    +0.008 A 
ATOM      6  C   LIG    1       24.732 -30.003   9.093  0.00  0.00    +0.001 A 
ATOM      7  C   LIG    1       26.061 -30.203   8.751  0.00  0.00    +0.001 A 
ATOM      8  C   LIG    1       27.046 -30.023   9.711  0.00  0.00    +0.020 A 
ENDBRANCH   1   4
BRANCH   1   9
ATOM      9  C   LIG    1       23.468 -28.347  12.857  0.00  0.00    -0.013 A 
ATOM     10  C   LIG    1       23.191 -27.034  13.306  0.00  0.00    +0.006 A 
ATOM     11  C   LIG    1       21.889 -26.511  13.336  0.00  0.00    +0.000 A 
ATOM     12  C   LIG    1       20.814 -27.297  12.952  0.00  0.00    +0.000 A 
ATOM     13  C   LIG    1       21.037 -28.616  12.576  0.00  0.00    +0.000 A 
ATOM     14  C   LIG    1       22.336 -29.136  12.557  0.00  0.00    +0.006 A 
ENDBRANCH   1   9
BRANCH   1  15
ATOM     15  C   LIG    1       25.935 -27.844  13.417  0.00  0.00    -0.013 A 
ATOM     16  C   LIG    1       26.531 -27.975  14.693  0.00  0.00    +0.006 A 
ATOM     17  C   LIG    1       27.400 -27.001  15.200  0.00  0.00    +0.000 A 
ATOM     18  C   LIG    1       27.681 -25.858  14.461  0.00  0.00    +0.000 A 
ATOM     19  C   LIG    1       27.082 -25.680  13.220  0.00  0.00    +0.000 A 
ATOM     20  C   LIG    1       26.220 -26.655  12.708  0.00  0.00    +0.006 A 
ENDBRANCH   1  15
BRANCH   1  21
ATOM     21  N   LIG    1       25.075 -30.166  13.766  0.00  0.00    -0.319 N 
ATOM     22  C   LIG    1       24.418 -30.313  14.981  0.00  0.00    +0.200 A 
ATOM     23  N   LIG    1       24.562 -31.509  15.499  0.00  0.00    -0.244 NA
ATOM     24  C   LIG    1       25.337 -32.186  14.610  0.00  0.00    +0.130 A 
ATOM     25  C   LIG    1       25.664 -31.389  13.538  0.00  0.00    +0.108 A 
ENDBRANCH   1  21
TORSDOF 4
ENDMDL
MODEL 7
REMARK VINA RESULT:      -5.6      3.081      4.855
REMARK  Name = *****
REMARK                            x       y       z     vdW  Elec       q    Type
REMARK                         _______ _______ _______ _____ _____    ______ ____
ROOT
ATOM      1  C   LIG    1       24.163 -29.904  12.403  0.00  0.00    +0.123 C 
ENDROOT
BRANCH   1   4
ATOM      2 CL   LIG    1       23.063 -30.653  15.362  0.00  0.00    -0.083 Cl
ATOM      3  C   LIG    1       22.955 -31.668  13.961  0.00  0.00    +0.047 A 
ATOM      4  C   LIG    1       23.439 -31.291  12.677  0.00  0.00    +0.005 A 
ATOM      5  C   LIG    1       23.282 -32.246  11.644  0.00  0.00    +0.008 A 
ATOM      6  C   LIG    1       22.687 -33.492  11.870  0.00  0.00    +0.001 A 
ATOM      7  C   LIG    1       22.216 -33.825  13.131  0.00  0.00    +0.001 A 
ATOM      8  C   LIG    1       22.345 -32.914  14.169  0.00  0.00    +0.020 A 
ENDBRANCH   1   4
BRANCH   1   9
ATOM      9  C   LIG    1       23.202 -28.683  12.770  0.00  0.00    -0.013 A 
ATOM     10  C   LIG    1       21.803 -28.730  12.558  0.00  0.00    +0.006 A 
ATOM     11  C   LIG    1       20.965 -27.642  12.847  0.00  0.00    +0.000 A 
ATOM     12  C   LIG    1       21.501 -26.456  13.321  0.00  0.00    +0.000 A 
ATOM     13  C   LIG    1       22.879 -26.345  13.471  0.00  0.00    +0.000 A 
ATOM     14  C   LIG    1       23.712 -27.429  13.174  0.00  0.00    +0.006 A 
ENDBRANCH   1   9
BRANCH   1  15
ATOM     15  C   LIG    1       24.580 -29.760  10.874  0.00  0.00    -0.013 A 
ATOM     16  C   LIG    1       25.822 -29.187  10.511  0.00  0.00    +0.006 A 
ATOM     17  C   LIG    1       26.201 -29.046   9.171  0.00  0.00    +0.000 A 
ATOM     18  C   LIG    1       25.344 -29.448   8.153  0.00  0.00    +0.000 A 
ATOM     19  C   LIG    1       24.100 -29.979   8.474  0.00  0.00    +0.000 A 
ATOM     20  C   LIG    1       23.723 -30.128   9.812  0.00  0.00    +0.006 A 
ENDBRANCH   1  15
BRANCH   1  21
ATOM     21  N   LIG    1       25.441 -29.910  13.217  0.00  0.00    -0.319 N 
ATOM     22  C   LIG    1       26.288 -31.004  13.342  0.00  0.00    +0.200 A 
ATOM     23  N   LIG    1       27.409 -30.715  13.959  0.00  0.00    -0.244 NA
ATOM     24  C   LIG    1       27.313 -29.392  14.259  0.00  0.00    +0.130 A 
ATOM     25  C   LIG    1       26.120 -28.873  13.814  0.00  0.00    +0.108 A 
ENDBRANCH   1  21
TORSDOF 4
ENDMDL
MODEL 8
REMARK VINA RESULT:      -5.6      1.376      4.526
REMARK  Name = *****
REMARK                            x       y       z     vdW  Elec       q    Type
REMARK                         _______ _______ _______ _____ _____    ______ ____
ROOT
ATOM      1  C   LIG    1       25.282 -31.077   8.767  0.00  0.00    +0.123 C 
ENDROOT
BRANCH   1   4
ATOM      2 CL   LIG    1       22.932 -29.773  10.584  0.00  0.00    -0.083 Cl
ATOM      3  C   LIG    1       22.851 -31.308   9.783  0.00  0.00    +0.047 A 
ATOM      4  C   LIG    1       23.904 -31.834   8.983  0.00  0.00    +0.005 A 
ATOM      5  C   LIG    1       23.677 -33.109   8.411  0.00  0.00    +0.008 A 
ATOM      6  C   LIG    1       22.489 -33.816   8.622  0.00  0.00    +0.001 A 
ATOM      7  C   LIG    1       21.477 -33.270   9.399  0.00  0.00    +0.001 A 
ATOM      8  C   LIG    1       21.658 -32.020   9.972  0.00  0.00    +0.020 A 
ENDBRANCH   1   4
BRANCH   1   9
ATOM      9  C   LIG    1       25.080 -29.784   7.852  0.00  0.00    -0.013 A 
ATOM     10  C   LIG    1       24.215 -29.777   6.732  0.00  0.00    +0.006 A 
ATOM     11  C   LIG    1       24.066 -28.652   5.907  0.00  0.00    +0.000 A 
ATOM     12  C   LIG    1       24.807 -27.506   6.151  0.00  0.00    +0.000 A 
ATOM     13  C   LIG    1       25.723 -27.499   7.197  0.00  0.00    +0.000 A 
ATOM     14  C   LIG    1       25.875 -28.627   8.011  0.00  0.00    +0.006 A 
ENDBRANCH   1   9
BRANCH   1  15
ATOM     15  C   LIG    1       26.356 -32.016   8.062  0.00  0.00    -0.013 A 
ATOM     16  C   LIG    1       26.519 -32.004   6.656  0.00  0.00    +0.006 A 
ATOM     17  C   LIG    1       27.454 -32.829   6.019  0.00  0.00    +0.000 A 
ATOM     18  C   LIG    1       28.236 -33.707   6.761  0.00  0.00    +0.000 A 
ATOM     19  C   LIG    1       28.074 -33.771   8.140  0.00  0.00    +0.000 A 
ATOM     20  C   LIG    1       27.147 -32.942   8.779  0.00  0.00    +0.006 A 
ENDBRANCH   1  15
BRANCH   1  21
ATOM     21  N   LIG    1       25.817 -30.742  10.145  0.00  0.00    -0.319 N 
ATOM     22  C   LIG    1       25.647 -31.541  11.269  0.00  0.00    +0.200 A 
ATOM     23  N   LIG    1       26.339 -31.123  12.302  0.00  0.00    -0.244 NA
ATOM     24  C   LIG    1       26.991 -30.014  11.862  0.00  0.00    +0.130 A 
ATOM     25  C   LIG    1       26.693 -29.759  10.545  0.00  0.00    +0.108 A 
ENDBRANCH   1  21
TORSDOF 4
ENDMDL
MODEL 9
REMARK VINA RESULT:      -5.5      3.371      6.560
REMARK  Name = *****
REMARK                            x       y       z     vdW  Elec       q    Type
REMARK                         _______ _______ _______ _____ _____    ______ ____
ROOT
ATOM      1  C   LIG    1       25.366 -28.492  12.958  0.00  0.00    +0.123 C 
ENDROOT
BRANCH   1   4
ATOM      2 CL   LIG    1       28.337 -29.724  13.385  0.00  0.00    -0.083 Cl
ATOM      3  C   LIG    1       26.868 -30.398  14.011  0.00  0.00    +0.047 A 
ATOM      4  C   LIG    1       25.586 -29.814  13.809  0.00  0.00    +0.005 A 
ATOM      5  C   LIG    1       24.488 -30.503  14.379  0.00  0.00    +0.008 A 
ATOM      6  C   LIG    1       24.651 -31.694  15.095  0.00  0.00    +0.001 A 
ATOM      7  C   LIG    1       25.915 -32.231  15.283  0.00  0.00    +0.001 A 
ATOM      8  C   LIG    1       27.018 -31.583  14.746  0.00  0.00    +0.020 A 
ENDBRANCH   1   4
BRANCH   1   9
ATOM      9  C   LIG    1       26.206 -27.279  13.570  0.00  0.00    -0.013 A 
ATOM     10  C   LIG    1       26.431 -27.140  14.961  0.00  0.00    +0.006 A 
ATOM     11  C   LIG    1       27.137 -26.054  15.500  0.00  0.00    +0.000 A 
ATOM     12  C   LIG    1       27.611 -25.050  14.671  0.00  0.00    +0.000 A 
ATOM     13  C   LIG    1       27.346 -25.113  13.308  0.00  0.00    +0.000 A 
ATOM     14  C   LIG    1       26.633 -26.192  12.775  0.00  0.00    +0.006 A 
ENDBRANCH   1   9
BRANCH   1  15
ATOM     15  C   LIG    1       23.833 -28.065  12.933  0.00  0.00    -0.013 A 
ATOM     16  C   LIG    1       23.424 -26.799  13.413  0.00  0.00    +0.006 A 
ATOM     17  C   LIG    1       22.079 -26.411  13.405  0.00  0.00    +0.000 A 
ATOM     18  C   LIG    1       21.100 -27.282  12.942  0.00  0.00    +0.000 A 
ATOM     19  C   LIG    1       21.463 -28.549  12.500  0.00  0.00    +0.000 A 
ATOM     20  C   LIG    1       22.807 -28.935  12.499  0.00  0.00    +0.006 A 
ENDBRANCH   1  15
BRANCH   1  21
ATOM     21  N   LIG    1       25.763 -28.819  11.533  0.00  0.00    -0.319 N 
ATOM     22  C   LIG    1       26.764 -28.164  10.826  0.00  0.00    +0.200 A 
ATOM     23  N   LIG    1       27.032 -28.732   9.674  0.00  0.00    -0.244 NA
ATOM     24  C   LIG    1       26.189 -29.797   9.604  0.00  0.00    +0.130 A 
ATOM     25  C   LIG    1       25.402 -29.876  10.729  0.00  0.00    +0.108 A 
ENDBRANCH   1  21
TORSDOF 4
ENDMDL
