MODEL 1
REMARK VINA RESULT:      -9.4      0.000      0.000
REMARK  Name = *****
REMARK                            x       y       z     vdW  Elec       q    Type
REMARK                         _______ _______ _______ _____ _____    ______ ____
ROOT
ATOM      1  C   LIG    1       22.219 -21.004   4.951  0.00  0.00    +0.014 C 
ATOM      2  C   LIG    1       23.669 -21.383   5.381  0.00  0.00    -0.003 C 
ATOM      3  C   LIG    1       23.744 -22.937   5.356  0.00  0.00    +0.121 C 
ATOM      4  C   LIG    1       23.545 -23.409   6.804  0.00  0.00    +0.032 C 
ATOM      5  C   LIG    1       23.206 -22.158   7.612  0.00  0.00    +0.007 C 
ATOM      6  C   LIG    1       23.897 -21.003   6.871  0.00  0.00    +0.001 C 
ATOM      7  C   LIG    1       25.368 -20.709   7.335  0.00  0.00    +0.001 C 
ATOM      8  C   LIG    1       26.203 -19.939   6.274  0.00  0.00    +0.023 C 
ATOM      9  C   LIG    1       27.697 -19.848   6.580  0.00  0.00    -0.041 A 
ATOM     10  C   LIG    1       28.302 -20.642   7.572  0.00  0.00    -0.041 A 
ATOM     11  C   LIG    1       27.480 -21.463   8.517  0.00  0.00    +0.036 C 
ATOM     12  C   LIG    1       29.699 -20.632   7.714  0.00  0.00    +0.049 A 
ATOM     13  C   LIG    1       30.486 -19.853   6.881  0.00  0.00    +0.117 A 
ATOM     14  C   LIG    1       29.906 -19.032   5.922  0.00  0.00    +0.045 A 
ATOM     15  C   LIG    1       28.516 -19.025   5.786  0.00  0.00    +0.008 A 
ATOM     16  C   LIG    1       26.049 -20.550   4.870  0.00  0.00    +0.009 C 
ATOM     17  C   LIG    1       26.158 -21.905   7.900  0.00  0.00    +0.009 C 
ATOM     18  C   LIG    1       24.603 -20.638   4.425  0.00  0.00    +0.010 C 
ENDROOT
BRANCH   3  19
ATOM     19  O   LIG    1       24.940 -23.457   4.802  0.00  0.00    -0.391 OA
ATOM     20  H   LIG    1       24.842 -24.411   4.667  0.00  0.00    +0.210 HD
ENDBRANCH   3  19
BRANCH  13  21
ATOM     21  O   LIG    1       31.839 -19.919   7.034  0.00  0.00    -0.507 OA
ATOM     22  H   LIG    1       32.217 -20.346   6.248  0.00  0.00    +0.292 HD
ENDBRANCH  13  21
TORSDOF 2
ENDMDL
MODEL 2
REMARK VINA RESULT:      -9.1      1.470      2.863
REMARK  Name = *****
REMARK                            x       y       z     vdW  Elec       q    Type
REMARK                         _______ _______ _______ _____ _____    ______ ____
ROOT
ATOM      1  C   LIG    1       23.295 -23.635   6.882  0.00  0.00    +0.014 C 
ATOM      2  C   LIG    1       24.224 -22.386   6.954  0.00  0.00    -0.003 C 
ATOM      3  C   LIG    1       23.290 -21.151   7.112  0.00  0.00    +0.121 C 
ATOM      4  C   LIG    1       23.130 -20.540   5.713  0.00  0.00    +0.032 C 
ATOM      5  C   LIG    1       23.829 -21.500   4.751  0.00  0.00    +0.007 C 
ATOM      6  C   LIG    1       24.931 -22.170   5.587  0.00  0.00    +0.001 C 
ATOM      7  C   LIG    1       26.309 -21.417   5.585  0.00  0.00    +0.001 C 
ATOM      8  C   LIG    1       27.210 -21.788   6.796  0.00  0.00    +0.023 C 
ATOM      9  C   LIG    1       28.446 -20.905   6.965  0.00  0.00    -0.041 A 
ATOM     10  C   LIG    1       28.592 -19.689   6.271  0.00  0.00    -0.041 A 
ATOM     11  C   LIG    1       27.644 -19.302   5.178  0.00  0.00    +0.036 C 
ATOM     12  C   LIG    1       29.670 -18.843   6.572  0.00  0.00    +0.049 A 
ATOM     13  C   LIG    1       30.587 -19.190   7.551  0.00  0.00    +0.117 A 
ATOM     14  C   LIG    1       30.484 -20.403   8.220  0.00  0.00    +0.045 A 
ATOM     15  C   LIG    1       29.423 -21.258   7.914  0.00  0.00    +0.008 A 
ATOM     16  C   LIG    1       26.430 -21.761   8.121  0.00  0.00    +0.009 C 
ATOM     17  C   LIG    1       26.254 -19.891   5.382  0.00  0.00    +0.009 C 
ATOM     18  C   LIG    1       25.205 -22.652   8.098  0.00  0.00    +0.010 C 
ENDROOT
BRANCH   3  19
ATOM     19  O   LIG    1       23.745 -20.189   8.047  0.00  0.00    -0.391 OA
ATOM     20  H   LIG    1       24.352 -19.576   7.606  0.00  0.00    +0.210 HD
ENDBRANCH   3  19
BRANCH  13  21
ATOM     21  O   LIG    1       31.587 -18.307   7.834  0.00  0.00    -0.507 OA
ATOM     22  H   LIG    1       31.252 -17.656   8.470  0.00  0.00    +0.292 HD
ENDBRANCH  13  21
TORSDOF 2
ENDMDL
MODEL 3
REMARK VINA RESULT:      -6.6      3.340      5.871
REMARK  Name = *****
REMARK                            x       y       z     vdW  Elec       q    Type
REMARK                         _______ _______ _______ _____ _____    ______ ____
ROOT
ATOM      1  C   LIG    1       22.436 -20.382   5.081  0.00  0.00    +0.014 C 
ATOM      2  C   LIG    1       23.157 -21.481   5.918  0.00  0.00    -0.003 C 
ATOM      3  C   LIG    1       23.453 -20.851   7.310  0.00  0.00    +0.121 C 
ATOM      4  C   LIG    1       24.915 -20.384   7.279  0.00  0.00    +0.032 C 
ATOM      5  C   LIG    1       25.395 -20.599   5.844  0.00  0.00    +0.007 C 
ATOM      6  C   LIG    1       24.559 -21.775   5.315  0.00  0.00    +0.001 C 
ATOM      7  C   LIG    1       25.184 -23.193   5.567  0.00  0.00    +0.001 C 
ATOM      8  C   LIG    1       24.137 -24.341   5.512  0.00  0.00    +0.023 C 
ATOM      9  C   LIG    1       24.653 -25.698   5.990  0.00  0.00    -0.041 A 
ATOM     10  C   LIG    1       25.866 -25.827   6.692  0.00  0.00    -0.041 A 
ATOM     11  C   LIG    1       26.812 -24.673   6.825  0.00  0.00    +0.036 C 
ATOM     12  C   LIG    1       26.223 -27.069   7.240  0.00  0.00    +0.049 A 
ATOM     13  C   LIG    1       25.389 -28.166   7.101  0.00  0.00    +0.117 A 
ATOM     14  C   LIG    1       24.206 -28.070   6.378  0.00  0.00    +0.045 A 
ATOM     15  C   LIG    1       23.853 -26.841   5.816  0.00  0.00    +0.008 A 
ATOM     16  C   LIG    1       22.877 -24.006   6.327  0.00  0.00    +0.009 C 
ATOM     17  C   LIG    1       26.092 -23.330   6.803  0.00  0.00    +0.009 C 
ATOM     18  C   LIG    1       22.233 -22.701   5.902  0.00  0.00    +0.010 C 
ENDROOT
BRANCH   3  19
ATOM     19  O   LIG    1       23.210 -21.715   8.407  0.00  0.00    -0.391 OA
ATOM     20  H   LIG    1       23.126 -21.189   9.217  0.00  0.00    +0.210 HD
ENDBRANCH   3  19
BRANCH  13  21
ATOM     21  O   LIG    1       25.764 -29.335   7.694  0.00  0.00    -0.507 OA
ATOM     22  H   LIG    1       25.855 -30.014   7.007  0.00  0.00    +0.292 HD
ENDBRANCH  13  21
TORSDOF 2
ENDMDL
MODEL 4
REMARK VINA RESULT:      -6.5      2.831      6.004
REMARK  Name = *****
REMARK                            x       y       z     vdW  Elec       q    Type
REMARK                         _______ _______ _______ _____ _____    ______ ____
ROOT
ATOM      1  C   LIG    1       26.663 -19.993   8.194  0.00  0.00    +0.014 C 
ATOM      2  C   LIG    1       26.092 -21.113   7.273  0.00  0.00    -0.003 C 
ATOM      3  C   LIG    1       25.570 -20.405   5.989  0.00  0.00    +0.121 C 
ATOM      4  C   LIG    1       24.055 -20.237   6.166  0.00  0.00    +0.032 C 
ATOM      5  C   LIG    1       23.743 -20.697   7.589  0.00  0.00    +0.007 C 
ATOM      6  C   LIG    1       24.824 -21.738   7.919  0.00  0.00    +0.001 C 
ATOM      7  C   LIG    1       24.456 -23.214   7.533  0.00  0.00    +0.001 C 
ATOM      8  C   LIG    1       25.699 -24.135   7.383  0.00  0.00    +0.023 C 
ATOM      9  C   LIG    1       25.408 -25.506   6.774  0.00  0.00    -0.041 A 
ATOM     10  C   LIG    1       24.187 -25.792   6.135  0.00  0.00    -0.041 A 
ATOM     11  C   LIG    1       23.034 -24.837   6.203  0.00  0.00    +0.036 C 
ATOM     12  C   LIG    1       24.023 -27.012   5.462  0.00  0.00    +0.049 A 
ATOM     13  C   LIG    1       25.056 -27.934   5.414  0.00  0.00    +0.117 A 
ATOM     14  C   LIG    1       26.255 -27.689   6.071  0.00  0.00    +0.045 A 
ATOM     15  C   LIG    1       26.419 -26.484   6.757  0.00  0.00    +0.008 A 
ATOM     16  C   LIG    1       26.804 -23.475   6.541  0.00  0.00    +0.009 C 
ATOM     17  C   LIG    1       23.490 -23.390   6.346  0.00  0.00    +0.009 C 
ATOM     18  C   LIG    1       27.226 -22.124   7.083  0.00  0.00    +0.010 C 
ENDROOT
BRANCH   3  19
ATOM     19  O   LIG    1       25.878 -21.080   4.782  0.00  0.00    -0.391 OA
ATOM     20  H   LIG    1       25.646 -22.016   4.870  0.00  0.00    +0.210 HD
ENDBRANCH   3  19
BRANCH  13  21
ATOM     21  O   LIG    1       24.857 -29.082   4.705  0.00  0.00    -0.507 OA
ATOM     22  H   LIG    1       23.907 -29.178   4.534  0.00  0.00    +0.292 HD
ENDBRANCH  13  21
TORSDOF 2
ENDMDL
MODEL 5
REMARK VINA RESULT:      -6.4      1.745      6.135
REMARK  Name = *****
REMARK                            x       y       z     vdW  Elec       q    Type
REMARK                         _______ _______ _______ _____ _____    ______ ____
ROOT
ATOM      1  C   LIG    1       32.090 -19.245   6.698  0.00  0.00    +0.014 C 
ATOM      2  C   LIG    1       30.569 -19.209   7.033  0.00  0.00    -0.003 C 
ATOM      3  C   LIG    1       30.428 -18.404   8.358  0.00  0.00    +0.121 C 
ATOM      4  C   LIG    1       30.316 -19.436   9.489  0.00  0.00    +0.032 C 
ATOM      5  C   LIG    1       30.547 -20.799   8.840  0.00  0.00    +0.007 C 
ATOM      6  C   LIG    1       30.069 -20.638   7.388  0.00  0.00    +0.001 C 
ATOM      7  C   LIG    1       28.551 -20.963   7.155  0.00  0.00    +0.001 C 
ATOM      8  C   LIG    1       27.978 -20.315   5.863  0.00  0.00    +0.023 C 
ATOM      9  C   LIG    1       26.459 -20.401   5.726  0.00  0.00    -0.041 A 
ATOM     10  C   LIG    1       25.634 -20.765   6.807  0.00  0.00    -0.041 A 
ATOM     11  C   LIG    1       26.216 -21.286   8.085  0.00  0.00    +0.036 C 
ATOM     12  C   LIG    1       24.239 -20.684   6.674  0.00  0.00    +0.049 A 
ATOM     13  C   LIG    1       23.668 -20.243   5.492  0.00  0.00    +0.117 A 
ATOM     14  C   LIG    1       24.463 -19.918   4.400  0.00  0.00    +0.045 A 
ATOM     15  C   LIG    1       25.851 -20.011   4.519  0.00  0.00    +0.008 A 
ATOM     16  C   LIG    1       28.377 -18.835   5.739  0.00  0.00    +0.009 C 
ATOM     17  C   LIG    1       27.611 -20.734   8.353  0.00  0.00    +0.009 C 
ATOM     18  C   LIG    1       29.876 -18.624   5.800  0.00  0.00    +0.010 C 
ENDROOT
BRANCH   3  19
ATOM     19  O   LIG    1       29.341 -17.495   8.378  0.00  0.00    -0.391 OA
ATOM     20  H   LIG    1       29.518 -16.799   9.028  0.00  0.00    +0.210 HD
ENDBRANCH   3  19
BRANCH  13  21
ATOM     21  O   LIG    1       22.310 -20.140   5.436  0.00  0.00    -0.507 OA
ATOM     22  H   LIG    1       21.947 -20.998   5.164  0.00  0.00    +0.292 HD
ENDBRANCH  13  21
TORSDOF 2
ENDMDL
