MODEL 1
REMARK VINA RESULT:      -3.5      0.000      0.000
REMARK  Name = *****
REMARK                            x       y       z     vdW  Elec       q    Type
REMARK                         _______ _______ _______ _____ _____    ______ ____
ROOT
ATOM      1  C   LIG    1       23.105 -16.027   5.041  0.00  0.00    -0.000 C 
ATOM      2  C   LIG    1       23.698 -16.848   4.154  0.00  0.00    -0.066 C 
ATOM      3  C   LIG    1       23.188 -18.239   3.757  0.00  0.00    +0.021 C 
ATOM      4  C   LIG    1       22.006 -18.852   4.515  0.00  0.00    +0.009 C 
ATOM      5  C   LIG    1       22.198 -20.356   4.370  0.00  0.00    +0.005 C 
ATOM      6  C   LIG    1       23.714 -20.580   4.505  0.00  0.00    +0.002 C 
ATOM      7  C   LIG    1       24.319 -19.337   3.752  0.00  0.00    -0.022 C 
ATOM      8  C   LIG    1       24.563 -19.752   2.269  0.00  0.00    +0.012 C 
ATOM      9  C   LIG    1       25.655 -18.808   4.306  0.00  0.00    +0.008 C 
ATOM     10  C   LIG    1       26.101 -17.477   3.693  0.00  0.00    +0.005 C 
ATOM     11  C   LIG    1       24.960 -16.511   3.379  0.00  0.00    +0.031 C 
ENDROOT
BRANCH   1  19
ATOM     12  C   LIG    1       23.873 -14.133   2.238  0.00  0.00    +0.015 C 
ATOM     13  C   LIG    1       24.743 -14.104   3.264  0.00  0.00    -0.023 C 
ATOM     14  C   LIG    1       26.248 -14.164   3.152  0.00  0.00    +0.147 C 
ATOM     15  C   LIG    1       26.857 -12.843   3.635  0.00  0.00    +0.067 C 
ATOM     16  C   LIG    1       26.332 -12.425   5.015  0.00  0.00    +0.122 C 
ATOM     17  C   LIG    1       24.799 -12.526   5.136  0.00  0.00    +0.067 C 
ATOM     18  C   LIG    1       24.278 -13.858   4.619  0.00  0.00    -0.040 C 
ATOM     19  C   LIG    1       23.544 -14.688   5.379  0.00  0.00    +0.004 C 
BRANCH  14  20
ATOM     20  O   LIG    1       26.667 -14.407   1.813  0.00  0.00    -0.387 OA
ATOM     21  H   LIG    1       25.875 -14.307   1.258  0.00  0.00    +0.210 HD
ENDBRANCH  14  20
BRANCH  16  22
ATOM     22  O   LIG    1       26.963 -13.208   6.032  0.00  0.00    -0.391 OA
ATOM     23  H   LIG    1       26.913 -14.145   5.774  0.00  0.00    +0.210 HD
ENDBRANCH  16  22
ENDBRANCH   1  19
BRANCH   6  24
ATOM     24  C   LIG    1       24.122 -20.929   5.980  0.00  0.00    +0.012 C 
ATOM     25  C   LIG    1       23.088 -20.577   7.060  0.00  0.00    +0.012 C 
BRANCH  24  26
ATOM     26  C   LIG    1       25.543 -20.497   6.307  0.00  0.00    -0.025 C 
ATOM     27  C   LIG    1       26.595 -21.303   6.542  0.00  0.00    +0.000 C 
BRANCH  27  28
ATOM     28  C   LIG    1       27.992 -20.837   6.850  0.00  0.00    +0.140 C 
BRANCH  28  29
ATOM     29  C   LIG    1       28.190 -19.353   6.646  0.00  0.00    +0.022 C 
ATOM     30  C   LIG    1       29.455 -18.633   7.060  0.00  0.00    +0.007 C 
ATOM     31  C   LIG    1       29.151 -18.829   5.601  0.00  0.00    +0.007 C 
ENDBRANCH  28  29
BRANCH  28  32
ATOM     32  O   LIG    1       28.892 -21.572   6.027  0.00  0.00    -0.388 OA
ATOM     33  H   LIG    1       29.681 -21.728   6.571  0.00  0.00    +0.210 HD
ENDBRANCH  28  32
ENDBRANCH  27  28
ENDBRANCH  24  26
ENDBRANCH   6  24
TORSDOF 8
ENDMDL
MODEL 2
REMARK VINA RESULT:      -1.6      2.131      4.734
REMARK  Name = *****
REMARK                            x       y       z     vdW  Elec       q    Type
REMARK                         _______ _______ _______ _____ _____    ______ ____
ROOT
ATOM      1  C   LIG    1       26.983 -17.040   4.091  0.00  0.00    -0.000 C 
ATOM      2  C   LIG    1       27.477 -18.174   4.622  0.00  0.00    -0.066 C 
ATOM      3  C   LIG    1       26.917 -19.582   4.383  0.00  0.00    +0.021 C 
ATOM      4  C   LIG    1       25.601 -19.747   3.616  0.00  0.00    +0.009 C 
ATOM      5  C   LIG    1       25.025 -21.062   4.125  0.00  0.00    +0.005 C 
ATOM      6  C   LIG    1       25.327 -21.074   5.635  0.00  0.00    +0.002 C 
ATOM      7  C   LIG    1       26.757 -20.421   5.708  0.00  0.00    -0.022 C 
ATOM      8  C   LIG    1       27.808 -21.571   5.665  0.00  0.00    +0.012 C 
ATOM      9  C   LIG    1       27.045 -19.586   6.971  0.00  0.00    +0.008 C 
ATOM     10  C   LIG    1       28.354 -18.793   6.910  0.00  0.00    +0.005 C 
ATOM     11  C   LIG    1       28.696 -18.242   5.528  0.00  0.00    +0.031 C 
ENDROOT
BRANCH   1  19
ATOM     12  C   LIG    1       24.564 -14.666   4.828  0.00  0.00    +0.015 C 
ATOM     13  C   LIG    1       25.478 -14.351   3.892  0.00  0.00    -0.023 C 
ATOM     14  C   LIG    1       25.200 -13.655   2.580  0.00  0.00    +0.147 C 
ATOM     15  C   LIG    1       25.878 -12.281   2.568  0.00  0.00    +0.067 C 
ATOM     16  C   LIG    1       27.362 -12.355   2.955  0.00  0.00    +0.122 C 
ATOM     17  C   LIG    1       27.618 -13.204   4.215  0.00  0.00    +0.067 C 
ATOM     18  C   LIG    1       26.896 -14.541   4.152  0.00  0.00    -0.040 C 
ATOM     19  C   LIG    1       27.541 -15.714   4.262  0.00  0.00    +0.004 C 
BRANCH  14  20
ATOM     20  O   LIG    1       23.804 -13.487   2.359  0.00  0.00    -0.387 OA
ATOM     21  H   LIG    1       23.712 -12.714   1.777  0.00  0.00    +0.210 HD
ENDBRANCH  14  20
BRANCH  16  22
ATOM     22  O   LIG    1       28.125 -12.857   1.854  0.00  0.00    -0.391 OA
ATOM     23  H   LIG    1       28.475 -13.732   2.096  0.00  0.00    +0.210 HD
ENDBRANCH  16  22
ENDBRANCH   1  19
BRANCH   6  24
ATOM     24  C   LIG    1       24.122 -20.517   6.473  0.00  0.00    +0.012 C 
ATOM     25  C   LIG    1       23.170 -21.571   7.056  0.00  0.00    +0.012 C 
BRANCH  24  26
ATOM     26  C   LIG    1       23.425 -19.353   5.785  0.00  0.00    -0.025 C 
ATOM     27  C   LIG    1       22.313 -19.413   5.029  0.00  0.00    +0.000 C 
BRANCH  27  28
ATOM     28  C   LIG    1       21.644 -18.235   4.375  0.00  0.00    +0.140 C 
BRANCH  28  29
ATOM     29  C   LIG    1       20.766 -18.616   3.206  0.00  0.00    +0.022 C 
ATOM     30  C   LIG    1       19.399 -19.241   3.381  0.00  0.00    +0.007 C 
ATOM     31  C   LIG    1       19.515 -17.829   2.879  0.00  0.00    +0.007 C 
ENDBRANCH  28  29
BRANCH  28  32
ATOM     32  O   LIG    1       22.659 -17.330   3.956  0.00  0.00    -0.388 OA
ATOM     33  H   LIG    1       23.185 -17.137   4.749  0.00  0.00    +0.210 HD
ENDBRANCH  28  32
ENDBRANCH  27  28
ENDBRANCH  24  26
ENDBRANCH   6  24
TORSDOF 8
ENDMDL
