MODEL 1
REMARK VINA RESULT:     -10.2      0.000      0.000
REMARK  Name = *****
REMARK                            x       y       z     vdW  Elec       q    Type
REMARK                         _______ _______ _______ _____ _____    ______ ____
ROOT
ATOM      1  C   LIG    1       25.696 -21.236   7.099  0.00  0.00    +0.086 C 
ATOM      2  C   LIG    1       26.177 -21.124   8.498  0.00  0.00    +0.345 C 
ATOM      3  O   LIG    1       25.574 -21.627   9.446  0.00  0.00    -0.245 OA
ATOM      4  O   LIG    1       27.388 -20.475   8.713  0.00  0.00    -0.422 OA
ATOM      5  C   LIG    1       28.114 -19.873   7.671  0.00  0.00    +0.143 A 
ATOM      6  C   LIG    1       27.663 -19.955   6.359  0.00  0.00    +0.059 A 
ATOM      7  C   LIG    1       28.399 -19.274   5.375  0.00  0.00    +0.015 A 
ATOM      8  C   LIG    1       29.566 -18.574   5.707  0.00  0.00    +0.001 A 
ATOM      9  C   LIG    1       30.008 -18.533   7.029  0.00  0.00    +0.004 A 
ATOM     10  C   LIG    1       29.275 -19.181   8.020  0.00  0.00    +0.047 A 
ATOM     11  C   LIG    1       26.437 -20.715   6.101  0.00  0.00    +0.138 C 
ENDROOT
BRANCH  11  12
ATOM     12  O   LIG    1       26.071 -20.895   4.780  0.00  0.00    -0.505 OA
ATOM     13  H   LIG    1       26.529 -20.223   4.245  0.00  0.00    +0.292 HD
ENDBRANCH  11  12
BRANCH   1  14
ATOM     14  C   LIG    1       24.392 -21.997   6.852  0.00  0.00    +0.059 C 
BRANCH  14  15
ATOM     15  C   LIG    1       24.619 -23.514   6.679  0.00  0.00    -0.040 A 
ATOM     16  C   LIG    1       25.885 -24.112   6.795  0.00  0.00    +0.004 A 
ATOM     17  C   LIG    1       26.068 -25.480   6.568  0.00  0.00    +0.000 A 
ATOM     18  C   LIG    1       24.984 -26.290   6.251  0.00  0.00    +0.000 A 
ATOM     19  C   LIG    1       23.712 -25.728   6.165  0.00  0.00    +0.000 A 
ATOM     20  C   LIG    1       23.531 -24.355   6.375  0.00  0.00    +0.004 A 
ENDBRANCH  14  15
BRANCH  14  22
ATOM     21  C   LIG    1       22.865 -20.015   6.067  0.00  0.00    +0.005 C 
ATOM     22  C   LIG    1       23.454 -21.389   5.765  0.00  0.00    +0.010 C 
ENDBRANCH  14  22
ENDBRANCH   1  14
TORSDOF 4
ENDMDL
MODEL 2
REMARK VINA RESULT:      -9.5      0.849      2.406
REMARK  Name = *****
REMARK                            x       y       z     vdW  Elec       q    Type
REMARK                         _______ _______ _______ _____ _____    ______ ____
ROOT
ATOM      1  C   LIG    1       25.793 -21.605   6.867  0.00  0.00    +0.086 C 
ATOM      2  C   LIG    1       25.745 -21.142   5.458  0.00  0.00    +0.345 C 
ATOM      3  O   LIG    1       24.856 -21.488   4.678  0.00  0.00    -0.245 OA
ATOM      4  O   LIG    1       26.713 -20.233   5.045  0.00  0.00    -0.422 OA
ATOM      5  C   LIG    1       27.755 -19.811   5.887  0.00  0.00    +0.143 A 
ATOM      6  C   LIG    1       27.823 -20.254   7.203  0.00  0.00    +0.059 A 
ATOM      7  C   LIG    1       28.927 -19.849   7.970  0.00  0.00    +0.015 A 
ATOM      8  C   LIG    1       29.899 -18.995   7.434  0.00  0.00    +0.001 A 
ATOM      9  C   LIG    1       29.790 -18.545   6.118  0.00  0.00    +0.004 A 
ATOM     10  C   LIG    1       28.715 -18.960   5.336  0.00  0.00    +0.047 A 
ATOM     11  C   LIG    1       26.757 -21.138   7.683  0.00  0.00    +0.138 C 
ENDROOT
BRANCH  11  12
ATOM     12  O   LIG    1       26.768 -21.467   9.026  0.00  0.00    -0.505 OA
ATOM     13  H   LIG    1       26.213 -20.824   9.501  0.00  0.00    +0.292 HD
ENDBRANCH  11  12
BRANCH   1  14
ATOM     14  C   LIG    1       24.697 -22.562   7.340  0.00  0.00    +0.059 C 
BRANCH  14  15
ATOM     15  C   LIG    1       24.860 -23.980   6.753  0.00  0.00    -0.040 A 
ATOM     16  C   LIG    1       23.776 -24.731   6.268  0.00  0.00    +0.004 A 
ATOM     17  C   LIG    1       23.946 -26.040   5.802  0.00  0.00    +0.000 A 
ATOM     18  C   LIG    1       25.210 -26.617   5.780  0.00  0.00    +0.000 A 
ATOM     19  C   LIG    1       26.307 -25.882   6.224  0.00  0.00    +0.000 A 
ATOM     20  C   LIG    1       26.134 -24.578   6.706  0.00  0.00    +0.004 A 
ENDBRANCH  14  15
BRANCH  14  22
ATOM     21  C   LIG    1       23.074 -20.503   7.277  0.00  0.00    +0.005 C 
ATOM     22  C   LIG    1       23.239 -22.019   7.235  0.00  0.00    +0.010 C 
ENDBRANCH  14  22
ENDBRANCH   1  14
TORSDOF 4
ENDMDL
MODEL 3
REMARK VINA RESULT:      -9.4      2.548      6.171
REMARK  Name = *****
REMARK                            x       y       z     vdW  Elec       q    Type
REMARK                         _______ _______ _______ _____ _____    ______ ____
ROOT
ATOM      1  C   LIG    1       24.564 -23.525   6.846  0.00  0.00    +0.086 C 
ATOM      2  C   LIG    1       23.238 -24.176   6.701  0.00  0.00    +0.345 C 
ATOM      3  O   LIG    1       22.184 -23.591   6.951  0.00  0.00    -0.245 OA
ATOM      4  O   LIG    1       23.208 -25.475   6.205  0.00  0.00    -0.422 OA
ATOM      5  C   LIG    1       24.379 -26.195   5.913  0.00  0.00    +0.143 A 
ATOM      6  C   LIG    1       25.628 -25.603   6.063  0.00  0.00    +0.059 A 
ATOM      7  C   LIG    1       26.758 -26.399   5.820  0.00  0.00    +0.015 A 
ATOM      8  C   LIG    1       26.624 -27.729   5.402  0.00  0.00    +0.001 A 
ATOM      9  C   LIG    1       25.357 -28.288   5.234  0.00  0.00    +0.004 A 
ATOM     10  C   LIG    1       24.226 -27.519   5.497  0.00  0.00    +0.047 A 
ATOM     11  C   LIG    1       25.675 -24.204   6.496  0.00  0.00    +0.138 C 
ENDROOT
BRANCH  11  12
ATOM     12  O   LIG    1       26.914 -23.591   6.518  0.00  0.00    -0.505 OA
ATOM     13  H   LIG    1       27.273 -23.666   7.419  0.00  0.00    +0.292 HD
ENDBRANCH  11  12
BRANCH   1  14
ATOM     14  C   LIG    1       24.597 -22.078   7.340  0.00  0.00    +0.059 C 
BRANCH  14  15
ATOM     15  C   LIG    1       24.268 -21.067   6.221  0.00  0.00    -0.040 A 
ATOM     16  C   LIG    1       23.037 -20.395   6.142  0.00  0.00    +0.004 A 
ATOM     17  C   LIG    1       22.745 -19.532   5.080  0.00  0.00    +0.000 A 
ATOM     18  C   LIG    1       23.689 -19.296   4.087  0.00  0.00    +0.000 A 
ATOM     19  C   LIG    1       24.930 -19.923   4.161  0.00  0.00    +0.000 A 
ATOM     20  C   LIG    1       25.217 -20.800   5.215  0.00  0.00    +0.004 A 
ENDBRANCH  14  15
BRANCH  14  22
ATOM     21  C   LIG    1       25.836 -20.295   8.811  0.00  0.00    +0.005 C 
ATOM     22  C   LIG    1       25.852 -21.682   8.175  0.00  0.00    +0.010 C 
ENDBRANCH  14  22
ENDBRANCH   1  14
TORSDOF 4
ENDMDL
MODEL 4
REMARK VINA RESULT:      -9.2      0.925      2.282
REMARK  Name = *****
REMARK                            x       y       z     vdW  Elec       q    Type
REMARK                         _______ _______ _______ _____ _____    ______ ____
ROOT
ATOM      1  C   LIG    1       25.984 -20.625   6.879  0.00  0.00    +0.086 C 
ATOM      2  C   LIG    1       26.332 -20.289   5.476  0.00  0.00    +0.345 C 
ATOM      3  O   LIG    1       25.542 -20.443   4.544  0.00  0.00    -0.245 OA
ATOM      4  O   LIG    1       27.580 -19.722   5.240  0.00  0.00    -0.422 OA
ATOM      5  C   LIG    1       28.525 -19.533   6.261  0.00  0.00    +0.143 A 
ATOM      6  C   LIG    1       28.218 -19.863   7.577  0.00  0.00    +0.059 A 
ATOM      7  C   LIG    1       29.231 -19.713   8.538  0.00  0.00    +0.015 A 
ATOM      8  C   LIG    1       30.489 -19.210   8.183  0.00  0.00    +0.001 A 
ATOM      9  C   LIG    1       30.759 -18.863   6.860  0.00  0.00    +0.004 A 
ATOM     10  C   LIG    1       29.774 -19.031   5.890  0.00  0.00    +0.047 A 
ATOM     11  C   LIG    1       26.874 -20.373   7.859  0.00  0.00    +0.138 C 
ENDROOT
BRANCH  11  12
ATOM     12  O   LIG    1       26.541 -20.576   9.186  0.00  0.00    -0.505 OA
ATOM     13  H   LIG    1       26.457 -19.706   9.613  0.00  0.00    +0.292 HD
ENDBRANCH  11  12
BRANCH   1  14
ATOM     14  C   LIG    1       24.592 -21.197   7.150  0.00  0.00    +0.059 C 
BRANCH  14  15
ATOM     15  C   LIG    1       24.510 -22.710   6.857  0.00  0.00    -0.040 A 
ATOM     16  C   LIG    1       25.642 -23.492   6.572  0.00  0.00    +0.004 A 
ATOM     17  C   LIG    1       25.528 -24.849   6.247  0.00  0.00    +0.000 A 
ATOM     18  C   LIG    1       24.282 -25.463   6.229  0.00  0.00    +0.000 A 
ATOM     19  C   LIG    1       23.147 -24.719   6.542  0.00  0.00    +0.000 A 
ATOM     20  C   LIG    1       23.259 -23.357   6.851  0.00  0.00    +0.004 A 
ENDBRANCH  14  15
BRANCH  14  22
ATOM     21  C   LIG    1       22.656 -21.046   5.387  0.00  0.00    +0.005 C 
ATOM     22  C   LIG    1       23.403 -20.390   6.544  0.00  0.00    +0.010 C 
ENDBRANCH  14  22
ENDBRANCH   1  14
TORSDOF 4
ENDMDL
MODEL 5
REMARK VINA RESULT:      -9.1      1.406      3.722
REMARK  Name = *****
REMARK                            x       y       z     vdW  Elec       q    Type
REMARK                         _______ _______ _______ _____ _____    ______ ____
ROOT
ATOM      1  C   LIG    1       26.702 -20.726   6.735  0.00  0.00    +0.086 C 
ATOM      2  C   LIG    1       26.486 -20.536   8.191  0.00  0.00    +0.345 C 
ATOM      3  O   LIG    1       25.477 -20.943   8.768  0.00  0.00    -0.245 OA
ATOM      4  O   LIG    1       27.504 -19.930   8.920  0.00  0.00    -0.422 OA
ATOM      5  C   LIG    1       28.672 -19.438   8.314  0.00  0.00    +0.143 A 
ATOM      6  C   LIG    1       28.877 -19.593   6.948  0.00  0.00    +0.059 A 
ATOM      7  C   LIG    1       30.032 -19.018   6.395  0.00  0.00    +0.015 A 
ATOM      8  C   LIG    1       30.961 -18.351   7.204  0.00  0.00    +0.001 A 
ATOM      9  C   LIG    1       30.741 -18.236   8.576  0.00  0.00    +0.004 A 
ATOM     10  C   LIG    1       29.586 -18.777   9.136  0.00  0.00    +0.047 A 
ATOM     11  C   LIG    1       27.857 -20.312   6.179  0.00  0.00    +0.138 C 
ENDROOT
BRANCH  11  12
ATOM     12  O   LIG    1       28.134 -20.569   4.849  0.00  0.00    -0.505 OA
ATOM     13  H   LIG    1       27.850 -19.799   4.326  0.00  0.00    +0.292 HD
ENDBRANCH  11  12
BRANCH   1  14
ATOM     14  C   LIG    1       25.609 -21.442   5.940  0.00  0.00    +0.059 C 
BRANCH  14  15
ATOM     15  C   LIG    1       24.573 -20.461   5.349  0.00  0.00    -0.040 A 
ATOM     16  C   LIG    1       23.302 -20.267   5.913  0.00  0.00    +0.004 A 
ATOM     17  C   LIG    1       22.362 -19.419   5.317  0.00  0.00    +0.000 A 
ATOM     18  C   LIG    1       22.682 -18.721   4.158  0.00  0.00    +0.000 A 
ATOM     19  C   LIG    1       23.948 -18.870   3.598  0.00  0.00    +0.000 A 
ATOM     20  C   LIG    1       24.884 -19.731   4.185  0.00  0.00    +0.004 A 
ENDBRANCH  14  15
BRANCH  14  22
ATOM     21  C   LIG    1       25.810 -23.929   6.748  0.00  0.00    +0.005 C 
ATOM     22  C   LIG    1       24.957 -22.669   6.647  0.00  0.00    +0.010 C 
ENDBRANCH  14  22
ENDBRANCH   1  14
TORSDOF 4
ENDMDL
MODEL 6
REMARK VINA RESULT:      -8.5      2.561      7.094
REMARK  Name = *****
REMARK                            x       y       z     vdW  Elec       q    Type
REMARK                         _______ _______ _______ _____ _____    ______ ____
ROOT
ATOM      1  C   LIG    1       28.939 -20.040   7.510  0.00  0.00    +0.086 C 
ATOM      2  C   LIG    1       29.257 -19.330   6.246  0.00  0.00    +0.345 C 
ATOM      3  O   LIG    1       30.364 -18.837   6.026  0.00  0.00    -0.245 OA
ATOM      4  O   LIG    1       28.272 -19.288   5.265  0.00  0.00    -0.422 OA
ATOM      5  C   LIG    1       26.989 -19.824   5.465  0.00  0.00    +0.143 A 
ATOM      6  C   LIG    1       26.673 -20.474   6.652  0.00  0.00    +0.059 A 
ATOM      7  C   LIG    1       25.354 -20.926   6.814  0.00  0.00    +0.015 A 
ATOM      8  C   LIG    1       24.407 -20.761   5.795  0.00  0.00    +0.001 A 
ATOM      9  C   LIG    1       24.762 -20.129   4.604  0.00  0.00    +0.004 A 
ATOM     10  C   LIG    1       26.059 -19.651   4.438  0.00  0.00    +0.047 A 
ATOM     11  C   LIG    1       27.728 -20.610   7.661  0.00  0.00    +0.138 C 
ENDROOT
BRANCH  11  12
ATOM     12  O   LIG    1       27.437 -21.368   8.780  0.00  0.00    -0.505 OA
ATOM     13  H   LIG    1       28.011 -22.153   8.772  0.00  0.00    +0.292 HD
ENDBRANCH  11  12
BRANCH   1  14
ATOM     14  C   LIG    1       30.038 -20.136   8.570  0.00  0.00    +0.059 C 
BRANCH  14  15
ATOM     15  C   LIG    1       30.595 -18.752   8.967  0.00  0.00    -0.040 A 
ATOM     16  C   LIG    1       31.886 -18.323   8.618  0.00  0.00    +0.004 A 
ATOM     17  C   LIG    1       32.385 -17.088   9.048  0.00  0.00    +0.000 A 
ATOM     18  C   LIG    1       31.594 -16.240   9.812  0.00  0.00    +0.000 A 
ATOM     19  C   LIG    1       30.297 -16.626  10.143  0.00  0.00    +0.000 A 
ATOM     20  C   LIG    1       29.803 -17.869   9.727  0.00  0.00    +0.004 A 
ENDBRANCH  14  15
BRANCH  14  22
ATOM     21  C   LIG    1       31.308 -22.306   9.314  0.00  0.00    +0.005 C 
ATOM     22  C   LIG    1       31.154 -21.187   8.288  0.00  0.00    +0.010 C 
ENDBRANCH  14  22
ENDBRANCH   1  14
TORSDOF 4
ENDMDL
MODEL 7
REMARK VINA RESULT:      -8.5      2.686      4.269
REMARK  Name = *****
REMARK                            x       y       z     vdW  Elec       q    Type
REMARK                         _______ _______ _______ _____ _____    ______ ____
ROOT
ATOM      1  C   LIG    1       24.859 -22.225   6.117  0.00  0.00    +0.086 C 
ATOM      2  C   LIG    1       23.431 -22.488   6.423  0.00  0.00    +0.345 C 
ATOM      3  O   LIG    1       23.067 -23.449   7.102  0.00  0.00    -0.245 OA
ATOM      4  O   LIG    1       22.494 -21.566   5.969  0.00  0.00    -0.422 OA
ATOM      5  C   LIG    1       22.850 -20.458   5.183  0.00  0.00    +0.143 A 
ATOM      6  C   LIG    1       24.182 -20.212   4.872  0.00  0.00    +0.059 A 
ATOM      7  C   LIG    1       24.464 -19.127   4.027  0.00  0.00    +0.015 A 
ATOM      8  C   LIG    1       23.436 -18.302   3.551  0.00  0.00    +0.001 A 
ATOM      9  C   LIG    1       22.111 -18.558   3.901  0.00  0.00    +0.004 A 
ATOM     10  C   LIG    1       21.813 -19.646   4.718  0.00  0.00    +0.047 A 
ATOM     11  C   LIG    1       25.193 -21.121   5.421  0.00  0.00    +0.138 C 
ENDROOT
BRANCH  11  12
ATOM     12  O   LIG    1       26.519 -20.792   5.210  0.00  0.00    -0.505 OA
ATOM     13  H   LIG    1       26.557 -19.871   4.897  0.00  0.00    +0.292 HD
ENDBRANCH  11  12
BRANCH   1  14
ATOM     14  C   LIG    1       25.897 -23.208   6.661  0.00  0.00    +0.059 C 
BRANCH  14  15
ATOM     15  C   LIG    1       25.628 -24.659   6.209  0.00  0.00    -0.040 A 
ATOM     16  C   LIG    1       25.172 -24.982   4.920  0.00  0.00    +0.004 A 
ATOM     17  C   LIG    1       24.877 -26.301   4.560  0.00  0.00    +0.000 A 
ATOM     18  C   LIG    1       25.059 -27.334   5.472  0.00  0.00    +0.000 A 
ATOM     19  C   LIG    1       25.543 -27.045   6.745  0.00  0.00    +0.000 A 
ATOM     20  C   LIG    1       25.823 -25.722   7.111  0.00  0.00    +0.004 A 
ENDBRANCH  14  15
BRANCH  14  22
ATOM     21  C   LIG    1       26.060 -21.699   8.800  0.00  0.00    +0.005 C 
ATOM     22  C   LIG    1       26.202 -23.088   8.185  0.00  0.00    +0.010 C 
ENDBRANCH  14  22
ENDBRANCH   1  14
TORSDOF 4
ENDMDL
MODEL 8
REMARK VINA RESULT:      -8.2      1.648      5.647
REMARK  Name = *****
REMARK                            x       y       z     vdW  Elec       q    Type
REMARK                         _______ _______ _______ _____ _____    ______ ____
ROOT
ATOM      1  C   LIG    1       25.737 -22.209   6.392  0.00  0.00    +0.086 C 
ATOM      2  C   LIG    1       26.141 -22.753   7.712  0.00  0.00    +0.345 C 
ATOM      3  O   LIG    1       26.514 -22.031   8.637  0.00  0.00    -0.245 OA
ATOM      4  O   LIG    1       26.026 -24.125   7.907  0.00  0.00    -0.422 OA
ATOM      5  C   LIG    1       25.617 -24.997   6.885  0.00  0.00    +0.143 A 
ATOM      6  C   LIG    1       25.254 -24.502   5.637  0.00  0.00    +0.059 A 
ATOM      7  C   LIG    1       24.921 -25.433   4.640  0.00  0.00    +0.015 A 
ATOM      8  C   LIG    1       24.915 -26.807   4.913  0.00  0.00    +0.001 A 
ATOM      9  C   LIG    1       25.257 -27.272   6.182  0.00  0.00    +0.004 A 
ATOM     10  C   LIG    1       25.617 -26.363   7.175  0.00  0.00    +0.047 A 
ATOM     11  C   LIG    1       25.280 -23.050   5.443  0.00  0.00    +0.138 C 
ENDROOT
BRANCH  11  12
ATOM     12  O   LIG    1       24.796 -22.565   4.241  0.00  0.00    -0.505 OA
ATOM     13  H   LIG    1       23.854 -22.797   4.178  0.00  0.00    +0.292 HD
ENDBRANCH  11  12
BRANCH   1  14
ATOM     14  C   LIG    1       25.811 -20.695   6.192  0.00  0.00    +0.059 C 
BRANCH  14  15
ATOM     15  C   LIG    1       24.576 -20.138   5.451  0.00  0.00    -0.040 A 
ATOM     16  C   LIG    1       24.666 -19.462   4.223  0.00  0.00    +0.004 A 
ATOM     17  C   LIG    1       23.536 -18.913   3.608  0.00  0.00    +0.000 A 
ATOM     18  C   LIG    1       22.283 -19.053   4.192  0.00  0.00    +0.000 A 
ATOM     19  C   LIG    1       22.160 -19.748   5.392  0.00  0.00    +0.000 A 
ATOM     20  C   LIG    1       23.294 -20.284   6.017  0.00  0.00    +0.004 A 
ENDBRANCH  14  15
BRANCH  14  22
ATOM     21  C   LIG    1       28.282 -19.937   6.635  0.00  0.00    +0.005 C 
ATOM     22  C   LIG    1       27.159 -20.156   5.625  0.00  0.00    +0.010 C 
ENDBRANCH  14  22
ENDBRANCH   1  14
TORSDOF 4
ENDMDL
MODEL 9
REMARK VINA RESULT:      -8.0      1.543      6.052
REMARK  Name = *****
REMARK                            x       y       z     vdW  Elec       q    Type
REMARK                         _______ _______ _______ _____ _____    ______ ____
ROOT
ATOM      1  C   LIG    1       25.259 -22.395   6.094  0.00  0.00    +0.086 C 
ATOM      2  C   LIG    1       24.744 -22.647   4.726  0.00  0.00    +0.345 C 
ATOM      3  O   LIG    1       24.374 -21.738   3.982  0.00  0.00    -0.245 OA
ATOM      4  O   LIG    1       24.747 -23.960   4.268  0.00  0.00    -0.422 OA
ATOM      5  C   LIG    1       25.147 -25.037   5.076  0.00  0.00    +0.143 A 
ATOM      6  C   LIG    1       25.614 -24.815   6.367  0.00  0.00    +0.059 A 
ATOM      7  C   LIG    1       25.933 -25.940   7.145  0.00  0.00    +0.015 A 
ATOM      8  C   LIG    1       25.822 -27.233   6.618  0.00  0.00    +0.001 A 
ATOM      9  C   LIG    1       25.377 -27.422   5.310  0.00  0.00    +0.004 A 
ATOM     10  C   LIG    1       25.031 -26.318   4.534  0.00  0.00    +0.047 A 
ATOM     11  C   LIG    1       25.706 -23.429   6.834  0.00  0.00    +0.138 C 
ENDROOT
BRANCH  11  12
ATOM     12  O   LIG    1       26.290 -23.216   8.069  0.00  0.00    -0.505 OA
ATOM     13  H   LIG    1       27.113 -22.716   7.933  0.00  0.00    +0.292 HD
ENDBRANCH  11  12
BRANCH   1  14
ATOM     14  C   LIG    1       25.309 -20.945   6.581  0.00  0.00    +0.059 C 
BRANCH  14  15
ATOM     15  C   LIG    1       26.752 -20.411   6.695  0.00  0.00    -0.040 A 
ATOM     16  C   LIG    1       27.439 -20.329   7.918  0.00  0.00    +0.004 A 
ATOM     17  C   LIG    1       28.724 -19.780   7.997  0.00  0.00    +0.000 A 
ATOM     18  C   LIG    1       29.365 -19.328   6.850  0.00  0.00    +0.000 A 
ATOM     19  C   LIG    1       28.720 -19.429   5.620  0.00  0.00    +0.000 A 
ATOM     20  C   LIG    1       27.427 -19.964   5.542  0.00  0.00    +0.004 A 
ENDBRANCH  14  15
BRANCH  14  22
ATOM     21  C   LIG    1       23.108 -21.367   7.944  0.00  0.00    +0.005 C 
ATOM     22  C   LIG    1       24.437 -20.627   7.834  0.00  0.00    +0.010 C 
ENDBRANCH  14  22
ENDBRANCH   1  14
TORSDOF 4
ENDMDL
