MODEL 1
REMARK VINA RESULT:      -4.1      0.000      0.000
REMARK  Name = *****
REMARK                            x       y       z     vdW  Elec       q    Type
REMARK                         _______ _______ _______ _____ _____    ______ ____
ROOT
ATOM      1  C   LIG    1       25.559 -18.602   4.135  0.00  0.00    +0.079 A 
ATOM      2  C   LIG    1       25.914 -19.838   4.715  0.00  0.00    +0.134 A 
ATOM      3  C   LIG    1       24.921 -20.803   4.940  0.00  0.00    +0.070 A 
ATOM      4  C   LIG    1       23.586 -20.588   4.572  0.00  0.00    +0.042 A 
ATOM      5  C   LIG    1       23.230 -19.318   4.098  0.00  0.00    +0.039 A 
ATOM      6 BR   LIG    1       21.416 -18.900   3.719  0.00  0.00    -0.048 Br
ATOM      7  C   LIG    1       24.203 -18.346   3.858  0.00  0.00    +0.033 A 
ENDROOT
BRANCH   1  10
ATOM      8  N   LIG    1       26.019 -16.350   3.276  0.00  0.00    -0.310 N 
ATOM      9  H   LIG    1       25.011 -16.225   3.306  0.00  0.00    +0.149 HD
ATOM     10  C   LIG    1       26.537 -17.537   3.747  0.00  0.00    +0.248 C 
ATOM     11  O   LIG    1       27.739 -17.747   3.854  0.00  0.00    -0.270 OA
BRANCH   8  12
ATOM     12  C   LIG    1       26.820 -15.162   3.055  0.00  0.00    +0.120 C 
BRANCH  12  13
ATOM     13  C   LIG    1       26.523 -14.045   4.089  0.00  0.00    +0.103 C 
BRANCH  13  14
ATOM     14  N   LIG    1       25.362 -13.156   3.822  0.00  0.00    -0.301 NA
BRANCH  14  16
ATOM     15  C   LIG    1       24.543 -11.782   1.821  0.00  0.00    +0.020 C 
ATOM     16  C   LIG    1       25.059 -13.113   2.375  0.00  0.00    +0.081 C 
ENDBRANCH  14  16
BRANCH  14  17
ATOM     17  C   LIG    1       24.190 -13.457   4.654  0.00  0.00    +0.081 C 
ATOM     18  C   LIG    1       23.433 -14.702   4.196  0.00  0.00    +0.020 C 
ENDBRANCH  14  17
ENDBRANCH  13  14
ENDBRANCH  12  13
ENDBRANCH   8  12
ENDBRANCH   1  10
BRANCH   4  19
ATOM     19  N   LIG    1       22.634 -21.572   4.893  0.00  0.00    -0.357 N 
ATOM     20  H   LIG    1       23.020 -22.510   4.958  0.00  0.00    +0.142 HD
ATOM     21  H   LIG    1       21.820 -21.538   4.284  0.00  0.00    +0.142 HD
ENDBRANCH   4  19
BRANCH   2  22
ATOM     22  O   LIG    1       27.235 -20.040   5.033  0.00  0.00    -0.494 OA
ATOM     23  C   LIG    1       27.551 -20.318   6.394  0.00  0.00    +0.277 C 
ENDBRANCH   2  22
TORSDOF 8
ENDMDL
MODEL 2
REMARK VINA RESULT:      -4.0      2.485      6.250
REMARK  Name = *****
REMARK                            x       y       z     vdW  Elec       q    Type
REMARK                         _______ _______ _______ _____ _____    ______ ____
ROOT
ATOM      1  C   LIG    1       25.925 -16.812   3.546  0.00  0.00    +0.079 A 
ATOM      2  C   LIG    1       27.249 -16.869   4.030  0.00  0.00    +0.134 A 
ATOM      3  C   LIG    1       27.999 -15.688   4.121  0.00  0.00    +0.070 A 
ATOM      4  C   LIG    1       27.458 -14.441   3.779  0.00  0.00    +0.042 A 
ATOM      5  C   LIG    1       26.182 -14.414   3.200  0.00  0.00    +0.039 A 
ATOM      6 BR   LIG    1       25.439 -12.782   2.571  0.00  0.00    -0.048 Br
ATOM      7  C   LIG    1       25.414 -15.576   3.107  0.00  0.00    +0.033 A 
ENDROOT
BRANCH   1  10
ATOM      8  N   LIG    1       25.544 -19.221   3.278  0.00  0.00    -0.310 N 
ATOM      9  H   LIG    1       26.557 -19.292   3.250  0.00  0.00    +0.149 HD
ATOM     10  C   LIG    1       24.989 -17.980   3.502  0.00  0.00    +0.248 C 
ATOM     11  O   LIG    1       23.788 -17.803   3.660  0.00  0.00    -0.270 OA
BRANCH   8  12
ATOM     12  C   LIG    1       24.804 -20.461   3.410  0.00  0.00    +0.120 C 
BRANCH  12  13
ATOM     13  C   LIG    1       25.200 -21.257   4.680  0.00  0.00    +0.103 C 
BRANCH  13  14
ATOM     14  N   LIG    1       24.275 -21.196   5.843  0.00  0.00    -0.301 NA
BRANCH  14  16
ATOM     15  C   LIG    1       26.474 -20.404   6.890  0.00  0.00    +0.020 C 
ATOM     16  C   LIG    1       24.994 -20.760   7.060  0.00  0.00    +0.081 C 
ENDBRANCH  14  16
BRANCH  14  17
ATOM     17  C   LIG    1       23.053 -20.425   5.580  0.00  0.00    +0.081 C 
ATOM     18  C   LIG    1       21.900 -21.283   5.065  0.00  0.00    +0.020 C 
ENDBRANCH  14  17
ENDBRANCH  13  14
ENDBRANCH  12  13
ENDBRANCH   8  12
ENDBRANCH   1  10
BRANCH   4  19
ATOM     19  N   LIG    1       28.292 -13.310   3.830  0.00  0.00    -0.357 N 
ATOM     20  H   LIG    1       29.282 -13.527   3.755  0.00  0.00    +0.142 HD
ATOM     21  H   LIG    1       28.092 -12.715   4.631  0.00  0.00    +0.142 HD
ENDBRANCH   4  19
BRANCH   2  22
ATOM     22  O   LIG    1       27.745 -18.097   4.394  0.00  0.00    -0.494 OA
ATOM     23  C   LIG    1       28.937 -18.122   5.173  0.00  0.00    +0.277 C 
ENDBRANCH   2  22
TORSDOF 8
ENDMDL
MODEL 3
REMARK VINA RESULT:      -3.7      2.174      2.859
REMARK  Name = *****
REMARK                            x       y       z     vdW  Elec       q    Type
REMARK                         _______ _______ _______ _____ _____    ______ ____
ROOT
ATOM      1  C   LIG    1       24.858 -18.954   4.159  0.00  0.00    +0.079 A 
ATOM      2  C   LIG    1       23.464 -19.139   4.265  0.00  0.00    +0.134 A 
ATOM      3  C   LIG    1       22.958 -20.004   5.247  0.00  0.00    +0.070 A 
ATOM      4  C   LIG    1       23.799 -20.666   6.152  0.00  0.00    +0.042 A 
ATOM      5  C   LIG    1       25.183 -20.557   5.964  0.00  0.00    +0.039 A 
ATOM      6 BR   LIG    1       26.388 -21.542   7.054  0.00  0.00    -0.048 Br
ATOM      7  C   LIG    1       25.709 -19.695   5.000  0.00  0.00    +0.033 A 
ENDROOT
BRANCH   1  10
ATOM      8  N   LIG    1       25.402 -16.642   3.539  0.00  0.00    -0.310 N 
ATOM      9  H   LIG    1       24.967 -16.394   4.423  0.00  0.00    +0.149 HD
ATOM     10  C   LIG    1       25.514 -17.980   3.229  0.00  0.00    +0.248 C 
ATOM     11  O   LIG    1       26.114 -18.390   2.244  0.00  0.00    -0.270 OA
BRANCH   8  12
ATOM     12  C   LIG    1       26.147 -15.600   2.859  0.00  0.00    +0.120 C 
BRANCH  12  13
ATOM     13  C   LIG    1       26.503 -14.417   3.796  0.00  0.00    +0.103 C 
BRANCH  13  14
ATOM     14  N   LIG    1       25.756 -13.146   3.607  0.00  0.00    -0.301 NA
BRANCH  14  16
ATOM     15  C   LIG    1       24.629 -11.704   1.815  0.00  0.00    +0.020 C 
ATOM     16  C   LIG    1       25.224 -13.052   2.230  0.00  0.00    +0.081 C 
ENDBRANCH  14  16
BRANCH  14  17
ATOM     17  C   LIG    1       24.742 -12.903   4.641  0.00  0.00    +0.081 C 
ATOM     18  C   LIG    1       23.812 -14.094   4.862  0.00  0.00    +0.020 C 
ENDBRANCH  14  17
ENDBRANCH  13  14
ENDBRANCH  12  13
ENDBRANCH   8  12
ENDBRANCH   1  10
BRANCH   4  19
ATOM     19  N   LIG    1       23.226 -21.571   7.062  0.00  0.00    -0.357 N 
ATOM     20  H   LIG    1       23.726 -22.454   7.133  0.00  0.00    +0.142 HD
ATOM     21  H   LIG    1       22.231 -21.710   6.898  0.00  0.00    +0.142 HD
ENDBRANCH   4  19
BRANCH   2  22
ATOM     22  O   LIG    1       22.658 -18.451   3.392  0.00  0.00    -0.494 OA
ATOM     23  C   LIG    1       21.287 -18.293   3.743  0.00  0.00    +0.277 C 
ENDBRANCH   2  22
TORSDOF 8
ENDMDL
MODEL 4
REMARK VINA RESULT:      -3.6      2.640      6.460
REMARK  Name = *****
REMARK                            x       y       z     vdW  Elec       q    Type
REMARK                         _______ _______ _______ _____ _____    ______ ____
ROOT
ATOM      1  C   LIG    1       25.335 -16.256   3.671  0.00  0.00    +0.079 A 
ATOM      2  C   LIG    1       24.027 -15.826   3.978  0.00  0.00    +0.134 A 
ATOM      3  C   LIG    1       23.732 -14.455   3.959  0.00  0.00    +0.070 A 
ATOM      4  C   LIG    1       24.692 -13.497   3.609  0.00  0.00    +0.042 A 
ATOM      5  C   LIG    1       26.011 -13.929   3.412  0.00  0.00    +0.039 A 
ATOM      6 BR   LIG    1       27.401 -12.677   3.081  0.00  0.00    -0.048 Br
ATOM      7  C   LIG    1       26.327 -15.289   3.417  0.00  0.00    +0.033 A 
ENDROOT
BRANCH   1  10
ATOM      8  N   LIG    1       24.745 -18.625   3.421  0.00  0.00    -0.310 N 
ATOM      9  H   LIG    1       23.792 -18.288   3.319  0.00  0.00    +0.149 HD
ATOM     10  C   LIG    1       25.749 -17.690   3.551  0.00  0.00    +0.248 C 
ATOM     11  O   LIG    1       26.938 -17.984   3.574  0.00  0.00    -0.270 OA
BRANCH   8  12
ATOM     12  C   LIG    1       24.987 -20.016   3.093  0.00  0.00    +0.120 C 
BRANCH  12  13
ATOM     13  C   LIG    1       24.647 -20.971   4.266  0.00  0.00    +0.103 C 
BRANCH  13  14
ATOM     14  N   LIG    1       24.531 -20.376   5.623  0.00  0.00    -0.301 NA
BRANCH  14  16
ATOM     15  C   LIG    1       22.038 -20.510   5.054  0.00  0.00    +0.020 C 
ATOM     16  C   LIG    1       23.139 -20.468   6.116  0.00  0.00    +0.081 C 
ENDBRANCH  14  16
BRANCH  14  17
ATOM     17  C   LIG    1       25.522 -20.891   6.576  0.00  0.00    +0.081 C 
ATOM     18  C   LIG    1       26.931 -20.358   6.326  0.00  0.00    +0.020 C 
ENDBRANCH  14  17
ENDBRANCH  13  14
ENDBRANCH  12  13
ENDBRANCH   8  12
ENDBRANCH   1  10
BRANCH   4  19
ATOM     19  N   LIG    1       24.343 -12.138   3.680  0.00  0.00    -0.357 N 
ATOM     20  H   LIG    1       24.077 -11.831   4.612  0.00  0.00    +0.142 HD
ATOM     21  H   LIG    1       23.649 -11.877   2.983  0.00  0.00    +0.142 HD
ENDBRANCH   4  19
BRANCH   2  22
ATOM     22  O   LIG    1       23.093 -16.786   4.283  0.00  0.00    -0.494 OA
ATOM     23  C   LIG    1       21.956 -16.383   5.039  0.00  0.00    +0.277 C 
ENDBRANCH   2  22
TORSDOF 8
ENDMDL
MODEL 5
REMARK VINA RESULT:      -3.6      2.524      6.566
REMARK  Name = *****
REMARK                            x       y       z     vdW  Elec       q    Type
REMARK                         _______ _______ _______ _____ _____    ______ ____
ROOT
ATOM      1  C   LIG    1       24.571 -15.720   3.679  0.00  0.00    +0.079 A 
ATOM      2  C   LIG    1       25.936 -15.817   3.337  0.00  0.00    +0.134 A 
ATOM      3  C   LIG    1       26.668 -14.646   3.092  0.00  0.00    +0.070 A 
ATOM      4  C   LIG    1       26.090 -13.375   3.211  0.00  0.00    +0.042 A 
ATOM      5  C   LIG    1       24.710 -13.299   3.445  0.00  0.00    +0.039 A 
ATOM      6 BR   LIG    1       23.824 -11.619   3.471  0.00  0.00    -0.048 Br
ATOM      7  C   LIG    1       23.964 -14.451   3.701  0.00  0.00    +0.033 A 
ENDROOT
BRANCH   1  10
ATOM      8  N   LIG    1       24.108 -18.130   3.635  0.00  0.00    -0.310 N 
ATOM      9  H   LIG    1       25.002 -18.207   3.160  0.00  0.00    +0.149 HD
ATOM     10  C   LIG    1       23.711 -16.883   4.068  0.00  0.00    +0.248 C 
ATOM     11  O   LIG    1       22.706 -16.697   4.741  0.00  0.00    -0.270 OA
BRANCH   8  12
ATOM     12  C   LIG    1       23.502 -19.364   4.095  0.00  0.00    +0.120 C 
BRANCH  12  13
ATOM     13  C   LIG    1       24.497 -20.553   4.088  0.00  0.00    +0.103 C 
BRANCH  13  14
ATOM     14  N   LIG    1       24.355 -21.572   5.162  0.00  0.00    -0.301 NA
BRANCH  14  16
ATOM     15  C   LIG    1       26.561 -20.448   5.819  0.00  0.00    +0.020 C 
ATOM     16  C   LIG    1       25.545 -21.572   6.041  0.00  0.00    +0.081 C 
ENDBRANCH  14  16
BRANCH  14  17
ATOM     17  C   LIG    1       23.088 -21.476   5.897  0.00  0.00    +0.081 C 
ATOM     18  C   LIG    1       23.142 -20.490   7.062  0.00  0.00    +0.020 C 
ENDBRANCH  14  17
ENDBRANCH  13  14
ENDBRANCH  12  13
ENDBRANCH   8  12
ENDBRANCH   1  10
BRANCH   4  19
ATOM     19  N   LIG    1       26.866 -12.251   2.882  0.00  0.00    -0.357 N 
ATOM     20  H   LIG    1       26.967 -12.100   1.881  0.00  0.00    +0.142 HD
ATOM     21  H   LIG    1       27.765 -12.245   3.359  0.00  0.00    +0.142 HD
ENDBRANCH   4  19
BRANCH   2  22
ATOM     22  O   LIG    1       26.491 -17.072   3.263  0.00  0.00    -0.494 OA
ATOM     23  C   LIG    1       27.626 -17.341   4.079  0.00  0.00    +0.277 C 
ENDBRANCH   2  22
TORSDOF 8
ENDMDL
MODEL 6
REMARK VINA RESULT:      -3.6      2.745      6.648
REMARK  Name = *****
REMARK                            x       y       z     vdW  Elec       q    Type
REMARK                         _______ _______ _______ _____ _____    ______ ____
ROOT
ATOM      1  C   LIG    1       25.176 -16.230   3.688  0.00  0.00    +0.079 A 
ATOM      2  C   LIG    1       24.001 -15.547   4.066  0.00  0.00    +0.134 A 
ATOM      3  C   LIG    1       24.050 -14.160   4.273  0.00  0.00    +0.070 A 
ATOM      4  C   LIG    1       25.227 -13.425   4.080  0.00  0.00    +0.042 A 
ATOM      5  C   LIG    1       26.407 -14.132   3.810  0.00  0.00    +0.039 A 
ATOM      6 BR   LIG    1       28.071 -13.224   3.683  0.00  0.00    -0.048 Br
ATOM      7  C   LIG    1       26.381 -15.510   3.592  0.00  0.00    +0.033 A 
ENDROOT
BRANCH   1  10
ATOM      8  N   LIG    1       24.292 -18.509   3.914  0.00  0.00    -0.310 N 
ATOM      9  H   LIG    1       23.560 -18.078   4.471  0.00  0.00    +0.149 HD
ATOM     10  C   LIG    1       25.232 -17.684   3.334  0.00  0.00    +0.248 C 
ATOM     11  O   LIG    1       26.090 -18.089   2.561  0.00  0.00    -0.270 OA
BRANCH   8  12
ATOM     12  C   LIG    1       24.088 -19.889   3.518  0.00  0.00    +0.120 C 
BRANCH  12  13
ATOM     13  C   LIG    1       25.195 -20.831   4.058  0.00  0.00    +0.103 C 
BRANCH  13  14
ATOM     14  N   LIG    1       24.970 -21.462   5.385  0.00  0.00    -0.301 NA
BRANCH  14  16
ATOM     15  C   LIG    1       27.104 -20.156   5.935  0.00  0.00    +0.020 C 
ATOM     16  C   LIG    1       25.810 -20.817   6.418  0.00  0.00    +0.081 C 
ENDBRANCH  14  16
BRANCH  14  17
ATOM     17  C   LIG    1       23.553 -21.553   5.759  0.00  0.00    +0.081 C 
ATOM     18  C   LIG    1       23.229 -20.825   7.062  0.00  0.00    +0.020 C 
ENDBRANCH  14  17
ENDBRANCH  13  14
ENDBRANCH  12  13
ENDBRANCH   8  12
ENDBRANCH   1  10
BRANCH   4  19
ATOM     19  N   LIG    1       25.217 -12.051   4.374  0.00  0.00    -0.357 N 
ATOM     20  H   LIG    1       24.299 -11.692   4.626  0.00  0.00    +0.142 HD
ATOM     21  H   LIG    1       25.656 -11.493   3.645  0.00  0.00    +0.142 HD
ENDBRANCH   4  19
BRANCH   2  22
ATOM     22  O   LIG    1       22.851 -16.282   4.213  0.00  0.00    -0.494 OA
ATOM     23  C   LIG    1       21.987 -15.948   5.295  0.00  0.00    +0.277 C 
ENDBRANCH   2  22
TORSDOF 8
ENDMDL
MODEL 7
REMARK VINA RESULT:      -3.4      1.270      2.053
REMARK  Name = *****
REMARK                            x       y       z     vdW  Elec       q    Type
REMARK                         _______ _______ _______ _____ _____    ______ ____
ROOT
ATOM      1  C   LIG    1       24.794 -19.256   4.337  0.00  0.00    +0.079 A 
ATOM      2  C   LIG    1       24.864 -20.458   5.072  0.00  0.00    +0.134 A 
ATOM      3  C   LIG    1       23.695 -21.204   5.281  0.00  0.00    +0.070 A 
ATOM      4  C   LIG    1       22.460 -20.807   4.751  0.00  0.00    +0.042 A 
ATOM      5  C   LIG    1       22.386 -19.559   4.118  0.00  0.00    +0.039 A 
ATOM      6 BR   LIG    1       20.721 -18.881   3.504  0.00  0.00    -0.048 Br
ATOM      7  C   LIG    1       23.538 -18.803   3.890  0.00  0.00    +0.033 A 
ENDROOT
BRANCH   1  10
ATOM      8  N   LIG    1       25.733 -17.174   3.438  0.00  0.00    -0.310 N 
ATOM      9  H   LIG    1       24.773 -16.843   3.433  0.00  0.00    +0.149 HD
ATOM     10  C   LIG    1       25.982 -18.428   3.954  0.00  0.00    +0.248 C 
ATOM     11  O   LIG    1       27.110 -18.878   4.104  0.00  0.00    -0.270 OA
BRANCH   8  12
ATOM     12  C   LIG    1       26.768 -16.184   3.214  0.00  0.00    +0.120 C 
BRANCH  12  13
ATOM     13  C   LIG    1       26.200 -14.835   2.703  0.00  0.00    +0.103 C 
BRANCH  13  14
ATOM     14  N   LIG    1       26.674 -13.595   3.372  0.00  0.00    -0.301 NA
BRANCH  14  16
ATOM     15  C   LIG    1       24.264 -13.750   4.226  0.00  0.00    +0.020 C 
ATOM     16  C   LIG    1       25.581 -12.973   4.153  0.00  0.00    +0.081 C 
ENDBRANCH  14  16
BRANCH  14  17
ATOM     17  C   LIG    1       27.909 -13.780   4.144  0.00  0.00    +0.081 C 
ATOM     18  C   LIG    1       28.800 -12.540   4.158  0.00  0.00    +0.020 C 
ENDBRANCH  14  17
ENDBRANCH  13  14
ENDBRANCH  12  13
ENDBRANCH   8  12
ENDBRANCH   1  10
BRANCH   4  19
ATOM     19  N   LIG    1       21.320 -21.568   5.062  0.00  0.00    -0.357 N 
ATOM     20  H   LIG    1       20.464 -21.021   5.117  0.00  0.00    +0.142 HD
ATOM     21  H   LIG    1       21.453 -22.149   5.886  0.00  0.00    +0.142 HD
ENDBRANCH   4  19
BRANCH   2  22
ATOM     22  O   LIG    1       26.091 -20.846   5.550  0.00  0.00    -0.494 OA
ATOM     23  C   LIG    1       26.291 -20.812   6.959  0.00  0.00    +0.277 C 
ENDBRANCH   2  22
TORSDOF 8
ENDMDL
MODEL 8
REMARK VINA RESULT:      -2.8      1.872      3.160
REMARK  Name = *****
REMARK                            x       y       z     vdW  Elec       q    Type
REMARK                         _______ _______ _______ _____ _____    ______ ____
ROOT
ATOM      1  C   LIG    1       24.903 -17.429   3.649  0.00  0.00    +0.079 A 
ATOM      2  C   LIG    1       23.648 -16.941   4.068  0.00  0.00    +0.134 A 
ATOM      3  C   LIG    1       22.649 -17.850   4.445  0.00  0.00    +0.070 A 
ATOM      4  C   LIG    1       22.872 -19.234   4.451  0.00  0.00    +0.042 A 
ATOM      5  C   LIG    1       24.085 -19.706   3.930  0.00  0.00    +0.039 A 
ATOM      6 BR   LIG    1       24.406 -21.571   3.763  0.00  0.00    -0.048 Br
ATOM      7  C   LIG    1       25.097 -18.820   3.557  0.00  0.00    +0.033 A 
ENDROOT
BRANCH   1  10
ATOM      8  N   LIG    1       25.841 -15.421   2.594  0.00  0.00    -0.310 N 
ATOM      9  H   LIG    1       24.875 -15.179   2.395  0.00  0.00    +0.149 HD
ATOM     10  C   LIG    1       26.082 -16.564   3.326  0.00  0.00    +0.248 C 
ATOM     11  O   LIG    1       27.199 -16.889   3.710  0.00  0.00    -0.270 OA
BRANCH   8  12
ATOM     12  C   LIG    1       26.835 -14.387   2.379  0.00  0.00    +0.120 C 
BRANCH  12  13
ATOM     13  C   LIG    1       26.378 -13.005   2.913  0.00  0.00    +0.103 C 
BRANCH  13  14
ATOM     14  N   LIG    1       25.169 -12.969   3.776  0.00  0.00    -0.301 NA
BRANCH  14  16
ATOM     15  C   LIG    1       26.748 -13.523   5.715  0.00  0.00    +0.020 C 
ATOM     16  C   LIG    1       25.543 -12.739   5.189  0.00  0.00    +0.081 C 
ENDBRANCH  14  16
BRANCH  14  17
ATOM     17  C   LIG    1       24.130 -12.051   3.293  0.00  0.00    +0.081 C 
ATOM     18  C   LIG    1       24.279 -11.701   1.814  0.00  0.00    +0.020 C 
ENDBRANCH  14  17
ENDBRANCH  13  14
ENDBRANCH  12  13
ENDBRANCH   8  12
ENDBRANCH   1  10
BRANCH   4  19
ATOM     19  N   LIG    1       21.802 -20.086   4.773  0.00  0.00    -0.357 N 
ATOM     20  H   LIG    1       21.356 -20.509   3.963  0.00  0.00    +0.142 HD
ATOM     21  H   LIG    1       21.125 -19.645   5.391  0.00  0.00    +0.142 HD
ENDBRANCH   4  19
BRANCH   2  22
ATOM     22  O   LIG    1       23.464 -15.581   4.090  0.00  0.00    -0.494 OA
ATOM     23  C   LIG    1       22.670 -15.039   5.141  0.00  0.00    +0.277 C 
ENDBRANCH   2  22
TORSDOF 8
ENDMDL
MODEL 9
REMARK VINA RESULT:      -2.8      2.864      3.729
REMARK  Name = *****
REMARK                            x       y       z     vdW  Elec       q    Type
REMARK                         _______ _______ _______ _____ _____    ______ ____
ROOT
ATOM      1  C   LIG    1       25.389 -19.713   4.748  0.00  0.00    +0.079 A 
ATOM      2  C   LIG    1       25.161 -20.939   5.408  0.00  0.00    +0.134 A 
ATOM      3  C   LIG    1       26.189 -21.507   6.176  0.00  0.00    +0.070 A 
ATOM      4  C   LIG    1       27.428 -20.873   6.336  0.00  0.00    +0.042 A 
ATOM      5  C   LIG    1       27.676 -19.713   5.588  0.00  0.00    +0.039 A 
ATOM      6 BR   LIG    1       29.381 -18.878   5.634  0.00  0.00    -0.048 Br
ATOM      7  C   LIG    1       26.666 -19.126   4.824  0.00  0.00    +0.033 A 
ENDROOT
BRANCH   1  10
ATOM      8  N   LIG    1       23.969 -17.727   4.494  0.00  0.00    -0.310 N 
ATOM      9  H   LIG    1       24.483 -17.364   5.292  0.00  0.00    +0.149 HD
ATOM     10  C   LIG    1       24.344 -18.954   3.990  0.00  0.00    +0.248 C 
ATOM     11  O   LIG    1       23.864 -19.432   2.970  0.00  0.00    -0.270 OA
BRANCH   8  12
ATOM     12  C   LIG    1       23.130 -16.790   3.773  0.00  0.00    +0.120 C 
BRANCH  12  13
ATOM     13  C   LIG    1       23.340 -15.326   4.236  0.00  0.00    +0.103 C 
BRANCH  13  14
ATOM     14  N   LIG    1       24.342 -14.511   3.498  0.00  0.00    -0.301 NA
BRANCH  14  16
ATOM     15  C   LIG    1       24.711 -12.225   2.405  0.00  0.00    +0.020 C 
ATOM     16  C   LIG    1       23.779 -13.190   3.142  0.00  0.00    +0.081 C 
ENDBRANCH  14  16
BRANCH  14  17
ATOM     17  C   LIG    1       25.642 -14.427   4.175  0.00  0.00    +0.081 C 
ATOM     18  C   LIG    1       26.749 -15.184   3.445  0.00  0.00    +0.020 C 
ENDBRANCH  14  17
ENDBRANCH  13  14
ENDBRANCH  12  13
ENDBRANCH   8  12
ENDBRANCH   1  10
BRANCH   4  19
ATOM     19  N   LIG    1       28.433 -21.536   7.062  0.00  0.00    -0.357 N 
ATOM     20  H   LIG    1       28.568 -21.172   8.002  0.00  0.00    +0.142 HD
ATOM     21  H   LIG    1       29.309 -21.595   6.548  0.00  0.00    +0.142 HD
ENDBRANCH   4  19
BRANCH   2  22
ATOM     22  O   LIG    1       23.927 -21.523   5.267  0.00  0.00    -0.494 OA
ATOM     23  C   LIG    1       23.023 -21.430   6.363  0.00  0.00    +0.277 C 
ENDBRANCH   2  22
TORSDOF 8
ENDMDL
