MODEL 1
REMARK VINA RESULT:      -6.0      0.000      0.000
REMARK  Name = *****
REMARK                            x       y       z     vdW  Elec       q    Type
REMARK                         _______ _______ _______ _____ _____    ______ ____
ROOT
ATOM      1  C   LIG    1       25.367 -15.332   3.436  0.00  0.00    -0.034 A 
ATOM      2  C   LIG    1       25.734 -16.670   3.236  0.00  0.00    +0.005 A 
ATOM      3  C   LIG    1       24.870 -17.711   3.588  0.00  0.00    +0.004 A 
ATOM      4  C   LIG    1       23.622 -17.438   4.155  0.00  0.00    -0.047 A 
ATOM      5  C   LIG    1       23.249 -16.102   4.351  0.00  0.00    +0.004 A 
ATOM      6  C   LIG    1       24.111 -15.059   3.996  0.00  0.00    +0.005 A 
ENDROOT
BRANCH   1   8
ATOM      7  C   LIG    1       25.524 -13.009   2.474  0.00  0.00    +0.024 C 
ATOM      8  C   LIG    1       26.304 -14.198   3.043  0.00  0.00    +0.124 C 
BRANCH   8   9
ATOM      9  C   LIG    1       27.206 -13.749   4.192  0.00  0.00    +0.312 C 
ATOM     10  O   LIG    1       26.846 -13.638   5.359  0.00  0.00    -0.250 OA
BRANCH   9  11
ATOM     11  O   LIG    1       28.458 -13.407   3.806  0.00  0.00    -0.480 OA
ATOM     12  H   LIG    1       28.986 -12.990   4.516  0.00  0.00    +0.295 HD
ENDBRANCH   9  11
ENDBRANCH   8   9
ENDBRANCH   1   8
BRANCH   4  13
ATOM     13  C   LIG    1       22.681 -18.559   4.530  0.00  0.00    +0.046 C 
BRANCH  13  14
ATOM     14  C   LIG    1       23.283 -19.963   4.398  0.00  0.00    +0.059 C 
ATOM     15  C   LIG    1       22.352 -20.957   5.062  0.00  0.00    +0.137 C 
ATOM     16  O   LIG    1       21.255 -21.268   4.615  0.00  0.00    -0.297 OA
ATOM     17  C   LIG    1       22.921 -21.515   6.343  0.00  0.00    +0.075 C 
ATOM     18  C   LIG    1       24.110 -20.599   6.589  0.00  0.00    +0.008 C 
ATOM     19  C   LIG    1       24.572 -20.199   5.196  0.00  0.00    +0.012 C 
ENDBRANCH  13  14
ENDBRANCH   4  13
TORSDOF 5
ENDMDL
MODEL 2
REMARK VINA RESULT:      -5.8      1.741      6.956
REMARK  Name = *****
REMARK                            x       y       z     vdW  Elec       q    Type
REMARK                         _______ _______ _______ _____ _____    ______ ____
ROOT
ATOM      1  C   LIG    1       23.477 -19.115   4.266  0.00  0.00    -0.034 A 
ATOM      2  C   LIG    1       24.533 -18.377   3.712  0.00  0.00    +0.005 A 
ATOM      3  C   LIG    1       24.481 -16.982   3.656  0.00  0.00    +0.004 A 
ATOM      4  C   LIG    1       23.369 -16.291   4.146  0.00  0.00    -0.047 A 
ATOM      5  C   LIG    1       22.314 -17.024   4.705  0.00  0.00    +0.004 A 
ATOM      6  C   LIG    1       22.366 -18.421   4.764  0.00  0.00    +0.005 A 
ENDROOT
BRANCH   1   8
ATOM      7  C   LIG    1       24.961 -21.116   4.635  0.00  0.00    +0.024 C 
ATOM      8  C   LIG    1       23.539 -20.635   4.337  0.00  0.00    +0.124 C 
BRANCH   8   9
ATOM      9  C   LIG    1       22.550 -21.221   5.343  0.00  0.00    +0.312 C 
ATOM     10  O   LIG    1       22.798 -21.428   6.526  0.00  0.00    -0.250 OA
BRANCH   9  11
ATOM     11  O   LIG    1       21.359 -21.571   4.803  0.00  0.00    -0.480 OA
ATOM     12  H   LIG    1       21.441 -22.122   3.998  0.00  0.00    +0.295 HD
ENDBRANCH   9  11
ENDBRANCH   8   9
ENDBRANCH   1   8
BRANCH   4  13
ATOM     13  C   LIG    1       23.311 -14.782   4.094  0.00  0.00    +0.046 C 
BRANCH  13  14
ATOM     14  C   LIG    1       24.650 -14.087   4.365  0.00  0.00    +0.059 C 
ATOM     15  C   LIG    1       24.535 -12.632   3.958  0.00  0.00    +0.137 C 
ATOM     16  O   LIG    1       23.860 -11.805   4.560  0.00  0.00    -0.297 OA
ATOM     17  C   LIG    1       25.335 -12.313   2.720  0.00  0.00    +0.075 C 
ATOM     18  C   LIG    1       25.707 -13.700   2.216  0.00  0.00    +0.008 C 
ATOM     19  C   LIG    1       25.815 -14.543   3.478  0.00  0.00    +0.012 C 
ENDBRANCH  13  14
ENDBRANCH   4  13
TORSDOF 5
ENDMDL
MODEL 3
REMARK VINA RESULT:      -5.5      1.441      2.049
REMARK  Name = *****
REMARK                            x       y       z     vdW  Elec       q    Type
REMARK                         _______ _______ _______ _____ _____    ______ ____
ROOT
ATOM      1  C   LIG    1       24.724 -15.158   3.812  0.00  0.00    -0.034 A 
ATOM      2  C   LIG    1       23.464 -15.063   4.419  0.00  0.00    +0.005 A 
ATOM      3  C   LIG    1       22.691 -16.204   4.650  0.00  0.00    +0.004 A 
ATOM      4  C   LIG    1       23.157 -17.467   4.272  0.00  0.00    -0.047 A 
ATOM      5  C   LIG    1       24.418 -17.567   3.669  0.00  0.00    +0.004 A 
ATOM      6  C   LIG    1       25.194 -16.425   3.441  0.00  0.00    +0.005 A 
ENDROOT
BRANCH   1   8
ATOM      7  C   LIG    1       26.685 -14.195   2.558  0.00  0.00    +0.024 C 
ATOM      8  C   LIG    1       25.570 -13.915   3.571  0.00  0.00    +0.124 C 
BRANCH   8   9
ATOM      9  C   LIG    1       24.740 -12.708   3.137  0.00  0.00    +0.312 C 
ATOM     10  O   LIG    1       24.505 -12.405   1.972  0.00  0.00    -0.250 OA
BRANCH   9  11
ATOM     11  O   LIG    1       24.323 -11.930   4.164  0.00  0.00    -0.480 OA
ATOM     12  H   LIG    1       24.777 -12.122   5.009  0.00  0.00    +0.295 HD
ENDBRANCH   9  11
ENDBRANCH   8   9
ENDBRANCH   1   8
BRANCH   4  13
ATOM     13  C   LIG    1       22.329 -18.705   4.525  0.00  0.00    +0.046 C 
BRANCH  13  14
ATOM     14  C   LIG    1       23.101 -20.023   4.389  0.00  0.00    +0.059 C 
ATOM     15  C   LIG    1       22.332 -21.114   5.107  0.00  0.00    +0.137 C 
ATOM     16  O   LIG    1       21.266 -21.571   4.712  0.00  0.00    -0.297 OA
ATOM     17  C   LIG    1       23.019 -21.569   6.370  0.00  0.00    +0.075 C 
ATOM     18  C   LIG    1       24.090 -20.504   6.552  0.00  0.00    +0.008 C 
ATOM     19  C   LIG    1       24.440 -20.076   5.134  0.00  0.00    +0.012 C 
ENDBRANCH  13  14
ENDBRANCH   4  13
TORSDOF 5
ENDMDL
MODEL 4
REMARK VINA RESULT:      -5.5      1.265      2.120
REMARK  Name = *****
REMARK                            x       y       z     vdW  Elec       q    Type
REMARK                         _______ _______ _______ _____ _____    ______ ____
ROOT
ATOM      1  C   LIG    1       25.880 -15.035   3.424  0.00  0.00    -0.034 A 
ATOM      2  C   LIG    1       24.540 -15.207   3.801  0.00  0.00    +0.005 A 
ATOM      3  C   LIG    1       23.991 -16.485   3.933  0.00  0.00    +0.004 A 
ATOM      4  C   LIG    1       24.766 -17.622   3.684  0.00  0.00    -0.047 A 
ATOM      5  C   LIG    1       26.106 -17.455   3.312  0.00  0.00    +0.004 A 
ATOM      6  C   LIG    1       26.658 -16.176   3.182  0.00  0.00    +0.005 A 
ENDROOT
BRANCH   1   8
ATOM      7  C   LIG    1       25.388 -12.583   3.124  0.00  0.00    +0.024 C 
ATOM      8  C   LIG    1       26.481 -13.643   3.290  0.00  0.00    +0.124 C 
BRANCH   8   9
ATOM      9  C   LIG    1       27.407 -13.283   4.452  0.00  0.00    +0.312 C 
ATOM     10  O   LIG    1       28.583 -12.955   4.331  0.00  0.00    -0.250 OA
BRANCH   9  11
ATOM     11  O   LIG    1       26.836 -13.420   5.672  0.00  0.00    -0.480 OA
ATOM     12  H   LIG    1       26.409 -12.602   5.998  0.00  0.00    +0.295 HD
ENDBRANCH   9  11
ENDBRANCH   8   9
ENDBRANCH   1   8
BRANCH   4  13
ATOM     13  C   LIG    1       24.179 -19.006   3.832  0.00  0.00    +0.046 C 
BRANCH  13  14
ATOM     14  C   LIG    1       23.311 -19.196   5.082  0.00  0.00    +0.059 C 
ATOM     15  C   LIG    1       23.805 -20.413   5.838  0.00  0.00    +0.137 C 
ATOM     16  O   LIG    1       24.872 -20.456   6.439  0.00  0.00    -0.297 OA
ATOM     17  C   LIG    1       22.844 -21.572   5.760  0.00  0.00    +0.075 C 
ATOM     18  C   LIG    1       21.878 -21.112   4.677  0.00  0.00    +0.008 C 
ATOM     19  C   LIG    1       21.855 -19.597   4.811  0.00  0.00    +0.012 C 
ENDBRANCH  13  14
ENDBRANCH   4  13
TORSDOF 5
ENDMDL
MODEL 5
REMARK VINA RESULT:      -5.2      1.834      6.900
REMARK  Name = *****
REMARK                            x       y       z     vdW  Elec       q    Type
REMARK                         _______ _______ _______ _____ _____    ______ ____
ROOT
ATOM      1  C   LIG    1       25.170 -19.965   4.722  0.00  0.00    -0.034 A 
ATOM      2  C   LIG    1       24.123 -19.186   4.210  0.00  0.00    +0.005 A 
ATOM      3  C   LIG    1       24.377 -17.958   3.595  0.00  0.00    +0.004 A 
ATOM      4  C   LIG    1       25.684 -17.475   3.484  0.00  0.00    -0.047 A 
ATOM      5  C   LIG    1       26.734 -18.252   3.989  0.00  0.00    +0.004 A 
ATOM      6  C   LIG    1       26.482 -19.484   4.603  0.00  0.00    +0.005 A 
ENDROOT
BRANCH   1   8
ATOM      7  C   LIG    1       25.875 -21.572   6.529  0.00  0.00    +0.024 C 
ATOM      8  C   LIG    1       24.894 -21.309   5.383  0.00  0.00    +0.124 C 
BRANCH   8   9
ATOM      9  C   LIG    1       23.451 -21.445   5.868  0.00  0.00    +0.312 C 
ATOM     10  O   LIG    1       23.116 -21.539   7.044  0.00  0.00    -0.250 OA
BRANCH   9  11
ATOM     11  O   LIG    1       22.541 -21.525   4.869  0.00  0.00    -0.480 OA
ATOM     12  H   LIG    1       21.712 -21.974   5.129  0.00  0.00    +0.295 HD
ENDBRANCH   9  11
ENDBRANCH   8   9
ENDBRANCH   1   8
BRANCH   4  13
ATOM     13  C   LIG    1       25.965 -16.150   2.813  0.00  0.00    +0.046 C 
BRANCH  13  14
ATOM     14  C   LIG    1       25.958 -14.945   3.761  0.00  0.00    +0.059 C 
ATOM     15  C   LIG    1       24.616 -14.250   3.656  0.00  0.00    +0.137 C 
ATOM     16  O   LIG    1       23.567 -14.724   4.075  0.00  0.00    -0.297 OA
ATOM     17  C   LIG    1       24.710 -12.913   2.966  0.00  0.00    +0.075 C 
ATOM     18  C   LIG    1       26.118 -12.950   2.389  0.00  0.00    +0.008 C 
ATOM     19  C   LIG    1       26.905 -13.803   3.373  0.00  0.00    +0.012 C 
ENDBRANCH  13  14
ENDBRANCH   4  13
TORSDOF 5
ENDMDL
MODEL 6
REMARK VINA RESULT:      -4.7      1.227      7.053
REMARK  Name = *****
REMARK                            x       y       z     vdW  Elec       q    Type
REMARK                         _______ _______ _______ _____ _____    ______ ____
ROOT
ATOM      1  C   LIG    1       23.829 -19.238   4.001  0.00  0.00    -0.034 A 
ATOM      2  C   LIG    1       22.931 -18.236   4.394  0.00  0.00    +0.005 A 
ATOM      3  C   LIG    1       23.277 -16.885   4.298  0.00  0.00    +0.004 A 
ATOM      4  C   LIG    1       24.532 -16.505   3.815  0.00  0.00    -0.047 A 
ATOM      5  C   LIG    1       25.431 -17.502   3.416  0.00  0.00    +0.004 A 
ATOM      6  C   LIG    1       25.085 -18.855   3.509  0.00  0.00    +0.005 A 
ENDROOT
BRANCH   1   8
ATOM      7  C   LIG    1       24.663 -21.571   4.454  0.00  0.00    +0.024 C 
ATOM      8  C   LIG    1       23.449 -20.709   4.096  0.00  0.00    +0.124 C 
BRANCH   8   9
ATOM      9  C   LIG    1       22.302 -20.963   5.073  0.00  0.00    +0.312 C 
ATOM     10  O   LIG    1       21.143 -21.193   4.744  0.00  0.00    -0.250 OA
BRANCH   9  11
ATOM     11  O   LIG    1       22.654 -20.847   6.375  0.00  0.00    -0.480 OA
ATOM     12  H   LIG    1       23.566 -21.149   6.562  0.00  0.00    +0.295 HD
ENDBRANCH   9  11
ENDBRANCH   8   9
ENDBRANCH   1   8
BRANCH   4  13
ATOM     13  C   LIG    1       24.908 -15.046   3.702  0.00  0.00    +0.046 C 
BRANCH  13  14
ATOM     14  C   LIG    1       26.134 -14.773   2.823  0.00  0.00    +0.059 C 
ATOM     15  C   LIG    1       27.342 -14.577   3.716  0.00  0.00    +0.137 C 
ATOM     16  O   LIG    1       27.868 -15.478   4.359  0.00  0.00    -0.297 OA
ATOM     17  C   LIG    1       27.820 -13.147   3.738  0.00  0.00    +0.075 C 
ATOM     18  C   LIG    1       26.673 -12.418   3.052  0.00  0.00    +0.008 C 
ATOM     19  C   LIG    1       26.113 -13.436   2.070  0.00  0.00    +0.012 C 
ENDBRANCH  13  14
ENDBRANCH   4  13
TORSDOF 5
ENDMDL
MODEL 7
REMARK VINA RESULT:      -4.5      1.697      2.457
REMARK  Name = *****
REMARK                            x       y       z     vdW  Elec       q    Type
REMARK                         _______ _______ _______ _____ _____    ______ ____
ROOT
ATOM      1  C   LIG    1       25.191 -14.340   3.449  0.00  0.00    -0.034 A 
ATOM      2  C   LIG    1       24.038 -14.999   3.898  0.00  0.00    +0.005 A 
ATOM      3  C   LIG    1       24.018 -16.388   4.050  0.00  0.00    +0.004 A 
ATOM      4  C   LIG    1       25.149 -17.153   3.748  0.00  0.00    -0.047 A 
ATOM      5  C   LIG    1       26.306 -16.498   3.305  0.00  0.00    +0.004 A 
ATOM      6  C   LIG    1       26.328 -15.107   3.155  0.00  0.00    +0.005 A 
ENDROOT
BRANCH   1   8
ATOM      7  C   LIG    1       24.610 -12.398   1.955  0.00  0.00    +0.024 C 
ATOM      8  C   LIG    1       25.216 -12.826   3.294  0.00  0.00    +0.124 C 
BRANCH   8   9
ATOM      9  C   LIG    1       24.530 -12.100   4.451  0.00  0.00    +0.312 C 
ATOM     10  O   LIG    1       23.478 -11.477   4.358  0.00  0.00    -0.250 OA
BRANCH   9  11
ATOM     11  O   LIG    1       25.225 -12.139   5.613  0.00  0.00    -0.480 OA
ATOM     12  H   LIG    1       26.082 -12.605   5.540  0.00  0.00    +0.295 HD
ENDBRANCH   9  11
ENDBRANCH   8   9
ENDBRANCH   1   8
BRANCH   4  13
ATOM     13  C   LIG    1       25.135 -18.654   3.917  0.00  0.00    +0.046 C 
BRANCH  13  14
ATOM     14  C   LIG    1       23.838 -19.331   3.460  0.00  0.00    +0.059 C 
ATOM     15  C   LIG    1       22.894 -19.424   4.642  0.00  0.00    +0.137 C 
ATOM     16  O   LIG    1       22.339 -18.457   5.150  0.00  0.00    -0.297 OA
ATOM     17  C   LIG    1       22.722 -20.839   5.135  0.00  0.00    +0.075 C 
ATOM     18  C   LIG    1       23.830 -21.572   4.393  0.00  0.00    +0.008 C 
ATOM     19  C   LIG    1       23.972 -20.812   3.082  0.00  0.00    +0.012 C 
ENDBRANCH  13  14
ENDBRANCH   4  13
TORSDOF 5
ENDMDL
MODEL 8
REMARK VINA RESULT:      -4.2      1.347      6.803
REMARK  Name = *****
REMARK                            x       y       z     vdW  Elec       q    Type
REMARK                         _______ _______ _______ _____ _____    ______ ____
ROOT
ATOM      1  C   LIG    1       23.301 -17.756   4.243  0.00  0.00    -0.034 A 
ATOM      2  C   LIG    1       24.487 -18.330   3.764  0.00  0.00    +0.005 A 
ATOM      3  C   LIG    1       25.565 -17.531   3.377  0.00  0.00    +0.004 A 
ATOM      4  C   LIG    1       25.481 -16.137   3.452  0.00  0.00    -0.047 A 
ATOM      5  C   LIG    1       24.301 -15.559   3.936  0.00  0.00    +0.004 A 
ATOM      6  C   LIG    1       23.221 -16.358   4.327  0.00  0.00    +0.005 A 
ENDROOT
BRANCH   1   8
ATOM      7  C   LIG    1       21.129 -18.814   3.531  0.00  0.00    +0.024 C 
ATOM      8  C   LIG    1       22.129 -18.627   4.675  0.00  0.00    +0.124 C 
BRANCH   8   9
ATOM      9  C   LIG    1       22.571 -19.981   5.231  0.00  0.00    +0.312 C 
ATOM     10  O   LIG    1       23.191 -20.137   6.277  0.00  0.00    -0.250 OA
BRANCH   9  11
ATOM     11  O   LIG    1       22.275 -21.028   4.425  0.00  0.00    -0.480 OA
ATOM     12  H   LIG    1       21.770 -21.736   4.872  0.00  0.00    +0.295 HD
ENDBRANCH   9  11
ENDBRANCH   8   9
ENDBRANCH   1   8
BRANCH   4  13
ATOM     13  C   LIG    1       26.647 -15.268   3.042  0.00  0.00    +0.046 C 
BRANCH  13  14
ATOM     14  C   LIG    1       26.502 -13.791   3.423  0.00  0.00    +0.059 C 
ATOM     15  C   LIG    1       27.870 -13.242   3.777  0.00  0.00    +0.137 C 
ATOM     16  O   LIG    1       28.763 -13.056   2.960  0.00  0.00    -0.297 OA
ATOM     17  C   LIG    1       28.015 -12.961   5.252  0.00  0.00    +0.075 C 
ATOM     18  C   LIG    1       26.781 -13.638   5.829  0.00  0.00    +0.008 C 
ATOM     19  C   LIG    1       25.738 -13.524   4.726  0.00  0.00    +0.012 C 
ENDBRANCH  13  14
ENDBRANCH   4  13
TORSDOF 5
ENDMDL
MODEL 9
REMARK VINA RESULT:      -4.2      1.556      2.134
REMARK  Name = *****
REMARK                            x       y       z     vdW  Elec       q    Type
REMARK                         _______ _______ _______ _____ _____    ______ ____
ROOT
ATOM      1  C   LIG    1       25.223 -16.448   3.757  0.00  0.00    -0.034 A 
ATOM      2  C   LIG    1       26.095 -17.445   3.297  0.00  0.00    +0.005 A 
ATOM      3  C   LIG    1       25.655 -18.761   3.129  0.00  0.00    +0.004 A 
ATOM      4  C   LIG    1       24.334 -19.112   3.423  0.00  0.00    -0.047 A 
ATOM      5  C   LIG    1       23.458 -18.119   3.878  0.00  0.00    +0.004 A 
ATOM      6  C   LIG    1       23.896 -16.800   4.044  0.00  0.00    +0.005 A 
ENDROOT
BRANCH   1   8
ATOM      7  C   LIG    1       27.229 -14.932   3.911  0.00  0.00    +0.024 C 
ATOM      8  C   LIG    1       25.700 -15.012   3.931  0.00  0.00    +0.124 C 
BRANCH   8   9
ATOM      9  C   LIG    1       25.098 -14.059   2.899  0.00  0.00    +0.312 C 
ATOM     10  O   LIG    1       25.667 -13.686   1.878  0.00  0.00    -0.250 OA
BRANCH   9  11
ATOM     11  O   LIG    1       23.875 -13.587   3.235  0.00  0.00    -0.480 OA
ATOM     12  H   LIG    1       23.772 -12.625   3.087  0.00  0.00    +0.295 HD
ENDBRANCH   9  11
ENDBRANCH   8   9
ENDBRANCH   1   8
BRANCH   4  13
ATOM     13  C   LIG    1       23.852 -20.532   3.236  0.00  0.00    +0.046 C 
BRANCH  13  14
ATOM     14  C   LIG    1       24.094 -21.448   4.441  0.00  0.00    +0.059 C 
ATOM     15  C   LIG    1       22.989 -21.223   5.454  0.00  0.00    +0.137 C 
ATOM     16  O   LIG    1       21.827 -21.571   5.285  0.00  0.00    -0.297 OA
ATOM     17  C   LIG    1       23.476 -20.511   6.691  0.00  0.00    +0.075 C 
ATOM     18  C   LIG    1       24.861 -20.045   6.267  0.00  0.00    +0.008 C 
ATOM     19  C   LIG    1       25.330 -21.107   5.283  0.00  0.00    +0.012 C 
ENDBRANCH  13  14
ENDBRANCH   4  13
TORSDOF 5
ENDMDL
