MODEL 1
REMARK VINA RESULT:      -9.7      0.000      0.000
REMARK  Name = *****
REMARK                            x       y       z     vdW  Elec       q    Type
REMARK                         _______ _______ _______ _____ _____    ______ ____
ROOT
ATOM      1  C   LIG    1       25.094 -21.375   6.598  0.00  0.00    +0.256 C 
ATOM      2  N   LIG    1       24.740 -20.794   5.305  0.00  0.00    -0.180 N 
ATOM      3  C   LIG    1       25.730 -19.975   4.833  0.00  0.00    +0.318 C 
ATOM      4  N   LIG    1       25.453 -19.098   3.913  0.00  0.00    -0.079 NA
ATOM      5  C   LIG    1       23.981 -19.349   3.711  0.00  0.00    +0.334 C 
ATOM      6  C   LIG    1       26.922 -20.102   5.634  0.00  0.00    +0.075 A 
ATOM      7  C   LIG    1       28.139 -19.463   5.515  0.00  0.00    +0.016 A 
ATOM      8  C   LIG    1       29.035 -19.607   6.572  0.00  0.00    +0.001 A 
ATOM      9  C   LIG    1       28.670 -20.330   7.722  0.00  0.00    +0.001 A 
ATOM     10  C   LIG    1       27.412 -20.941   7.826  0.00  0.00    +0.012 A 
ATOM     11  C   LIG    1       23.501 -20.155   4.946  0.00  0.00    +0.279 C 
ATOM     12  C   LIG    1       26.537 -20.864   6.749  0.00  0.00    +0.045 A 
ENDROOT
BRANCH   1  13
ATOM     13  C   LIG    1       24.903 -22.900   6.590  0.00  0.00    +0.031 A 
ATOM     14  C   LIG    1       23.634 -23.507   6.537  0.00  0.00    +0.012 A 
ATOM     15  C   LIG    1       23.481 -24.900   6.489  0.00  0.00    +0.020 A 
ATOM     16  C   LIG    1       24.600 -25.722   6.480  0.00  0.00    +0.041 A 
ATOM     17 CL   LIG    1       24.413 -27.430   6.416  0.00  0.00    -0.084 Cl
ATOM     18  C   LIG    1       25.869 -25.163   6.513  0.00  0.00    +0.020 A 
ATOM     19  C   LIG    1       26.014 -23.770   6.560  0.00  0.00    +0.012 A 
ENDBRANCH   1  13
BRANCH   1  20
ATOM     20  O   LIG    1       24.283 -20.818   7.615  0.00  0.00    -0.346 OA
ATOM     21  H   LIG    1       23.373 -20.899   7.289  0.00  0.00    +0.215 HD
ENDBRANCH   1  20
TORSDOF 2
ENDMDL
MODEL 2
REMARK VINA RESULT:      -8.4      2.775      5.157
REMARK  Name = *****
REMARK                            x       y       z     vdW  Elec       q    Type
REMARK                         _______ _______ _______ _____ _____    ______ ____
ROOT
ATOM      1  C   LIG    1       25.430 -20.877   5.221  0.00  0.00    +0.256 C 
ATOM      2  N   LIG    1       24.317 -19.930   5.249  0.00  0.00    -0.180 N 
ATOM      3  C   LIG    1       23.147 -20.538   5.618  0.00  0.00    +0.318 C 
ATOM      4  N   LIG    1       22.012 -19.966   5.342  0.00  0.00    -0.079 NA
ATOM      5  C   LIG    1       22.481 -18.721   4.636  0.00  0.00    +0.334 C 
ATOM      6  C   LIG    1       23.396 -21.878   6.090  0.00  0.00    +0.075 A 
ATOM      7  C   LIG    1       22.511 -22.831   6.549  0.00  0.00    +0.016 A 
ATOM      8  C   LIG    1       23.005 -24.123   6.719  0.00  0.00    +0.001 A 
ATOM      9  C   LIG    1       24.335 -24.427   6.379  0.00  0.00    +0.001 A 
ATOM     10  C   LIG    1       25.201 -23.441   5.883  0.00  0.00    +0.012 A 
ATOM     11  C   LIG    1       23.956 -18.977   4.231  0.00  0.00    +0.279 C 
ATOM     12  C   LIG    1       24.740 -22.135   5.776  0.00  0.00    +0.045 A 
ENDROOT
BRANCH   1  13
ATOM     13  C   LIG    1       26.630 -20.343   6.018  0.00  0.00    +0.031 A 
ATOM     14  C   LIG    1       26.735 -20.479   7.416  0.00  0.00    +0.012 A 
ATOM     15  C   LIG    1       27.857 -20.022   8.121  0.00  0.00    +0.020 A 
ATOM     16  C   LIG    1       28.912 -19.428   7.440  0.00  0.00    +0.041 A 
ATOM     17 CL   LIG    1       30.290 -18.872   8.305  0.00  0.00    -0.084 Cl
ATOM     18  C   LIG    1       28.855 -19.292   6.061  0.00  0.00    +0.020 A 
ATOM     19  C   LIG    1       27.731 -19.751   5.363  0.00  0.00    +0.012 A 
ENDBRANCH   1  13
BRANCH   1  20
ATOM     20  O   LIG    1       25.834 -21.106   3.884  0.00  0.00    -0.346 OA
ATOM     21  H   LIG    1       25.050 -20.919   3.344  0.00  0.00    +0.215 HD
ENDBRANCH   1  20
TORSDOF 2
ENDMDL
MODEL 3
REMARK VINA RESULT:      -8.2      3.002      5.452
REMARK  Name = *****
REMARK                            x       y       z     vdW  Elec       q    Type
REMARK                         _______ _______ _______ _____ _____    ______ ____
ROOT
ATOM      1  C   LIG    1       25.815 -22.093   7.148  0.00  0.00    +0.256 C 
ATOM      2  N   LIG    1       25.890 -23.328   6.369  0.00  0.00    -0.180 N 
ATOM      3  C   LIG    1       24.854 -23.426   5.480  0.00  0.00    +0.318 C 
ATOM      4  N   LIG    1       24.544 -24.587   4.982  0.00  0.00    -0.079 NA
ATOM      5  C   LIG    1       25.555 -25.472   5.664  0.00  0.00    +0.334 C 
ATOM      6  C   LIG    1       24.123 -22.185   5.409  0.00  0.00    +0.075 A 
ATOM      7  C   LIG    1       23.017 -21.853   4.654  0.00  0.00    +0.016 A 
ATOM      8  C   LIG    1       22.377 -20.654   4.962  0.00  0.00    +0.001 A 
ATOM      9  C   LIG    1       22.825 -19.864   6.036  0.00  0.00    +0.001 A 
ATOM     10  C   LIG    1       23.932 -20.247   6.807  0.00  0.00    +0.012 A 
ATOM     11  C   LIG    1       26.104 -24.661   6.867  0.00  0.00    +0.279 C 
ATOM     12  C   LIG    1       24.622 -21.404   6.464  0.00  0.00    +0.045 A 
ENDROOT
BRANCH   1  13
ATOM     13  C   LIG    1       27.152 -21.338   7.118  0.00  0.00    +0.031 A 
ATOM     14  C   LIG    1       28.220 -21.648   7.983  0.00  0.00    +0.012 A 
ATOM     15  C   LIG    1       29.448 -20.975   7.914  0.00  0.00    +0.020 A 
ATOM     16  C   LIG    1       29.643 -19.981   6.964  0.00  0.00    +0.041 A 
ATOM     17 CL   LIG    1       31.151 -19.160   6.875  0.00  0.00    -0.084 Cl
ATOM     18  C   LIG    1       28.623 -19.659   6.080  0.00  0.00    +0.020 A 
ATOM     19  C   LIG    1       27.399 -20.336   6.156  0.00  0.00    +0.012 A 
ENDBRANCH   1  13
BRANCH   1  20
ATOM     20  O   LIG    1       25.487 -22.390   8.492  0.00  0.00    -0.346 OA
ATOM     21  H   LIG    1       26.241 -22.074   9.014  0.00  0.00    +0.215 HD
ENDBRANCH   1  20
TORSDOF 2
ENDMDL
MODEL 4
REMARK VINA RESULT:      -7.7      2.869      5.287
REMARK  Name = *****
REMARK                            x       y       z     vdW  Elec       q    Type
REMARK                         _______ _______ _______ _____ _____    ______ ____
ROOT
ATOM      1  C   LIG    1       23.916 -21.849   6.999  0.00  0.00    +0.256 C 
ATOM      2  N   LIG    1       25.274 -21.315   7.083  0.00  0.00    -0.180 N 
ATOM      3  C   LIG    1       26.212 -22.301   6.937  0.00  0.00    +0.318 C 
ATOM      4  N   LIG    1       27.429 -22.093   7.347  0.00  0.00    -0.079 NA
ATOM      5  C   LIG    1       27.314 -20.694   7.894  0.00  0.00    +0.334 C 
ATOM      6  C   LIG    1       25.595 -23.534   6.516  0.00  0.00    +0.075 A 
ATOM      7  C   LIG    1       26.165 -24.764   6.259  0.00  0.00    +0.016 A 
ATOM      8  C   LIG    1       25.296 -25.842   6.096  0.00  0.00    +0.001 A 
ATOM      9  C   LIG    1       23.909 -25.667   6.247  0.00  0.00    +0.001 A 
ATOM     10  C   LIG    1       23.364 -24.409   6.541  0.00  0.00    +0.012 A 
ATOM     11  C   LIG    1       25.799 -20.422   8.082  0.00  0.00    +0.279 C 
ATOM     12  C   LIG    1       24.213 -23.314   6.635  0.00  0.00    +0.045 A 
ENDROOT
BRANCH   1  13
ATOM     13  C   LIG    1       23.069 -21.051   5.996  0.00  0.00    +0.031 A 
ATOM     14  C   LIG    1       21.995 -21.621   5.285  0.00  0.00    +0.012 A 
ATOM     15  C   LIG    1       21.208 -20.867   4.404  0.00  0.00    +0.020 A 
ATOM     16  C   LIG    1       21.469 -19.515   4.222  0.00  0.00    +0.041 A 
ATOM     17 CL   LIG    1       20.500 -18.589   3.144  0.00  0.00    -0.084 Cl
ATOM     18  C   LIG    1       22.506 -18.912   4.917  0.00  0.00    +0.020 A 
ATOM     19  C   LIG    1       23.288 -19.671   5.796  0.00  0.00    +0.012 A 
ENDBRANCH   1  13
BRANCH   1  20
ATOM     20  O   LIG    1       23.295 -21.791   8.269  0.00  0.00    -0.346 OA
ATOM     21  H   LIG    1       23.989 -22.032   8.904  0.00  0.00    +0.215 HD
ENDBRANCH   1  20
TORSDOF 2
ENDMDL
MODEL 5
REMARK VINA RESULT:      -7.0      6.455      9.928
REMARK  Name = *****
REMARK                            x       y       z     vdW  Elec       q    Type
REMARK                         _______ _______ _______ _____ _____    ______ ____
ROOT
ATOM      1  C   LIG    1       24.929 -30.257   7.196  0.00  0.00    +0.256 C 
ATOM      2  N   LIG    1       25.511 -30.444   8.523  0.00  0.00    -0.180 N 
ATOM      3  C   LIG    1       26.407 -31.479   8.539  0.00  0.00    +0.318 C 
ATOM      4  N   LIG    1       26.734 -32.027   9.672  0.00  0.00    -0.079 NA
ATOM      5  C   LIG    1       25.896 -31.224  10.633  0.00  0.00    +0.334 C 
ATOM      6  C   LIG    1       26.686 -31.932   7.198  0.00  0.00    +0.075 A 
ATOM      7  C   LIG    1       27.517 -32.944   6.763  0.00  0.00    +0.016 A 
ATOM      8  C   LIG    1       27.412 -33.316   5.424  0.00  0.00    +0.001 A 
ATOM      9  C   LIG    1       26.455 -32.711   4.590  0.00  0.00    +0.001 A 
ATOM     10  C   LIG    1       25.601 -31.709   5.072  0.00  0.00    +0.012 A 
ATOM     11  C   LIG    1       24.812 -30.515   9.780  0.00  0.00    +0.279 C 
ATOM     12  C   LIG    1       25.745 -31.279   6.386  0.00  0.00    +0.045 A 
ENDROOT
BRANCH   1  13
ATOM     13  C   LIG    1       25.029 -28.790   6.750  0.00  0.00    +0.031 A 
ATOM     14  C   LIG    1       24.233 -28.252   5.720  0.00  0.00    +0.012 A 
ATOM     15  C   LIG    1       24.310 -26.901   5.355  0.00  0.00    +0.020 A 
ATOM     16  C   LIG    1       25.180 -26.048   6.022  0.00  0.00    +0.041 A 
ATOM     17 CL   LIG    1       25.270 -24.390   5.577  0.00  0.00    -0.084 Cl
ATOM     18  C   LIG    1       25.968 -26.535   7.055  0.00  0.00    +0.020 A 
ATOM     19  C   LIG    1       25.886 -27.886   7.415  0.00  0.00    +0.012 A 
ENDBRANCH   1  13
BRANCH   1  20
ATOM     20  O   LIG    1       23.566 -30.639   7.208  0.00  0.00    -0.346 OA
ATOM     21  H   LIG    1       23.504 -31.385   6.591  0.00  0.00    +0.215 HD
ENDBRANCH   1  20
TORSDOF 2
ENDMDL
