MODEL 1
REMARK VINA RESULT:      -2.1      0.000      0.000
REMARK  Name = *****
REMARK                            x       y       z     vdW  Elec       q    Type
REMARK                         _______ _______ _______ _____ _____    ______ ____
ROOT
ATOM      1  C   LIG    1       23.276 -18.539   4.994  0.00  0.00    +0.019 C 
ENDROOT
BRANCH   1   2
ATOM      2  C   LIG    1       23.283 -17.391   3.978  0.00  0.00    +0.042 C 
BRANCH   2   3
ATOM      3  C   LIG    1       22.238 -16.342   4.313  0.00  0.00    +0.229 C 
BRANCH   3   4
ATOM      4  O   LIG    1       22.812 -15.261   5.053  0.00  0.00    -0.492 OA
BRANCH   4  13
ATOM      5  O   LIG    1       29.144 -12.210   5.667  0.00  0.00    -0.268 OA
ATOM      6  C   LIG    1       28.199 -12.550   4.946  0.00  0.00    +0.249 C 
ATOM      7  N   LIG    1       27.133 -13.251   5.428  0.00  0.00    -0.322 N 
ATOM      8  H   LIG    1       27.150 -13.476   6.412  0.00  0.00    +0.169 HD
ATOM      9  C   LIG    1       26.041 -13.631   4.633  0.00  0.00    +0.053 A 
ATOM     10  C   LIG    1       26.042 -13.290   3.274  0.00  0.00    -0.001 A 
ATOM     11  C   LIG    1       24.957 -13.656   2.479  0.00  0.00    +0.013 A 
ATOM     12  C   LIG    1       23.881 -14.331   3.051  0.00  0.00    +0.046 A 
ATOM     13  C   LIG    1       23.867 -14.650   4.415  0.00  0.00    +0.122 A 
ATOM     14  C   LIG    1       27.166 -12.551   2.715  0.00  0.00    +0.015 C 
ATOM     15  C   LIG    1       24.970 -14.322   5.205  0.00  0.00    +0.072 A 
ATOM     16  C   LIG    1       28.191 -12.199   3.505  0.00  0.00    +0.071 C 
ENDBRANCH   4  13
ENDBRANCH   3   4
ENDBRANCH   2   3
ENDBRANCH   1   2
BRANCH   1  17
ATOM     17  C   LIG    1       22.056 -19.470   4.846  0.00  0.00    +0.085 C 
BRANCH  17  18
ATOM     18  N   LIG    1       22.401 -20.900   4.797  0.00  0.00    -0.299 NA
ATOM     19  C   LIG    1       23.470 -21.202   3.815  0.00  0.00    +0.103 C 
ATOM     20  C   LIG    1       24.889 -20.684   4.177  0.00  0.00    +0.120 C 
ATOM     21  N   LIG    1       25.289 -21.137   5.531  0.00  0.00    -0.327 N 
ATOM     22  C   LIG    1       24.254 -20.849   6.555  0.00  0.00    +0.120 C 
ATOM     23  C   LIG    1       22.871 -21.392   6.123  0.00  0.00    +0.103 C 
BRANCH  21  24
ATOM     24  C   LIG    1       26.615 -20.749   5.863  0.00  0.00    +0.038 A 
ATOM     25  C   LIG    1       27.232 -19.567   5.326  0.00  0.00    +0.010 A 
ATOM     26  C   LIG    1       28.562 -19.275   5.663  0.00  0.00    +0.021 A 
ATOM     27  S   LIG    1       29.132 -17.833   4.908  0.00  0.00    -0.097 S 
ATOM     28  C   LIG    1       27.647 -17.572   4.125  0.00  0.00    +0.046 A 
ATOM     29  C   LIG    1       29.317 -20.092   6.521  0.00  0.00    +0.016 A 
ATOM     30  C   LIG    1       28.721 -21.223   7.055  0.00  0.00    +0.003 A 
ATOM     31  C   LIG    1       26.731 -18.556   4.420  0.00  0.00    +0.018 A 
ATOM     32  C   LIG    1       27.407 -21.537   6.734  0.00  0.00    +0.024 A 
ENDBRANCH  21  24
ENDBRANCH  17  18
ENDBRANCH   1  17
TORSDOF 7
ENDMDL
