MODEL 1
REMARK VINA RESULT:      -4.3      0.000      0.000
REMARK  Name = *****
REMARK                            x       y       z     vdW  Elec       q    Type
REMARK                         _______ _______ _______ _____ _____    ______ ____
ROOT
ATOM      1  C   LIG    1       25.036 -21.748   8.303  0.00  0.00    +0.176 C 
ATOM      2  N   LIG    1       23.736 -21.712   7.648  0.00  0.00    -0.264 NA
ATOM      3  C   LIG    1       23.524 -22.968   6.942  0.00  0.00    +0.176 C 
ATOM      4  N   LIG    1       24.569 -23.169   5.948  0.00  0.00    -0.264 NA
ATOM      5  C   LIG    1       24.544 -22.064   5.000  0.00  0.00    +0.176 C 
ATOM      6  N   LIG    1       24.762 -20.802   5.691  0.00  0.00    -0.264 NA
ATOM      7  C   LIG    1       26.055 -20.844   6.361  0.00  0.00    +0.176 C 
ATOM      8  C   LIG    1       25.863 -23.195   6.615  0.00  0.00    +0.176 C 
ATOM      9  C   LIG    1       23.716 -20.618   6.687  0.00  0.00    +0.176 C 
ATOM     10  N   LIG    1       26.091 -21.940   7.319  0.00  0.00    -0.264 NA
ENDROOT
TORSDOF 0
ENDMDL
MODEL 2
REMARK VINA RESULT:      -4.3      0.077      2.251
REMARK  Name = *****
REMARK                            x       y       z     vdW  Elec       q    Type
REMARK                         _______ _______ _______ _____ _____    ______ ____
ROOT
ATOM      1  C   LIG    1       25.864 -23.114   6.599  0.00  0.00    +0.176 C 
ATOM      2  N   LIG    1       26.068 -21.845   7.281  0.00  0.00    -0.264 NA
ATOM      3  C   LIG    1       25.015 -21.662   8.272  0.00  0.00    +0.176 C 
ATOM      4  N   LIG    1       23.710 -21.669   7.627  0.00  0.00    -0.264 NA
ATOM      5  C   LIG    1       23.656 -20.589   6.651  0.00  0.00    +0.176 C 
ATOM      6  N   LIG    1       24.698 -20.763   5.649  0.00  0.00    -0.264 NA
ATOM      7  C   LIG    1       24.505 -22.041   4.978  0.00  0.00    +0.176 C 
ATOM      8  C   LIG    1       23.523 -22.939   6.942  0.00  0.00    +0.176 C 
ATOM      9  C   LIG    1       25.997 -20.763   6.309  0.00  0.00    +0.176 C 
ATOM     10  N   LIG    1       24.565 -23.131   5.942  0.00  0.00    -0.264 NA
ENDROOT
TORSDOF 0
ENDMDL
MODEL 3
REMARK VINA RESULT:      -4.3      0.050      2.605
REMARK  Name = *****
REMARK                            x       y       z     vdW  Elec       q    Type
REMARK                         _______ _______ _______ _____ _____    ______ ____
ROOT
ATOM      1  C   LIG    1       25.050 -21.683   8.282  0.00  0.00    +0.176 C 
ATOM      2  N   LIG    1       26.099 -21.874   7.291  0.00  0.00    -0.264 NA
ATOM      3  C   LIG    1       26.036 -20.793   6.316  0.00  0.00    +0.176 C 
ATOM      4  N   LIG    1       24.737 -20.782   5.660  0.00  0.00    -0.264 NA
ATOM      5  C   LIG    1       24.531 -22.059   4.989  0.00  0.00    +0.176 C 
ATOM      6  N   LIG    1       24.583 -23.148   5.953  0.00  0.00    -0.264 NA
ATOM      7  C   LIG    1       23.545 -22.948   6.955  0.00  0.00    +0.176 C 
ATOM      8  C   LIG    1       23.697 -20.598   6.663  0.00  0.00    +0.176 C 
ATOM      9  C   LIG    1       25.884 -23.142   6.608  0.00  0.00    +0.176 C 
ATOM     10  N   LIG    1       23.743 -21.678   7.640  0.00  0.00    -0.264 NA
ENDROOT
TORSDOF 0
ENDMDL
MODEL 4
REMARK VINA RESULT:      -4.3      0.105      2.273
REMARK  Name = *****
REMARK                            x       y       z     vdW  Elec       q    Type
REMARK                         _______ _______ _______ _____ _____    ______ ____
ROOT
ATOM      1  C   LIG    1       23.549 -22.940   6.949  0.00  0.00    +0.176 C 
ATOM      2  N   LIG    1       24.596 -23.115   5.953  0.00  0.00    -0.264 NA
ATOM      3  C   LIG    1       25.894 -23.069   6.613  0.00  0.00    +0.176 C 
ATOM      4  N   LIG    1       26.069 -21.792   7.290  0.00  0.00    -0.264 NA
ATOM      5  C   LIG    1       25.980 -20.718   6.310  0.00  0.00    +0.176 C 
ATOM      6  N   LIG    1       24.684 -20.747   5.648  0.00  0.00    -0.264 NA
ATOM      7  C   LIG    1       23.636 -20.589   6.646  0.00  0.00    +0.176 C 
ATOM      8  C   LIG    1       25.012 -21.626   8.276  0.00  0.00    +0.176 C 
ATOM      9  C   LIG    1       24.518 -22.032   4.983  0.00  0.00    +0.176 C 
ATOM     10  N   LIG    1       23.708 -21.661   7.628  0.00  0.00    -0.264 NA
ENDROOT
TORSDOF 0
ENDMDL
MODEL 5
REMARK VINA RESULT:      -4.3      0.137      2.253
REMARK  Name = *****
REMARK                            x       y       z     vdW  Elec       q    Type
REMARK                         _______ _______ _______ _____ _____    ______ ____
ROOT
ATOM      1  C   LIG    1       25.908 -20.740   6.278  0.00  0.00    +0.176 C 
ATOM      2  N   LIG    1       24.603 -20.757   5.633  0.00  0.00    -0.264 NA
ATOM      3  C   LIG    1       23.568 -20.604   6.648  0.00  0.00    +0.176 C 
ATOM      4  N   LIG    1       23.651 -21.687   7.617  0.00  0.00    -0.264 NA
ATOM      5  C   LIG    1       23.476 -22.958   6.926  0.00  0.00    +0.176 C 
ATOM      6  N   LIG    1       24.509 -23.127   5.915  0.00  0.00    -0.264 NA
ATOM      7  C   LIG    1       25.816 -23.094   6.557  0.00  0.00    +0.176 C 
ATOM      8  C   LIG    1       24.962 -21.664   8.248  0.00  0.00    +0.176 C 
ATOM      9  C   LIG    1       24.421 -22.033   4.958  0.00  0.00    +0.176 C 
ATOM     10  N   LIG    1       26.007 -21.824   7.245  0.00  0.00    -0.264 NA
ENDROOT
TORSDOF 0
ENDMDL
MODEL 6
REMARK VINA RESULT:      -4.3      0.090      2.256
REMARK  Name = *****
REMARK                            x       y       z     vdW  Elec       q    Type
REMARK                         _______ _______ _______ _____ _____    ______ ____
ROOT
ATOM      1  C   LIG    1       25.874 -23.094   6.609  0.00  0.00    +0.176 C 
ATOM      2  N   LIG    1       24.577 -23.123   5.947  0.00  0.00    -0.264 NA
ATOM      3  C   LIG    1       24.512 -22.037   4.979  0.00  0.00    +0.176 C 
ATOM      4  N   LIG    1       24.694 -20.756   5.647  0.00  0.00    -0.264 NA
ATOM      5  C   LIG    1       23.645 -20.587   6.644  0.00  0.00    +0.176 C 
ATOM      6  N   LIG    1       23.704 -21.662   7.624  0.00  0.00    -0.264 NA
ATOM      7  C   LIG    1       25.006 -21.644   8.274  0.00  0.00    +0.176 C 
ATOM      8  C   LIG    1       25.989 -20.743   6.311  0.00  0.00    +0.176 C 
ATOM      9  C   LIG    1       23.530 -22.937   6.941  0.00  0.00    +0.176 C 
ATOM     10  N   LIG    1       26.064 -21.821   7.289  0.00  0.00    -0.264 NA
ENDROOT
TORSDOF 0
ENDMDL
MODEL 7
REMARK VINA RESULT:      -4.3      0.101      2.282
REMARK  Name = *****
REMARK                            x       y       z     vdW  Elec       q    Type
REMARK                         _______ _______ _______ _____ _____    ______ ____
ROOT
ATOM      1  C   LIG    1       23.635 -20.586   6.652  0.00  0.00    +0.176 C 
ATOM      2  N   LIG    1       23.701 -21.665   7.627  0.00  0.00    -0.264 NA
ATOM      3  C   LIG    1       25.003 -21.637   8.279  0.00  0.00    +0.176 C 
ATOM      4  N   LIG    1       26.063 -21.801   7.294  0.00  0.00    -0.264 NA
ATOM      5  C   LIG    1       25.885 -23.074   6.610  0.00  0.00    +0.176 C 
ATOM      6  N   LIG    1       24.590 -23.112   5.946  0.00  0.00    -0.264 NA
ATOM      7  C   LIG    1       24.516 -22.022   4.982  0.00  0.00    +0.176 C 
ATOM      8  C   LIG    1       25.981 -20.721   6.321  0.00  0.00    +0.176 C 
ATOM      9  C   LIG    1       23.540 -22.939   6.940  0.00  0.00    +0.176 C 
ATOM     10  N   LIG    1       24.685 -20.742   5.655  0.00  0.00    -0.264 NA
ENDROOT
TORSDOF 0
ENDMDL
MODEL 8
REMARK VINA RESULT:      -4.3      0.114      2.606
REMARK  Name = *****
REMARK                            x       y       z     vdW  Elec       q    Type
REMARK                         _______ _______ _______ _____ _____    ______ ____
ROOT
ATOM      1  C   LIG    1       24.513 -22.016   4.979  0.00  0.00    +0.176 C 
ATOM      2  N   LIG    1       24.675 -20.735   5.650  0.00  0.00    -0.264 NA
ATOM      3  C   LIG    1       25.971 -20.707   6.315  0.00  0.00    +0.176 C 
ATOM      4  N   LIG    1       26.060 -21.785   7.289  0.00  0.00    -0.264 NA
ATOM      5  C   LIG    1       24.999 -21.626   8.275  0.00  0.00    +0.176 C 
ATOM      6  N   LIG    1       23.698 -21.660   7.624  0.00  0.00    -0.264 NA
ATOM      7  C   LIG    1       23.542 -22.935   6.938  0.00  0.00    +0.176 C 
ATOM      8  C   LIG    1       25.888 -23.060   6.607  0.00  0.00    +0.176 C 
ATOM      9  C   LIG    1       23.625 -20.583   6.647  0.00  0.00    +0.176 C 
ATOM     10  N   LIG    1       24.591 -23.104   5.943  0.00  0.00    -0.264 NA
ENDROOT
TORSDOF 0
ENDMDL
MODEL 9
REMARK VINA RESULT:      -4.3      0.104      2.228
REMARK  Name = *****
REMARK                            x       y       z     vdW  Elec       q    Type
REMARK                         _______ _______ _______ _____ _____    ______ ____
ROOT
ATOM      1  C   LIG    1       23.552 -22.941   6.944  0.00  0.00    +0.176 C 
ATOM      2  N   LIG    1       23.712 -21.665   7.626  0.00  0.00    -0.264 NA
ATOM      3  C   LIG    1       23.639 -20.589   6.646  0.00  0.00    +0.176 C 
ATOM      4  N   LIG    1       24.687 -20.747   5.648  0.00  0.00    -0.264 NA
ATOM      5  C   LIG    1       25.984 -20.719   6.310  0.00  0.00    +0.176 C 
ATOM      6  N   LIG    1       26.074 -21.794   7.287  0.00  0.00    -0.264 NA
ATOM      7  C   LIG    1       25.897 -23.070   6.609  0.00  0.00    +0.176 C 
ATOM      8  C   LIG    1       24.521 -22.029   4.980  0.00  0.00    +0.176 C 
ATOM      9  C   LIG    1       25.015 -21.630   8.274  0.00  0.00    +0.176 C 
ATOM     10  N   LIG    1       24.600 -23.115   5.948  0.00  0.00    -0.264 NA
ENDROOT
TORSDOF 0
ENDMDL
