MODEL 1
REMARK VINA RESULT:      -4.0      0.000      0.000
REMARK  Name = *****
REMARK                            x       y       z     vdW  Elec       q    Type
REMARK                         _______ _______ _______ _____ _____    ______ ____
ROOT
ATOM      1  S   LIG    1       22.666 -18.651   4.237  0.00  0.00    +0.075 S 
ATOM      2  O   LIG    1       22.395 -18.809   5.656  0.00  0.00    -0.150 OA
ATOM      3  O   LIG    1       21.580 -18.582   3.287  0.00  0.00    -0.150 OA
ENDROOT
BRANCH   1   4
ATOM      4  C   LIG    1       23.620 -17.151   4.075  0.00  0.00    +0.109 A 
ATOM      5  C   LIG    1       24.901 -17.205   3.522  0.00  0.00    +0.030 A 
ATOM      6  C   LIG    1       25.641 -16.028   3.383  0.00  0.00    +0.024 A 
ATOM      7  C   LIG    1       25.087 -14.789   3.722  0.00  0.00    +0.025 A 
ATOM      8  C   LIG    1       23.814 -14.756   4.302  0.00  0.00    +0.024 A 
ATOM      9  C   LIG    1       23.066 -15.927   4.456  0.00  0.00    +0.030 A 
BRANCH   7  10
ATOM     10  N   LIG    1       25.878 -13.634   3.693  0.00  0.00    -0.358 N 
ATOM     11  H   LIG    1       26.387 -13.467   4.556  0.00  0.00    +0.142 HD
ATOM     12  H   LIG    1       26.484 -13.576   2.880  0.00  0.00    +0.142 HD
ENDBRANCH   7  10
ENDBRANCH   1   4
BRANCH   1  13
ATOM     13  N   LIG    1       23.733 -19.878   3.839  0.00  0.00    -0.184 N 
ATOM     14  H   LIG    1       23.245 -20.622   3.359  0.00  0.00    +0.177 HD
BRANCH  13  18
ATOM     15  C   LIG    1       27.876 -20.029   6.089  0.00  0.00    +0.066 C 
ATOM     16  C   LIG    1       26.438 -20.445   6.023  0.00  0.00    +0.043 A 
ATOM     17  N   LIG    1       25.723 -19.995   4.970  0.00  0.00    -0.218 NA
ATOM     18  C   LIG    1       24.455 -20.404   4.908  0.00  0.00    +0.235 A 
ATOM     19  N   LIG    1       23.821 -21.190   5.776  0.00  0.00    -0.222 NA
ATOM     20  C   LIG    1       24.552 -21.571   6.837  0.00  0.00    +0.116 A 
ATOM     21  C   LIG    1       25.874 -21.219   7.018  0.00  0.00    +0.043 A 
ENDBRANCH  13  18
ENDBRANCH   1  13
TORSDOF 4
ENDMDL
MODEL 2
REMARK VINA RESULT:      -3.0      1.686      2.117
REMARK  Name = *****
REMARK                            x       y       z     vdW  Elec       q    Type
REMARK                         _______ _______ _______ _____ _____    ______ ____
ROOT
ATOM      1  S   LIG    1       24.858 -19.295   3.652  0.00  0.00    +0.075 S 
ATOM      2  O   LIG    1       23.544 -19.644   3.138  0.00  0.00    -0.150 OA
ATOM      3  O   LIG    1       26.052 -19.735   2.968  0.00  0.00    -0.150 OA
ENDROOT
BRANCH   1   4
ATOM      4  C   LIG    1       24.907 -17.513   3.729  0.00  0.00    +0.109 A 
ATOM      5  C   LIG    1       26.069 -16.838   3.344  0.00  0.00    +0.030 A 
ATOM      6  C   LIG    1       26.101 -15.442   3.392  0.00  0.00    +0.024 A 
ATOM      7  C   LIG    1       24.963 -14.711   3.749  0.00  0.00    +0.025 A 
ATOM      8  C   LIG    1       23.818 -15.403   4.160  0.00  0.00    +0.024 A 
ATOM      9  C   LIG    1       23.775 -16.799   4.126  0.00  0.00    +0.030 A 
BRANCH   7  10
ATOM     10  N   LIG    1       25.043 -13.322   3.910  0.00  0.00    -0.358 N 
ATOM     11  H   LIG    1       24.754 -13.002   4.830  0.00  0.00    +0.142 HD
ATOM     12  H   LIG    1       25.940 -12.931   3.638  0.00  0.00    +0.142 HD
ENDBRANCH   7  10
ENDBRANCH   1   4
BRANCH   1  13
ATOM     13  N   LIG    1       24.866 -19.790   5.251  0.00  0.00    -0.184 N 
ATOM     14  H   LIG    1       24.493 -19.060   5.843  0.00  0.00    +0.177 HD
BRANCH  13  18
ATOM     15  C   LIG    1       29.473 -18.831   5.574  0.00  0.00    +0.066 C 
ATOM     16  C   LIG    1       28.320 -19.718   5.935  0.00  0.00    +0.043 A 
ATOM     17  N   LIG    1       27.113 -19.379   5.435  0.00  0.00    -0.218 NA
ATOM     18  C   LIG    1       26.105 -20.199   5.737  0.00  0.00    +0.235 A 
ATOM     19  N   LIG    1       26.162 -21.299   6.485  0.00  0.00    -0.222 NA
ATOM     20  C   LIG    1       27.370 -21.571   7.008  0.00  0.00    +0.116 A 
ATOM     21  C   LIG    1       28.492 -20.804   6.770  0.00  0.00    +0.043 A 
ENDBRANCH  13  18
ENDBRANCH   1  13
TORSDOF 4
ENDMDL
MODEL 3
REMARK VINA RESULT:      -2.9      2.616      6.127
REMARK  Name = *****
REMARK                            x       y       z     vdW  Elec       q    Type
REMARK                         _______ _______ _______ _____ _____    ______ ____
ROOT
ATOM      1  S   LIG    1       25.955 -18.165   3.324  0.00  0.00    +0.075 S 
ATOM      2  O   LIG    1       27.131 -17.748   4.069  0.00  0.00    -0.150 OA
ATOM      3  O   LIG    1       26.093 -18.884   2.078  0.00  0.00    -0.150 OA
ENDROOT
BRANCH   1   4
ATOM      4  C   LIG    1       24.997 -19.185   4.431  0.00  0.00    +0.109 A 
ATOM      5  C   LIG    1       23.604 -19.080   4.434  0.00  0.00    +0.030 A 
ATOM      6  C   LIG    1       22.855 -19.889   5.292  0.00  0.00    +0.024 A 
ATOM      7  C   LIG    1       23.477 -20.852   6.093  0.00  0.00    +0.025 A 
ATOM      8  C   LIG    1       24.874 -20.924   6.100  0.00  0.00    +0.024 A 
ATOM      9  C   LIG    1       25.637 -20.114   5.254  0.00  0.00    +0.030 A 
BRANCH   7  10
ATOM     10  N   LIG    1       22.730 -21.572   7.034  0.00  0.00    -0.358 N 
ATOM     11  H   LIG    1       23.264 -21.846   7.853  0.00  0.00    +0.142 HD
ATOM     12  H   LIG    1       21.854 -21.124   7.287  0.00  0.00    +0.142 HD
ENDBRANCH   7  10
ENDBRANCH   1   4
BRANCH   1  13
ATOM     13  N   LIG    1       25.035 -16.781   3.118  0.00  0.00    -0.184 N 
ATOM     14  H   LIG    1       24.690 -16.731   2.168  0.00  0.00    +0.177 HD
BRANCH  13  18
ATOM     15  C   LIG    1       24.570 -12.409   4.825  0.00  0.00    +0.066 C 
ATOM     16  C   LIG    1       25.465 -13.496   4.312  0.00  0.00    +0.043 A 
ATOM     17  N   LIG    1       24.869 -14.646   3.934  0.00  0.00    -0.218 NA
ATOM     18  C   LIG    1       25.677 -15.590   3.447  0.00  0.00    +0.235 A 
ATOM     19  N   LIG    1       27.000 -15.522   3.310  0.00  0.00    -0.222 NA
ATOM     20  C   LIG    1       27.560 -14.382   3.748  0.00  0.00    +0.116 A 
ATOM     21  C   LIG    1       26.836 -13.330   4.270  0.00  0.00    +0.043 A 
ENDBRANCH  13  18
ENDBRANCH   1  13
TORSDOF 4
ENDMDL
MODEL 4
REMARK VINA RESULT:      -2.7      3.169      4.382
REMARK  Name = *****
REMARK                            x       y       z     vdW  Elec       q    Type
REMARK                         _______ _______ _______ _____ _____    ______ ____
ROOT
ATOM      1  S   LIG    1       25.450 -15.308   3.308  0.00  0.00    +0.075 S 
ATOM      2  O   LIG    1       24.418 -15.467   4.319  0.00  0.00    -0.150 OA
ATOM      3  O   LIG    1       25.113 -14.831   1.986  0.00  0.00    -0.150 OA
ENDROOT
BRANCH   1   4
ATOM      4  C   LIG    1       26.654 -14.185   3.995  0.00  0.00    +0.109 A 
ATOM      5  C   LIG    1       26.501 -13.727   5.307  0.00  0.00    +0.030 A 
ATOM      6  C   LIG    1       27.452 -12.859   5.848  0.00  0.00    +0.024 A 
ATOM      7  C   LIG    1       28.592 -12.502   5.120  0.00  0.00    +0.025 A 
ATOM      8  C   LIG    1       28.716 -12.945   3.799  0.00  0.00    +0.024 A 
ATOM      9  C   LIG    1       27.766 -13.806   3.241  0.00  0.00    +0.030 A 
BRANCH   7  10
ATOM     10  N   LIG    1       29.474 -11.539   5.625  0.00  0.00    -0.358 N 
ATOM     11  H   LIG    1       29.829 -10.902   4.919  0.00  0.00    +0.142 HD
ATOM     12  H   LIG    1       29.115 -11.042   6.435  0.00  0.00    +0.142 HD
ENDBRANCH   7  10
ENDBRANCH   1   4
BRANCH   1  13
ATOM     13  N   LIG    1       26.239 -16.782   3.230  0.00  0.00    -0.184 N 
ATOM     14  H   LIG    1       26.586 -16.942   2.294  0.00  0.00    +0.177 HD
BRANCH  13  18
ATOM     15  C   LIG    1       21.924 -18.526   3.992  0.00  0.00    +0.066 C 
ATOM     16  C   LIG    1       23.406 -18.740   3.970  0.00  0.00    +0.043 A 
ATOM     17  N   LIG    1       24.168 -17.681   3.624  0.00  0.00    -0.218 NA
ATOM     18  C   LIG    1       25.487 -17.879   3.644  0.00  0.00    +0.235 A 
ATOM     19  N   LIG    1       26.125 -19.006   3.952  0.00  0.00    -0.222 NA
ATOM     20  C   LIG    1       25.329 -20.051   4.238  0.00  0.00    +0.116 A 
ATOM     21  C   LIG    1       23.952 -19.977   4.254  0.00  0.00    +0.043 A 
ENDBRANCH  13  18
ENDBRANCH   1  13
TORSDOF 4
ENDMDL
MODEL 5
REMARK VINA RESULT:      -2.6      1.897      2.431
REMARK  Name = *****
REMARK                            x       y       z     vdW  Elec       q    Type
REMARK                         _______ _______ _______ _____ _____    ______ ____
ROOT
ATOM      1  S   LIG    1       25.577 -18.340   3.513  0.00  0.00    +0.075 S 
ATOM      2  O   LIG    1       25.891 -18.600   2.118  0.00  0.00    -0.150 OA
ATOM      3  O   LIG    1       26.542 -18.633   4.548  0.00  0.00    -0.150 OA
ENDROOT
BRANCH   1   4
ATOM      4  C   LIG    1       25.182 -16.604   3.621  0.00  0.00    +0.109 A 
ATOM      5  C   LIG    1       23.915 -16.211   4.062  0.00  0.00    +0.030 A 
ATOM      6  C   LIG    1       23.612 -14.851   4.160  0.00  0.00    +0.024 A 
ATOM      7  C   LIG    1       24.582 -13.879   3.893  0.00  0.00    +0.025 A 
ATOM      8  C   LIG    1       25.836 -14.289   3.425  0.00  0.00    +0.024 A 
ATOM      9  C   LIG    1       26.150 -15.646   3.313  0.00  0.00    +0.030 A 
BRANCH   7  10
ATOM     10  N   LIG    1       24.232 -12.523   3.877  0.00  0.00    -0.358 N 
ATOM     11  H   LIG    1       24.098 -12.127   4.802  0.00  0.00    +0.142 HD
ATOM     12  H   LIG    1       24.848 -11.951   3.307  0.00  0.00    +0.142 HD
ENDBRANCH   7  10
ENDBRANCH   1   4
BRANCH   1  13
ATOM     13  N   LIG    1       24.128 -19.125   3.806  0.00  0.00    -0.184 N 
ATOM     14  H   LIG    1       23.384 -18.450   3.924  0.00  0.00    +0.177 HD
BRANCH  13  18
ATOM     15  C   LIG    1       26.766 -21.572   6.856  0.00  0.00    +0.066 C 
ATOM     16  C   LIG    1       25.406 -21.150   6.388  0.00  0.00    +0.043 A 
ATOM     17  N   LIG    1       25.358 -20.340   5.310  0.00  0.00    -0.218 NA
ATOM     18  C   LIG    1       24.139 -20.004   4.886  0.00  0.00    +0.235 A 
ATOM     19  N   LIG    1       22.975 -20.368   5.420  0.00  0.00    -0.222 NA
ATOM     20  C   LIG    1       23.068 -21.129   6.524  0.00  0.00    +0.116 A 
ATOM     21  C   LIG    1       24.267 -21.547   7.062  0.00  0.00    +0.043 A 
ENDBRANCH  13  18
ENDBRANCH   1  13
TORSDOF 4
ENDMDL
MODEL 6
REMARK VINA RESULT:      -2.6      2.994      4.156
REMARK  Name = *****
REMARK                            x       y       z     vdW  Elec       q    Type
REMARK                         _______ _______ _______ _____ _____    ______ ____
ROOT
ATOM      1  S   LIG    1       24.352 -14.756   3.869  0.00  0.00    +0.075 S 
ATOM      2  O   LIG    1       23.769 -14.953   5.185  0.00  0.00    -0.150 OA
ATOM      3  O   LIG    1       23.617 -14.061   2.838  0.00  0.00    -0.150 OA
ENDROOT
BRANCH   1   4
ATOM      4  C   LIG    1       25.882 -13.875   4.126  0.00  0.00    +0.109 A 
ATOM      5  C   LIG    1       26.253 -13.500   5.421  0.00  0.00    +0.030 A 
ATOM      6  C   LIG    1       27.458 -12.823   5.622  0.00  0.00    +0.024 A 
ATOM      7  C   LIG    1       28.331 -12.581   4.557  0.00  0.00    +0.025 A 
ATOM      8  C   LIG    1       27.932 -12.937   3.263  0.00  0.00    +0.024 A 
ATOM      9  C   LIG    1       26.724 -13.606   3.046  0.00  0.00    +0.030 A 
BRANCH   7  10
ATOM     10  N   LIG    1       29.475 -11.797   4.750  0.00  0.00    -0.358 N 
ATOM     11  H   LIG    1       29.297 -10.799   4.701  0.00  0.00    +0.142 HD
ATOM     12  H   LIG    1       30.003 -12.047   5.581  0.00  0.00    +0.142 HD
ENDBRANCH   7  10
ENDBRANCH   1   4
BRANCH   1  13
ATOM     13  N   LIG    1       24.820 -16.277   3.348  0.00  0.00    -0.184 N 
ATOM     14  H   LIG    1       24.911 -16.288   2.341  0.00  0.00    +0.177 HD
BRANCH  13  18
ATOM     15  C   LIG    1       24.460 -20.904   4.186  0.00  0.00    +0.066 C 
ATOM     16  C   LIG    1       23.828 -19.546   4.204  0.00  0.00    +0.043 A 
ATOM     17  N   LIG    1       24.584 -18.518   3.766  0.00  0.00    -0.218 NA
ATOM     18  C   LIG    1       23.994 -17.321   3.754  0.00  0.00    +0.235 A 
ATOM     19  N   LIG    1       22.752 -17.036   4.140  0.00  0.00    -0.222 NA
ATOM     20  C   LIG    1       22.051 -18.077   4.620  0.00  0.00    +0.116 A 
ATOM     21  C   LIG    1       22.545 -19.363   4.683  0.00  0.00    +0.043 A 
ENDBRANCH  13  18
ENDBRANCH   1  13
TORSDOF 4
ENDMDL
MODEL 7
REMARK VINA RESULT:      -2.5      2.490      6.270
REMARK  Name = *****
REMARK                            x       y       z     vdW  Elec       q    Type
REMARK                         _______ _______ _______ _____ _____    ______ ____
ROOT
ATOM      1  S   LIG    1       22.884 -15.702   4.586  0.00  0.00    +0.075 S 
ATOM      2  O   LIG    1       22.546 -15.181   3.272  0.00  0.00    -0.150 OA
ATOM      3  O   LIG    1       21.976 -15.534   5.698  0.00  0.00    -0.150 OA
ENDROOT
BRANCH   1   4
ATOM      4  C   LIG    1       23.157 -17.453   4.374  0.00  0.00    +0.109 A 
ATOM      5  C   LIG    1       24.309 -17.896   3.719  0.00  0.00    +0.030 A 
ATOM      6  C   LIG    1       24.528 -19.268   3.566  0.00  0.00    +0.024 A 
ATOM      7  C   LIG    1       23.648 -20.201   4.123  0.00  0.00    +0.025 A 
ATOM      8  C   LIG    1       22.484 -19.740   4.750  0.00  0.00    +0.024 A 
ATOM      9  C   LIG    1       22.247 -18.371   4.901  0.00  0.00    +0.030 A 
BRANCH   7  10
ATOM     10  N   LIG    1       23.812 -21.566   3.860  0.00  0.00    -0.358 N 
ATOM     11  H   LIG    1       24.752 -21.813   3.564  0.00  0.00    +0.142 HD
ATOM     12  H   LIG    1       23.482 -22.168   4.609  0.00  0.00    +0.142 HD
ENDBRANCH   7  10
ENDBRANCH   1   4
BRANCH   1  13
ATOM     13  N   LIG    1       24.395 -15.077   4.947  0.00  0.00    -0.184 N 
ATOM     14  H   LIG    1       24.341 -14.487   5.767  0.00  0.00    +0.177 HD
BRANCH  13  18
ATOM     15  C   LIG    1       24.127 -11.449   1.945  0.00  0.00    +0.066 C 
ATOM     16  C   LIG    1       24.907 -12.606   2.490  0.00  0.00    +0.043 A 
ATOM     17  N   LIG    1       24.316 -13.334   3.461  0.00  0.00    -0.218 NA
ATOM     18  C   LIG    1       25.010 -14.382   3.909  0.00  0.00    +0.235 A 
ATOM     19  N   LIG    1       26.220 -14.771   3.514  0.00  0.00    -0.222 NA
ATOM     20  C   LIG    1       26.796 -13.988   2.585  0.00  0.00    +0.116 A 
ATOM     21  C   LIG    1       26.184 -12.880   2.039  0.00  0.00    +0.043 A 
ENDBRANCH  13  18
ENDBRANCH   1  13
TORSDOF 4
ENDMDL
MODEL 8
REMARK VINA RESULT:      -2.4      3.134      3.875
REMARK  Name = *****
REMARK                            x       y       z     vdW  Elec       q    Type
REMARK                         _______ _______ _______ _____ _____    ______ ____
ROOT
ATOM      1  S   LIG    1       25.694 -15.572   3.306  0.00  0.00    +0.075 S 
ATOM      2  O   LIG    1       24.627 -15.748   4.277  0.00  0.00    -0.150 OA
ATOM      3  O   LIG    1       25.395 -15.148   1.957  0.00  0.00    -0.150 OA
ENDROOT
BRANCH   1   4
ATOM      4  C   LIG    1       26.818 -14.378   4.010  0.00  0.00    +0.109 A 
ATOM      5  C   LIG    1       27.899 -13.919   3.253  0.00  0.00    +0.030 A 
ATOM      6  C   LIG    1       28.770 -12.974   3.800  0.00  0.00    +0.024 A 
ATOM      7  C   LIG    1       28.532 -12.429   5.066  0.00  0.00    +0.025 A 
ATOM      8  C   LIG    1       27.462 -12.921   5.823  0.00  0.00    +0.024 A 
ATOM      9  C   LIG    1       26.589 -13.874   5.291  0.00  0.00    +0.030 A 
BRANCH   7  10
ATOM     10  N   LIG    1       29.475 -11.575   5.652  0.00  0.00    -0.358 N 
ATOM     11  H   LIG    1       29.134 -11.102   6.484  0.00  0.00    +0.142 HD
ATOM     12  H   LIG    1       30.378 -12.013   5.810  0.00  0.00    +0.142 HD
ENDBRANCH   7  10
ENDBRANCH   1   4
BRANCH   1  13
ATOM     13  N   LIG    1       26.548 -17.012   3.306  0.00  0.00    -0.184 N 
ATOM     14  H   LIG    1       26.984 -17.158   2.404  0.00  0.00    +0.177 HD
BRANCH  13  18
ATOM     15  C   LIG    1       26.414 -20.993   5.829  0.00  0.00    +0.066 C 
ATOM     16  C   LIG    1       25.721 -20.037   4.908  0.00  0.00    +0.043 A 
ATOM     17  N   LIG    1       26.429 -18.961   4.505  0.00  0.00    -0.218 NA
ATOM     18  C   LIG    1       25.809 -18.138   3.657  0.00  0.00    +0.235 A 
ATOM     19  N   LIG    1       24.571 -18.260   3.181  0.00  0.00    -0.222 NA
ATOM     20  C   LIG    1       23.882 -19.315   3.648  0.00  0.00    +0.116 A 
ATOM     21  C   LIG    1       24.409 -20.239   4.526  0.00  0.00    +0.043 A 
ENDBRANCH  13  18
ENDBRANCH   1  13
TORSDOF 4
ENDMDL
MODEL 9
REMARK VINA RESULT:      -1.7      2.488      6.037
REMARK  Name = *****
REMARK                            x       y       z     vdW  Elec       q    Type
REMARK                         _______ _______ _______ _____ _____    ______ ____
ROOT
ATOM      1  S   LIG    1       22.929 -15.709   4.559  0.00  0.00    +0.075 S 
ATOM      2  O   LIG    1       22.699 -15.166   3.231  0.00  0.00    -0.150 OA
ATOM      3  O   LIG    1       21.937 -15.549   5.598  0.00  0.00    -0.150 OA
ENDROOT
BRANCH   1   4
ATOM      4  C   LIG    1       23.204 -17.459   4.343  0.00  0.00    +0.109 A 
ATOM      5  C   LIG    1       24.392 -17.903   3.757  0.00  0.00    +0.030 A 
ATOM      6  C   LIG    1       24.612 -19.274   3.601  0.00  0.00    +0.024 A 
ATOM      7  C   LIG    1       23.692 -20.207   4.090  0.00  0.00    +0.025 A 
ATOM      8  C   LIG    1       22.494 -19.746   4.648  0.00  0.00    +0.024 A 
ATOM      9  C   LIG    1       22.257 -18.377   4.801  0.00  0.00    +0.030 A 
BRANCH   7  10
ATOM     10  N   LIG    1       23.864 -21.571   3.822  0.00  0.00    -0.358 N 
ATOM     11  H   LIG    1       24.734 -21.950   4.184  0.00  0.00    +0.142 HD
ATOM     12  H   LIG    1       23.066 -22.141   4.083  0.00  0.00    +0.142 HD
ENDBRANCH   7  10
ENDBRANCH   1   4
BRANCH   1  13
ATOM     13  N   LIG    1       24.411 -15.103   5.047  0.00  0.00    -0.184 N 
ATOM     14  H   LIG    1       24.332 -14.688   5.966  0.00  0.00    +0.177 HD
BRANCH  13  18
ATOM     15  C   LIG    1       28.427 -13.298   3.356  0.00  0.00    +0.066 C 
ATOM     16  C   LIG    1       26.930 -13.351   3.319  0.00  0.00    +0.043 A 
ATOM     17  N   LIG    1       26.329 -14.185   4.193  0.00  0.00    -0.218 NA
ATOM     18  C   LIG    1       24.995 -14.192   4.170  0.00  0.00    +0.235 A 
ATOM     19  N   LIG    1       24.202 -13.480   3.372  0.00  0.00    -0.222 NA
ATOM     20  C   LIG    1       24.840 -12.704   2.480  0.00  0.00    +0.116 A 
ATOM     21  C   LIG    1       26.213 -12.605   2.403  0.00  0.00    +0.043 A 
ENDBRANCH  13  18
ENDBRANCH   1  13
TORSDOF 4
ENDMDL
