MODEL 1
REMARK VINA RESULT:     -10.2      0.000      0.000
REMARK  Name = *****
REMARK                            x       y       z     vdW  Elec       q    Type
REMARK                         _______ _______ _______ _____ _____    ______ ____
ROOT
ATOM      1  C   LIG    1       24.186 -21.810   7.286  0.00  0.00    +0.116 C 
ENDROOT
BRANCH   1   2
ATOM      2  C   LIG    1       24.025 -20.946   6.025  0.00  0.00    -0.012 A 
ATOM      3  C   LIG    1       22.934 -20.062   5.905  0.00  0.00    +0.007 A 
ATOM      4  C   LIG    1       22.772 -19.271   4.766  0.00  0.00    +0.000 A 
ATOM      5  C   LIG    1       23.693 -19.347   3.725  0.00  0.00    +0.000 A 
ATOM      6  C   LIG    1       24.775 -20.218   3.819  0.00  0.00    +0.000 A 
ATOM      7  C   LIG    1       24.939 -21.011   4.959  0.00  0.00    +0.007 A 
ENDBRANCH   1   2
BRANCH   1   8
ATOM      8  C   LIG    1       24.511 -23.277   6.924  0.00  0.00    -0.012 A 
ATOM      9  C   LIG    1       25.815 -23.804   6.975  0.00  0.00    +0.007 A 
ATOM     10  C   LIG    1       26.069 -25.136   6.639  0.00  0.00    +0.000 A 
ATOM     11  C   LIG    1       25.030 -25.970   6.248  0.00  0.00    +0.000 A 
ATOM     12  C   LIG    1       23.728 -25.474   6.190  0.00  0.00    +0.000 A 
ATOM     13  C   LIG    1       23.474 -24.142   6.525  0.00  0.00    +0.007 A 
ENDBRANCH   1   8
BRANCH   1  14
ATOM     14  O   LIG    1       22.944 -21.834   8.019  0.00  0.00    -0.379 OA
ATOM     15  H   LIG    1       22.407 -22.558   7.661  0.00  0.00    +0.211 HD
ENDBRANCH   1  14
BRANCH   1  16
ATOM     16  C   LIG    1       25.234 -21.172   8.244  0.00  0.00    +0.046 C 
BRANCH  16  17
ATOM     17  C   LIG    1       26.373 -20.406   7.554  0.00  0.00    +0.019 C 
BRANCH  17  18
ATOM     18  C   LIG    1       27.706 -21.164   7.700  0.00  0.00    +0.084 C 
BRANCH  18  19
ATOM     19  N   LIG    1       28.853 -20.292   8.005  0.00  0.00    -0.302 NA
ATOM     20  C   LIG    1       29.113 -19.379   6.876  0.00  0.00    +0.084 C 
ATOM     21  C   LIG    1       30.250 -18.405   7.194  0.00  0.00    +0.015 C 
ATOM     22  C   LIG    1       31.522 -19.144   7.592  0.00  0.00    +0.002 C 
ATOM     23  C   LIG    1       31.226 -20.143   8.702  0.00  0.00    +0.015 C 
ATOM     24  C   LIG    1       30.064 -21.063   8.329  0.00  0.00    +0.084 C 
ENDBRANCH  18  19
ENDBRANCH  17  18
ENDBRANCH  16  17
ENDBRANCH   1  16
TORSDOF 7
ENDMDL
MODEL 2
REMARK VINA RESULT:     -10.2      0.038      1.006
REMARK  Name = *****
REMARK                            x       y       z     vdW  Elec       q    Type
REMARK                         _______ _______ _______ _____ _____    ______ ____
ROOT
ATOM      1  C   LIG    1       24.178 -21.808   7.306  0.00  0.00    +0.116 C 
ENDROOT
BRANCH   1   2
ATOM      2  C   LIG    1       23.998 -20.946   6.045  0.00  0.00    -0.012 A 
ATOM      3  C   LIG    1       24.923 -21.037   4.986  0.00  0.00    +0.007 A 
ATOM      4  C   LIG    1       24.776 -20.261   3.835  0.00  0.00    +0.000 A 
ATOM      5  C   LIG    1       23.705 -19.379   3.719  0.00  0.00    +0.000 A 
ATOM      6  C   LIG    1       22.783 -19.268   4.755  0.00  0.00    +0.000 A 
ATOM      7  C   LIG    1       22.928 -20.045   5.909  0.00  0.00    +0.007 A 
ENDBRANCH   1   2
BRANCH   1   8
ATOM      8  C   LIG    1       24.494 -23.276   6.942  0.00  0.00    -0.012 A 
ATOM      9  C   LIG    1       25.793 -23.814   7.003  0.00  0.00    +0.007 A 
ATOM     10  C   LIG    1       26.040 -25.148   6.665  0.00  0.00    +0.000 A 
ATOM     11  C   LIG    1       24.997 -25.971   6.261  0.00  0.00    +0.000 A 
ATOM     12  C   LIG    1       23.700 -25.464   6.193  0.00  0.00    +0.000 A 
ATOM     13  C   LIG    1       23.453 -24.131   6.531  0.00  0.00    +0.007 A 
ENDBRANCH   1   8
BRANCH   1  14
ATOM     14  O   LIG    1       22.948 -21.827   8.059  0.00  0.00    -0.379 OA
ATOM     15  H   LIG    1       23.161 -22.113   8.961  0.00  0.00    +0.211 HD
ENDBRANCH   1  14
BRANCH   1  16
ATOM     16  C   LIG    1       25.243 -21.170   8.246  0.00  0.00    +0.046 C 
BRANCH  16  17
ATOM     17  C   LIG    1       26.378 -20.418   7.535  0.00  0.00    +0.019 C 
BRANCH  17  18
ATOM     18  C   LIG    1       27.710 -21.176   7.685  0.00  0.00    +0.084 C 
BRANCH  18  19
ATOM     19  N   LIG    1       28.852 -20.309   8.021  0.00  0.00    -0.302 NA
ATOM     20  C   LIG    1       29.106 -19.354   6.926  0.00  0.00    +0.084 C 
ATOM     21  C   LIG    1       30.237 -18.384   7.279  0.00  0.00    +0.015 C 
ATOM     22  C   LIG    1       31.513 -19.129   7.651  0.00  0.00    +0.002 C 
ATOM     23  C   LIG    1       31.223 -20.169   8.724  0.00  0.00    +0.015 C 
ATOM     24  C   LIG    1       30.068 -21.082   8.319  0.00  0.00    +0.084 C 
ENDBRANCH  18  19
ENDBRANCH  17  18
ENDBRANCH  16  17
ENDBRANCH   1  16
TORSDOF 7
ENDMDL
MODEL 3
REMARK VINA RESULT:      -9.2      1.140      4.251
REMARK  Name = *****
REMARK                            x       y       z     vdW  Elec       q    Type
REMARK                         _______ _______ _______ _____ _____    ______ ____
ROOT
ATOM      1  C   LIG    1       25.371 -21.441   6.464  0.00  0.00    +0.116 C 
ENDROOT
BRANCH   1   2
ATOM      2  C   LIG    1       24.929 -22.914   6.438  0.00  0.00    -0.012 A 
ATOM      3  C   LIG    1       25.884 -23.939   6.292  0.00  0.00    +0.007 A 
ATOM      4  C   LIG    1       25.500 -25.281   6.266  0.00  0.00    +0.000 A 
ATOM      5  C   LIG    1       24.156 -25.626   6.382  0.00  0.00    +0.000 A 
ATOM      6  C   LIG    1       23.194 -24.629   6.521  0.00  0.00    +0.000 A 
ATOM      7  C   LIG    1       23.578 -23.284   6.548  0.00  0.00    +0.007 A 
ENDBRANCH   1   2
BRANCH   1   8
ATOM      8  C   LIG    1       24.424 -20.556   5.623  0.00  0.00    -0.012 A 
ATOM      9  C   LIG    1       23.139 -20.184   6.061  0.00  0.00    +0.007 A 
ATOM     10  C   LIG    1       22.311 -19.381   5.271  0.00  0.00    +0.000 A 
ATOM     11  C   LIG    1       22.748 -18.933   4.031  0.00  0.00    +0.000 A 
ATOM     12  C   LIG    1       24.016 -19.286   3.574  0.00  0.00    +0.000 A 
ATOM     13  C   LIG    1       24.844 -20.088   4.363  0.00  0.00    +0.007 A 
ENDBRANCH   1   8
BRANCH   1  14
ATOM     14  O   LIG    1       26.681 -21.319   5.873  0.00  0.00    -0.379 OA
ATOM     15  H   LIG    1       26.950 -22.201   5.573  0.00  0.00    +0.211 HD
ENDBRANCH   1  14
BRANCH   1  16
ATOM     16  C   LIG    1       25.519 -20.951   7.934  0.00  0.00    +0.046 C 
BRANCH  16  17
ATOM     17  C   LIG    1       26.889 -20.356   8.293  0.00  0.00    +0.019 C 
BRANCH  17  18
ATOM     18  C   LIG    1       27.996 -21.419   8.164  0.00  0.00    +0.084 C 
BRANCH  18  19
ATOM     19  N   LIG    1       29.281 -20.883   7.683  0.00  0.00    -0.302 NA
ATOM     20  C   LIG    1       30.263 -20.855   8.783  0.00  0.00    +0.084 C 
ATOM     21  C   LIG    1       31.634 -20.377   8.297  0.00  0.00    +0.015 C 
ATOM     22  C   LIG    1       31.542 -19.014   7.622  0.00  0.00    +0.002 C 
ATOM     23  C   LIG    1       30.468 -19.031   6.544  0.00  0.00    +0.015 C 
ATOM     24  C   LIG    1       29.137 -19.544   7.090  0.00  0.00    +0.084 C 
ENDBRANCH  18  19
ENDBRANCH  17  18
ENDBRANCH  16  17
ENDBRANCH   1  16
TORSDOF 7
ENDMDL
MODEL 4
REMARK VINA RESULT:      -9.1      2.011      6.233
REMARK  Name = *****
REMARK                            x       y       z     vdW  Elec       q    Type
REMARK                         _______ _______ _______ _____ _____    ______ ____
ROOT
ATOM      1  C   LIG    1       26.036 -21.139   7.110  0.00  0.00    +0.116 C 
ENDROOT
BRANCH   1   2
ATOM      2  C   LIG    1       27.342 -20.342   6.953  0.00  0.00    -0.012 A 
ATOM      3  C   LIG    1       28.165 -20.100   8.070  0.00  0.00    +0.007 A 
ATOM      4  C   LIG    1       29.354 -19.378   7.946  0.00  0.00    +0.000 A 
ATOM      5  C   LIG    1       29.743 -18.882   6.704  0.00  0.00    +0.000 A 
ATOM      6  C   LIG    1       28.942 -19.104   5.587  0.00  0.00    +0.000 A 
ATOM      7  C   LIG    1       27.752 -19.828   5.711  0.00  0.00    +0.007 A 
ENDBRANCH   1   2
BRANCH   1   8
ATOM      8  C   LIG    1       24.956 -20.647   6.121  0.00  0.00    -0.012 A 
ATOM      9  C   LIG    1       25.213 -20.437   4.753  0.00  0.00    +0.007 A 
ATOM     10  C   LIG    1       24.209 -19.990   3.890  0.00  0.00    +0.000 A 
ATOM     11  C   LIG    1       22.930 -19.745   4.372  0.00  0.00    +0.000 A 
ATOM     12  C   LIG    1       22.648 -19.945   5.722  0.00  0.00    +0.000 A 
ATOM     13  C   LIG    1       23.651 -20.392   6.586  0.00  0.00    +0.007 A 
ENDBRANCH   1   8
BRANCH   1  14
ATOM     14  O   LIG    1       25.503 -20.938   8.435  0.00  0.00    -0.379 OA
ATOM     15  H   LIG    1       25.701 -20.023   8.694  0.00  0.00    +0.211 HD
ENDBRANCH   1  14
BRANCH   1  16
ATOM     16  C   LIG    1       26.321 -22.665   6.992  0.00  0.00    +0.046 C 
BRANCH  16  17
ATOM     17  C   LIG    1       25.084 -23.548   6.773  0.00  0.00    +0.019 C 
BRANCH  17  18
ATOM     18  C   LIG    1       25.220 -24.363   5.473  0.00  0.00    +0.084 C 
BRANCH  18  19
ATOM     19  N   LIG    1       25.439 -25.803   5.695  0.00  0.00    -0.302 NA
ATOM     20  C   LIG    1       24.228 -26.563   5.333  0.00  0.00    +0.084 C 
ATOM     21  C   LIG    1       24.449 -28.071   5.477  0.00  0.00    +0.015 C 
ATOM     22  C   LIG    1       24.913 -28.434   6.882  0.00  0.00    +0.002 C 
ATOM     23  C   LIG    1       26.113 -27.586   7.277  0.00  0.00    +0.015 C 
ATOM     24  C   LIG    1       25.833 -26.097   7.082  0.00  0.00    +0.084 C 
ENDBRANCH  18  19
ENDBRANCH  17  18
ENDBRANCH  16  17
ENDBRANCH   1  16
TORSDOF 7
ENDMDL
MODEL 5
REMARK VINA RESULT:      -9.0      2.295      6.615
REMARK  Name = *****
REMARK                            x       y       z     vdW  Elec       q    Type
REMARK                         _______ _______ _______ _____ _____    ______ ____
ROOT
ATOM      1  C   LIG    1       25.909 -21.842   7.131  0.00  0.00    +0.116 C 
ENDROOT
BRANCH   1   2
ATOM      2  C   LIG    1       27.247 -21.098   6.990  0.00  0.00    -0.012 A 
ATOM      3  C   LIG    1       28.319 -21.398   7.853  0.00  0.00    +0.007 A 
ATOM      4  C   LIG    1       29.541 -20.732   7.741  0.00  0.00    +0.000 A 
ATOM      5  C   LIG    1       29.716 -19.753   6.766  0.00  0.00    +0.000 A 
ATOM      6  C   LIG    1       28.668 -19.437   5.906  0.00  0.00    +0.000 A 
ATOM      7  C   LIG    1       27.444 -20.103   6.017  0.00  0.00    +0.007 A 
ENDBRANCH   1   2
BRANCH   1   8
ATOM      8  C   LIG    1       24.830 -21.237   6.204  0.00  0.00    -0.012 A 
ATOM      9  C   LIG    1       23.692 -20.568   6.693  0.00  0.00    +0.007 A 
ATOM     10  C   LIG    1       22.738 -20.035   5.822  0.00  0.00    +0.000 A 
ATOM     11  C   LIG    1       22.901 -20.155   4.448  0.00  0.00    +0.000 A 
ATOM     12  C   LIG    1       24.019 -20.812   3.937  0.00  0.00    +0.000 A 
ATOM     13  C   LIG    1       24.973 -21.346   4.807  0.00  0.00    +0.007 A 
ENDBRANCH   1   8
BRANCH   1  14
ATOM     14  O   LIG    1       25.417 -21.703   8.479  0.00  0.00    -0.379 OA
ATOM     15  H   LIG    1       25.385 -22.589   8.872  0.00  0.00    +0.211 HD
ENDBRANCH   1  14
BRANCH   1  16
ATOM     16  C   LIG    1       26.117 -23.369   6.908  0.00  0.00    +0.046 C 
BRANCH  16  17
ATOM     17  C   LIG    1       24.829 -24.192   6.758  0.00  0.00    +0.019 C 
BRANCH  17  18
ATOM     18  C   LIG    1       25.033 -25.345   5.757  0.00  0.00    +0.084 C 
BRANCH  18  19
ATOM     19  N   LIG    1       24.720 -26.674   6.311  0.00  0.00    -0.302 NA
ATOM     20  C   LIG    1       25.817 -27.131   7.184  0.00  0.00    +0.084 C 
ATOM     21  C   LIG    1       25.488 -28.475   7.840  0.00  0.00    +0.015 C 
ATOM     22  C   LIG    1       25.150 -29.535   6.798  0.00  0.00    +0.002 C 
ATOM     23  C   LIG    1       24.075 -29.021   5.851  0.00  0.00    +0.015 C 
ATOM     24  C   LIG    1       24.456 -27.666   5.257  0.00  0.00    +0.084 C 
ENDBRANCH  18  19
ENDBRANCH  17  18
ENDBRANCH  16  17
ENDBRANCH   1  16
TORSDOF 7
ENDMDL
MODEL 6
REMARK VINA RESULT:      -8.8      2.205      5.843
REMARK  Name = *****
REMARK                            x       y       z     vdW  Elec       q    Type
REMARK                         _______ _______ _______ _____ _____    ______ ____
ROOT
ATOM      1  C   LIG    1       24.869 -21.732   5.872  0.00  0.00    +0.116 C 
ENDROOT
BRANCH   1   2
ATOM      2  C   LIG    1       24.089 -20.578   5.221  0.00  0.00    -0.012 A 
ATOM      3  C   LIG    1       24.554 -19.991   4.028  0.00  0.00    +0.007 A 
ATOM      4  C   LIG    1       23.859 -18.942   3.423  0.00  0.00    +0.000 A 
ATOM      5  C   LIG    1       22.688 -18.457   3.998  0.00  0.00    +0.000 A 
ATOM      6  C   LIG    1       22.212 -19.018   5.180  0.00  0.00    +0.000 A 
ATOM      7  C   LIG    1       22.907 -20.069   5.787  0.00  0.00    +0.007 A 
ENDBRANCH   1   2
BRANCH   1   8
ATOM      8  C   LIG    1       26.237 -21.253   6.407  0.00  0.00    -0.012 A 
ATOM      9  C   LIG    1       27.017 -20.284   5.748  0.00  0.00    +0.007 A 
ATOM     10  C   LIG    1       28.250 -19.876   6.264  0.00  0.00    +0.000 A 
ATOM     11  C   LIG    1       28.730 -20.425   7.446  0.00  0.00    +0.000 A 
ATOM     12  C   LIG    1       27.977 -21.386   8.120  0.00  0.00    +0.000 A 
ATOM     13  C   LIG    1       26.744 -21.793   7.605  0.00  0.00    +0.007 A 
ENDBRANCH   1   8
BRANCH   1  14
ATOM     14  O   LIG    1       25.146 -22.747   4.886  0.00  0.00    -0.379 OA
ATOM     15  H   LIG    1       25.397 -23.555   5.361  0.00  0.00    +0.211 HD
ENDBRANCH   1  14
BRANCH   1  16
ATOM     16  C   LIG    1       23.996 -22.423   6.961  0.00  0.00    +0.046 C 
BRANCH  16  17
ATOM     17  C   LIG    1       23.638 -23.890   6.682  0.00  0.00    +0.019 C 
BRANCH  17  18
ATOM     18  C   LIG    1       24.845 -24.806   6.954  0.00  0.00    +0.084 C 
BRANCH  18  19
ATOM     19  N   LIG    1       24.987 -25.904   5.982  0.00  0.00    -0.302 NA
ATOM     20  C   LIG    1       24.221 -27.082   6.429  0.00  0.00    +0.084 C 
ATOM     21  C   LIG    1       24.282 -28.214   5.401  0.00  0.00    +0.015 C 
ATOM     22  C   LIG    1       25.722 -28.598   5.081  0.00  0.00    +0.002 C 
ATOM     23  C   LIG    1       26.525 -27.363   4.700  0.00  0.00    +0.015 C 
ATOM     24  C   LIG    1       26.395 -26.266   5.755  0.00  0.00    +0.084 C 
ENDBRANCH  18  19
ENDBRANCH  17  18
ENDBRANCH  16  17
ENDBRANCH   1  16
TORSDOF 7
ENDMDL
MODEL 7
REMARK VINA RESULT:      -7.7      2.544      5.844
REMARK  Name = *****
REMARK                            x       y       z     vdW  Elec       q    Type
REMARK                         _______ _______ _______ _____ _____    ______ ____
ROOT
ATOM      1  C   LIG    1       25.066 -20.900   4.864  0.00  0.00    +0.116 C 
ENDROOT
BRANCH   1   2
ATOM      2  C   LIG    1       23.891 -19.933   4.644  0.00  0.00    -0.012 A 
ATOM      3  C   LIG    1       22.573 -20.342   4.927  0.00  0.00    +0.007 A 
ATOM      4  C   LIG    1       21.494 -19.477   4.732  0.00  0.00    +0.000 A 
ATOM      5  C   LIG    1       21.709 -18.189   4.249  0.00  0.00    +0.000 A 
ATOM      6  C   LIG    1       23.003 -17.766   3.957  0.00  0.00    +0.000 A 
ATOM      7  C   LIG    1       24.084 -18.630   4.152  0.00  0.00    +0.007 A 
ENDBRANCH   1   2
BRANCH   1   8
ATOM      8  C   LIG    1       25.716 -20.688   6.250  0.00  0.00    -0.012 A 
ATOM      9  C   LIG    1       24.989 -20.767   7.453  0.00  0.00    +0.007 A 
ATOM     10  C   LIG    1       25.613 -20.568   8.688  0.00  0.00    +0.000 A 
ATOM     11  C   LIG    1       26.972 -20.288   8.748  0.00  0.00    +0.000 A 
ATOM     12  C   LIG    1       27.715 -20.205   7.572  0.00  0.00    +0.000 A 
ATOM     13  C   LIG    1       27.092 -20.404   6.338  0.00  0.00    +0.007 A 
ENDBRANCH   1   8
BRANCH   1  14
ATOM     14  O   LIG    1       26.094 -20.644   3.885  0.00  0.00    -0.379 OA
ATOM     15  H   LIG    1       26.651 -21.437   3.832  0.00  0.00    +0.211 HD
ENDBRANCH   1  14
BRANCH   1  16
ATOM     16  C   LIG    1       24.605 -22.368   4.625  0.00  0.00    +0.046 C 
BRANCH  16  17
ATOM     17  C   LIG    1       25.183 -23.404   5.600  0.00  0.00    +0.019 C 
BRANCH  17  18
ATOM     18  C   LIG    1       24.053 -24.182   6.301  0.00  0.00    +0.084 C 
BRANCH  18  19
ATOM     19  N   LIG    1       24.329 -25.621   6.454  0.00  0.00    -0.302 NA
ATOM     20  C   LIG    1       25.699 -25.825   6.958  0.00  0.00    +0.084 C 
ATOM     21  C   LIG    1       25.990 -27.308   7.204  0.00  0.00    +0.015 C 
ATOM     22  C   LIG    1       25.748 -28.138   5.949  0.00  0.00    +0.002 C 
ATOM     23  C   LIG    1       24.361 -27.858   5.391  0.00  0.00    +0.015 C 
ATOM     24  C   LIG    1       24.129 -26.360   5.198  0.00  0.00    +0.084 C 
ENDBRANCH  18  19
ENDBRANCH  17  18
ENDBRANCH  16  17
ENDBRANCH   1  16
TORSDOF 7
ENDMDL
MODEL 8
REMARK VINA RESULT:      -7.6      4.895      8.754
REMARK  Name = *****
REMARK                            x       y       z     vdW  Elec       q    Type
REMARK                         _______ _______ _______ _____ _____    ______ ____
ROOT
ATOM      1  C   LIG    1       24.819 -29.903   6.231  0.00  0.00    +0.116 C 
ENDROOT
BRANCH   1   2
ATOM      2  C   LIG    1       25.611 -31.125   5.740  0.00  0.00    -0.012 A 
ATOM      3  C   LIG    1       26.422 -31.851   6.635  0.00  0.00    +0.007 A 
ATOM      4  C   LIG    1       27.149 -32.964   6.206  0.00  0.00    +0.000 A 
ATOM      5  C   LIG    1       27.084 -33.371   4.876  0.00  0.00    +0.000 A 
ATOM      6  C   LIG    1       26.294 -32.665   3.973  0.00  0.00    +0.000 A 
ATOM      7  C   LIG    1       25.565 -31.552   4.401  0.00  0.00    +0.007 A 
ENDBRANCH   1   2
BRANCH   1   8
ATOM      8  C   LIG    1       24.871 -29.781   7.770  0.00  0.00    -0.012 A 
ATOM      9  C   LIG    1       25.932 -29.153   8.450  0.00  0.00    +0.007 A 
ATOM     10  C   LIG    1       25.944 -29.063   9.845  0.00  0.00    +0.000 A 
ATOM     11  C   LIG    1       24.899 -29.595  10.589  0.00  0.00    +0.000 A 
ATOM     12  C   LIG    1       23.835 -30.222   9.941  0.00  0.00    +0.000 A 
ATOM     13  C   LIG    1       23.823 -30.312   8.547  0.00  0.00    +0.007 A 
ENDBRANCH   1   8
BRANCH   1  14
ATOM     14  O   LIG    1       23.429 -30.053   5.878  0.00  0.00    -0.379 OA
ATOM     15  H   LIG    1       23.311 -29.685   4.987  0.00  0.00    +0.211 HD
ENDBRANCH   1  14
BRANCH   1  16
ATOM     16  C   LIG    1       25.308 -28.618   5.500  0.00  0.00    +0.046 C 
BRANCH  16  17
ATOM     17  C   LIG    1       24.616 -27.315   5.929  0.00  0.00    +0.019 C 
BRANCH  17  18
ATOM     18  C   LIG    1       25.648 -26.190   6.127  0.00  0.00    +0.084 C 
BRANCH  18  19
ATOM     19  N   LIG    1       25.062 -24.838   6.115  0.00  0.00    -0.302 NA
ATOM     20  C   LIG    1       25.898 -23.914   6.904  0.00  0.00    +0.084 C 
ATOM     21  C   LIG    1       25.359 -22.482   6.845  0.00  0.00    +0.015 C 
ATOM     22  C   LIG    1       23.906 -22.415   7.298  0.00  0.00    +0.002 C 
ATOM     23  C   LIG    1       23.068 -23.430   6.535  0.00  0.00    +0.015 C 
ATOM     24  C   LIG    1       23.678 -24.829   6.612  0.00  0.00    +0.084 C 
ENDBRANCH  18  19
ENDBRANCH  17  18
ENDBRANCH  16  17
ENDBRANCH   1  16
TORSDOF 7
ENDMDL
MODEL 9
REMARK VINA RESULT:      -7.3      2.414      6.535
REMARK  Name = *****
REMARK                            x       y       z     vdW  Elec       q    Type
REMARK                         _______ _______ _______ _____ _____    ______ ____
ROOT
ATOM      1  C   LIG    1       28.722 -20.683   6.652  0.00  0.00    +0.116 C 
ENDROOT
BRANCH   1   2
ATOM      2  C   LIG    1       29.662 -19.893   7.577  0.00  0.00    -0.012 A 
ATOM      3  C   LIG    1       30.589 -20.570   8.393  0.00  0.00    +0.007 A 
ATOM      4  C   LIG    1       31.450 -19.869   9.240  0.00  0.00    +0.000 A 
ATOM      5  C   LIG    1       31.400 -18.478   9.291  0.00  0.00    +0.000 A 
ATOM      6  C   LIG    1       30.487 -17.788   8.498  0.00  0.00    +0.000 A 
ATOM      7  C   LIG    1       29.625 -18.490   7.649  0.00  0.00    +0.007 A 
ENDBRANCH   1   2
BRANCH   1   8
ATOM      8  C   LIG    1       27.435 -21.112   7.392  0.00  0.00    -0.012 A 
ATOM      9  C   LIG    1       26.739 -20.258   8.268  0.00  0.00    +0.007 A 
ATOM     10  C   LIG    1       25.578 -20.682   8.920  0.00  0.00    +0.000 A 
ATOM     11  C   LIG    1       25.087 -21.965   8.710  0.00  0.00    +0.000 A 
ATOM     12  C   LIG    1       25.757 -22.831   7.848  0.00  0.00    +0.000 A 
ATOM     13  C   LIG    1       26.917 -22.407   7.196  0.00  0.00    +0.007 A 
ENDBRANCH   1   8
BRANCH   1  14
ATOM     14  O   LIG    1       29.373 -21.896   6.222  0.00  0.00    -0.379 OA
ATOM     15  H   LIG    1       29.110 -22.059   5.302  0.00  0.00    +0.211 HD
ENDBRANCH   1  14
BRANCH   1  16
ATOM     16  C   LIG    1       28.437 -19.870   5.355  0.00  0.00    +0.046 C 
BRANCH  16  17
ATOM     17  C   LIG    1       27.058 -19.198   5.291  0.00  0.00    +0.019 C 
BRANCH  17  18
ATOM     18  C   LIG    1       26.090 -20.024   4.422  0.00  0.00    +0.084 C 
BRANCH  18  19
ATOM     19  N   LIG    1       24.704 -20.031   4.920  0.00  0.00    -0.302 NA
ATOM     20  C   LIG    1       24.231 -21.417   5.088  0.00  0.00    +0.084 C 
ATOM     21  C   LIG    1       22.820 -21.459   5.681  0.00  0.00    +0.015 C 
ATOM     22  C   LIG    1       21.838 -20.653   4.840  0.00  0.00    +0.002 C 
ATOM     23  C   LIG    1       22.375 -19.249   4.603  0.00  0.00    +0.015 C 
ATOM     24  C   LIG    1       23.794 -19.282   4.039  0.00  0.00    +0.084 C 
ENDBRANCH  18  19
ENDBRANCH  17  18
ENDBRANCH  16  17
ENDBRANCH   1  16
TORSDOF 7
ENDMDL
