MODEL 1
REMARK VINA RESULT:      -7.7      0.000      0.000
REMARK  Name = *****
REMARK                            x       y       z     vdW  Elec       q    Type
REMARK                         _______ _______ _______ _____ _____    ______ ____
ROOT
ATOM      1  C   LIG    1       22.838 -20.717   5.401  0.00  0.00    +0.048 C 
ATOM      2  C   LIG    1       24.128 -20.697   6.161  0.00  0.00    +0.000 C 
ATOM      3  C   LIG    1       25.336 -20.281   5.399  0.00  0.00    +0.190 C 
ATOM      4  O   LIG    1       25.263 -19.975   4.214  0.00  0.00    -0.287 OA
ATOM      5  C   LIG    1       26.629 -20.247   6.110  0.00  0.00    +0.033 A 
ATOM      6  C   LIG    1       26.709 -20.594   7.457  0.00  0.00    +0.033 A 
ATOM      7  C   LIG    1       27.943 -20.557   8.119  0.00  0.00    +0.012 A 
ATOM      8  C   LIG    1       29.093 -20.171   7.429  0.00  0.00    +0.001 A 
ATOM      9  C   LIG    1       29.015 -19.822   6.080  0.00  0.00    +0.001 A 
ATOM     10  C   LIG    1       25.499 -21.005   8.192  0.00  0.00    +0.187 C 
ATOM     11  O   LIG    1       25.535 -21.317   9.375  0.00  0.00    -0.287 OA
ATOM     12  C   LIG    1       27.785 -19.859   5.419  0.00  0.00    +0.012 A 
ATOM     13  C   LIG    1       24.222 -21.028   7.455  0.00  0.00    +0.058 C 
ENDROOT
TORSDOF 0
ENDMDL
MODEL 2
REMARK VINA RESULT:      -7.6      1.426      3.888
REMARK  Name = *****
REMARK                            x       y       z     vdW  Elec       q    Type
REMARK                         _______ _______ _______ _____ _____    ______ ____
ROOT
ATOM      1  C   LIG    1       28.115 -21.380   7.829  0.00  0.00    +0.048 C 
ATOM      2  C   LIG    1       26.729 -21.148   7.314  0.00  0.00    +0.000 C 
ATOM      3  C   LIG    1       26.619 -20.429   6.016  0.00  0.00    +0.190 C 
ATOM      4  O   LIG    1       27.619 -20.054   5.413  0.00  0.00    -0.287 OA
ATOM      5  C   LIG    1       25.270 -20.179   5.471  0.00  0.00    +0.033 A 
ATOM      6  C   LIG    1       24.136 -20.607   6.158  0.00  0.00    +0.033 A 
ATOM      7  C   LIG    1       22.861 -20.363   5.629  0.00  0.00    +0.012 A 
ATOM      8  C   LIG    1       22.729 -19.691   4.413  0.00  0.00    +0.001 A 
ATOM      9  C   LIG    1       23.863 -19.262   3.724  0.00  0.00    +0.001 A 
ATOM     10  C   LIG    1       24.268 -21.316   7.443  0.00  0.00    +0.187 C 
ATOM     11  O   LIG    1       23.292 -21.705   8.072  0.00  0.00    -0.287 OA
ATOM     12  C   LIG    1       25.134 -19.505   4.250  0.00  0.00    +0.012 A 
ATOM     13  C   LIG    1       25.629 -21.552   7.961  0.00  0.00    +0.058 C 
ENDROOT
TORSDOF 0
ENDMDL
MODEL 3
REMARK VINA RESULT:      -7.6      1.048      3.779
REMARK  Name = *****
REMARK                            x       y       z     vdW  Elec       q    Type
REMARK                         _______ _______ _______ _____ _____    ______ ____
ROOT
ATOM      1  C   LIG    1       29.516 -20.056   7.166  0.00  0.00    +0.048 C 
ATOM      2  C   LIG    1       28.048 -20.335   7.241  0.00  0.00    +0.000 C 
ATOM      3  C   LIG    1       27.271 -20.119   5.990  0.00  0.00    +0.190 C 
ATOM      4  O   LIG    1       27.818 -19.733   4.963  0.00  0.00    -0.287 OA
ATOM      5  C   LIG    1       25.818 -20.383   6.020  0.00  0.00    +0.033 A 
ATOM      6  C   LIG    1       25.199 -20.821   7.188  0.00  0.00    +0.033 A 
ATOM      7  C   LIG    1       23.820 -21.067   7.201  0.00  0.00    +0.012 A 
ATOM      8  C   LIG    1       23.066 -20.873   6.043  0.00  0.00    +0.001 A 
ATOM      9  C   LIG    1       23.685 -20.434   4.872  0.00  0.00    +0.001 A 
ATOM     10  C   LIG    1       25.988 -21.027   8.416  0.00  0.00    +0.187 C 
ATOM     11  O   LIG    1       25.475 -21.411   9.459  0.00  0.00    -0.287 OA
ATOM     12  C   LIG    1       25.059 -20.189   4.858  0.00  0.00    +0.012 A 
ATOM     13  C   LIG    1       27.437 -20.757   8.355  0.00  0.00    +0.058 C 
ENDROOT
TORSDOF 0
ENDMDL
MODEL 4
REMARK VINA RESULT:      -7.4      0.606      2.890
REMARK  Name = *****
REMARK                            x       y       z     vdW  Elec       q    Type
REMARK                         _______ _______ _______ _____ _____    ______ ____
ROOT
ATOM      1  C   LIG    1       23.156 -21.826   7.626  0.00  0.00    +0.048 C 
ATOM      2  C   LIG    1       24.387 -21.244   7.003  0.00  0.00    +0.000 C 
ATOM      3  C   LIG    1       25.559 -21.066   7.902  0.00  0.00    +0.190 C 
ATOM      4  O   LIG    1       25.504 -21.381   9.086  0.00  0.00    -0.287 OA
ATOM      5  C   LIG    1       26.795 -20.495   7.329  0.00  0.00    +0.033 A 
ATOM      6  C   LIG    1       26.855 -20.138   5.984  0.00  0.00    +0.033 A 
ATOM      7  C   LIG    1       28.034 -19.597   5.453  0.00  0.00    +0.012 A 
ATOM      8  C   LIG    1       29.149 -19.418   6.274  0.00  0.00    +0.001 A 
ATOM      9  C   LIG    1       29.090 -19.776   7.621  0.00  0.00    +0.001 A 
ATOM     10  C   LIG    1       25.681 -20.323   5.112  0.00  0.00    +0.187 C 
ATOM     11  O   LIG    1       25.700 -20.018   3.926  0.00  0.00    -0.287 OA
ATOM     12  C   LIG    1       27.916 -20.314   8.150  0.00  0.00    +0.012 A 
ATOM     13  C   LIG    1       24.462 -20.896   5.713  0.00  0.00    +0.058 C 
ENDROOT
TORSDOF 0
ENDMDL
MODEL 5
REMARK VINA RESULT:      -7.3      1.270      1.773
REMARK  Name = *****
REMARK                            x       y       z     vdW  Elec       q    Type
REMARK                         _______ _______ _______ _____ _____    ______ ____
ROOT
ATOM      1  C   LIG    1       22.773 -19.248   3.847  0.00  0.00    +0.048 C 
ATOM      2  C   LIG    1       23.543 -19.861   4.975  0.00  0.00    +0.000 C 
ATOM      3  C   LIG    1       25.026 -19.807   4.867  0.00  0.00    +0.190 C 
ATOM      4  O   LIG    1       25.572 -19.286   3.900  0.00  0.00    -0.287 OA
ATOM      5  C   LIG    1       25.824 -20.400   5.958  0.00  0.00    +0.033 A 
ATOM      6  C   LIG    1       25.201 -20.990   7.055  0.00  0.00    +0.033 A 
ATOM      7  C   LIG    1       25.972 -21.549   8.083  0.00  0.00    +0.012 A 
ATOM      8  C   LIG    1       27.365 -21.513   8.008  0.00  0.00    +0.001 A 
ATOM      9  C   LIG    1       27.991 -20.922   6.910  0.00  0.00    +0.001 A 
ATOM     10  C   LIG    1       23.730 -21.033   7.141  0.00  0.00    +0.187 C 
ATOM     11  O   LIG    1       23.152 -21.545   8.090  0.00  0.00    -0.287 OA
ATOM     12  C   LIG    1       27.224 -20.365   5.885  0.00  0.00    +0.012 A 
ATOM     13  C   LIG    1       22.960 -20.432   6.036  0.00  0.00    +0.058 C 
ENDROOT
TORSDOF 0
ENDMDL
MODEL 6
REMARK VINA RESULT:      -7.3      1.012      4.720
REMARK  Name = *****
REMARK                            x       y       z     vdW  Elec       q    Type
REMARK                         _______ _______ _______ _____ _____    ______ ____
ROOT
ATOM      1  C   LIG    1       29.209 -20.231   7.422  0.00  0.00    +0.048 C 
ATOM      2  C   LIG    1       27.841 -20.347   6.825  0.00  0.00    +0.000 C 
ATOM      3  C   LIG    1       26.823 -21.059   7.643  0.00  0.00    +0.190 C 
ATOM      4  O   LIG    1       27.104 -21.520   8.744  0.00  0.00    -0.287 OA
ATOM      5  C   LIG    1       25.460 -21.197   7.092  0.00  0.00    +0.033 A 
ATOM      6  C   LIG    1       25.143 -20.672   5.841  0.00  0.00    +0.033 A 
ATOM      7  C   LIG    1       23.846 -20.810   5.330  0.00  0.00    +0.012 A 
ATOM      8  C   LIG    1       22.870 -21.473   6.076  0.00  0.00    +0.001 A 
ATOM      9  C   LIG    1       23.186 -21.999   7.329  0.00  0.00    +0.001 A 
ATOM     10  C   LIG    1       26.169 -19.971   5.047  0.00  0.00    +0.187 C 
ATOM     11  O   LIG    1       25.923 -19.499   3.944  0.00  0.00    -0.287 OA
ATOM     12  C   LIG    1       24.479 -21.862   7.839  0.00  0.00    +0.012 A 
ATOM     13  C   LIG    1       27.520 -19.849   5.624  0.00  0.00    +0.058 C 
ENDROOT
TORSDOF 0
ENDMDL
MODEL 7
REMARK VINA RESULT:      -7.0      2.906      3.473
REMARK  Name = *****
REMARK                            x       y       z     vdW  Elec       q    Type
REMARK                         _______ _______ _______ _____ _____    ______ ____
ROOT
ATOM      1  C   LIG    1       23.964 -25.891   5.878  0.00  0.00    +0.048 C 
ATOM      2  C   LIG    1       24.273 -24.536   6.434  0.00  0.00    +0.000 C 
ATOM      3  C   LIG    1       25.714 -24.183   6.549  0.00  0.00    +0.190 C 
ATOM      4  O   LIG    1       26.588 -24.970   6.203  0.00  0.00    -0.287 OA
ATOM      5  C   LIG    1       26.063 -22.856   7.093  0.00  0.00    +0.033 A 
ATOM      6  C   LIG    1       25.068 -21.964   7.485  0.00  0.00    +0.033 A 
ATOM      7  C   LIG    1       25.414 -20.707   7.999  0.00  0.00    +0.012 A 
ATOM      8  C   LIG    1       26.758 -20.349   8.118  0.00  0.00    +0.001 A 
ATOM      9  C   LIG    1       27.756 -21.242   7.726  0.00  0.00    +0.001 A 
ATOM     10  C   LIG    1       23.646 -22.335   7.363  0.00  0.00    +0.187 C 
ATOM     11  O   LIG    1       22.747 -21.575   7.700  0.00  0.00    -0.287 OA
ATOM     12  C   LIG    1       27.412 -22.494   7.213  0.00  0.00    +0.012 A 
ATOM     13  C   LIG    1       23.328 -23.667   6.816  0.00  0.00    +0.058 C 
ENDROOT
TORSDOF 0
ENDMDL
MODEL 8
REMARK VINA RESULT:      -6.9      1.570      4.423
REMARK  Name = *****
REMARK                            x       y       z     vdW  Elec       q    Type
REMARK                         _______ _______ _______ _____ _____    ______ ____
ROOT
ATOM      1  C   LIG    1       25.862 -22.049   9.024  0.00  0.00    +0.048 C 
ATOM      2  C   LIG    1       25.673 -21.338   7.720  0.00  0.00    +0.000 C 
ATOM      3  C   LIG    1       24.267 -21.106   7.293  0.00  0.00    +0.190 C 
ATOM      4  O   LIG    1       23.325 -21.484   7.981  0.00  0.00    -0.287 OA
ATOM      5  C   LIG    1       24.036 -20.407   6.012  0.00  0.00    +0.033 A 
ATOM      6  C   LIG    1       25.107 -19.980   5.233  0.00  0.00    +0.033 A 
ATOM      7  C   LIG    1       24.873 -19.318   4.020  0.00  0.00    +0.012 A 
ATOM      8  C   LIG    1       23.563 -19.087   3.594  0.00  0.00    +0.001 A 
ATOM      9  C   LIG    1       22.489 -19.515   4.374  0.00  0.00    +0.001 A 
ATOM     10  C   LIG    1       26.492 -20.221   5.675  0.00  0.00    +0.187 C 
ATOM     11  O   LIG    1       27.456 -19.858   5.013  0.00  0.00    -0.287 OA
ATOM     12  C   LIG    1       22.722 -20.174   5.583  0.00  0.00    +0.012 A 
ATOM     13  C   LIG    1       26.692 -20.920   6.959  0.00  0.00    +0.058 C 
ENDROOT
TORSDOF 0
ENDMDL
MODEL 9
REMARK VINA RESULT:      -6.9      3.815      5.046
REMARK  Name = *****
REMARK                            x       y       z     vdW  Elec       q    Type
REMARK                         _______ _______ _______ _____ _____    ______ ____
ROOT
ATOM      1  C   LIG    1       25.681 -20.584   8.008  0.00  0.00    +0.048 C 
ATOM      2  C   LIG    1       25.099 -21.865   7.498  0.00  0.00    +0.000 C 
ATOM      3  C   LIG    1       26.064 -22.964   7.223  0.00  0.00    +0.190 C 
ATOM      4  O   LIG    1       27.266 -22.812   7.407  0.00  0.00    -0.287 OA
ATOM      5  C   LIG    1       25.532 -24.246   6.719  0.00  0.00    +0.033 A 
ATOM      6  C   LIG    1       24.165 -24.415   6.511  0.00  0.00    +0.033 A 
ATOM      7  C   LIG    1       23.675 -25.638   6.032  0.00  0.00    +0.012 A 
ATOM      8  C   LIG    1       24.557 -26.686   5.764  0.00  0.00    +0.001 A 
ATOM      9  C   LIG    1       25.926 -26.517   5.972  0.00  0.00    +0.001 A 
ATOM     10  C   LIG    1       23.228 -23.313   6.790  0.00  0.00    +0.187 C 
ATOM     11  O   LIG    1       22.021 -23.429   6.617  0.00  0.00    -0.287 OA
ATOM     12  C   LIG    1       26.416 -25.300   6.449  0.00  0.00    +0.012 A 
ATOM     13  C   LIG    1       23.788 -22.045   7.293  0.00  0.00    +0.058 C 
ENDROOT
TORSDOF 0
ENDMDL
