MODEL 1
REMARK VINA RESULT:       1.3      0.000      0.000
REMARK  Name = *****
REMARK                            x       y       z     vdW  Elec       q    Type
REMARK                         _______ _______ _______ _____ _____    ______ ____
ROOT
ATOM      1  N   LIG    1       26.561 -17.921   4.246  0.00  0.00    -0.297 NA
ATOM      2  C   LIG    1       27.379 -16.935   3.510  0.00  0.00    +0.100 C 
ATOM      3  C   LIG    1       27.338 -15.592   4.268  0.00  0.00    +0.100 C 
ATOM      4  N   LIG    1       27.384 -14.422   3.348  0.00  0.00    -0.290 NA
ATOM      5  C   LIG    1       26.233 -13.524   3.672  0.00  0.00    +0.100 C 
ATOM      6  C   LIG    1       24.836 -14.053   3.211  0.00  0.00    +0.100 C 
ATOM      7  N   LIG    1       23.943 -14.723   4.225  0.00  0.00    -0.290 NA
ATOM      8  C   LIG    1       22.799 -15.308   3.458  0.00  0.00    +0.100 C 
ATOM      9  C   LIG    1       22.067 -16.540   4.065  0.00  0.00    +0.100 C 
ATOM     10  N   LIG    1       22.762 -17.860   3.988  0.00  0.00    -0.290 NA
ATOM     11  C   LIG    1       24.073 -17.907   4.692  0.00  0.00    +0.100 C 
ATOM     12  C   LIG    1       25.202 -17.949   3.657  0.00  0.00    +0.100 C 
ENDROOT
BRANCH   1  13
ATOM     13  C   LIG    1       27.166 -19.271   4.272  0.00  0.00    +0.115 C 
BRANCH  13  15
ATOM     14  C   LIG    1       28.520 -20.374   6.130  0.00  0.00    +0.039 C 
ATOM     15  C   LIG    1       27.123 -20.005   5.644  0.00  0.00    +0.125 C 
BRANCH  15  16
ATOM     16  O   LIG    1       26.328 -21.189   5.569  0.00  0.00    -0.391 OA
ATOM     17  H   LIG    1       25.565 -21.082   6.159  0.00  0.00    +0.210 HD
ENDBRANCH  15  16
ENDBRANCH  13  15
ENDBRANCH   1  13
BRANCH   4  18
ATOM     18  C   LIG    1       28.648 -13.660   3.562  0.00  0.00    +0.205 C 
BRANCH  18  19
ATOM     19  C   LIG    1       28.561 -12.685   4.739  0.00  0.00    +0.319 C 
ATOM     20  O   LIG    1       27.747 -12.770   5.639  0.00  0.00    -0.250 OA
BRANCH  19  21
ATOM     21  O   LIG    1       29.475 -11.684   4.672  0.00  0.00    -0.480 OA
ATOM     22  H   LIG    1       29.597 -11.264   5.546  0.00  0.00    +0.295 HD
ENDBRANCH  19  21
ENDBRANCH  18  19
ENDBRANCH   4  18
BRANCH   7  23
ATOM     23  C   LIG    1       23.457 -13.687   5.204  0.00  0.00    +0.205 C 
BRANCH  23  24
ATOM     24  C   LIG    1       23.871 -12.252   4.880  0.00  0.00    +0.319 C 
ATOM     25  O   LIG    1       23.520 -11.640   3.911  0.00  0.00    -0.250 OA
BRANCH  24  26
ATOM     26  O   LIG    1       24.768 -11.743   5.773  0.00  0.00    -0.480 OA
ATOM     27  H   LIG    1       24.385 -11.906   6.649  0.00  0.00    +0.295 HD
ENDBRANCH  24  26
ENDBRANCH  23  24
ENDBRANCH   7  23
BRANCH  10  28
ATOM     28  C   LIG    1       21.907 -18.948   4.551  0.00  0.00    +0.205 C 
BRANCH  28  29
ATOM     29  C   LIG    1       22.733 -20.099   5.112  0.00  0.00    +0.319 C 
ATOM     30  O   LIG    1       23.000 -20.239   6.299  0.00  0.00    -0.250 OA
BRANCH  29  31
ATOM     31  O   LIG    1       23.209 -20.932   4.151  0.00  0.00    -0.480 OA
ATOM     32  H   LIG    1       22.859 -20.626   3.283  0.00  0.00    +0.295 HD
ENDBRANCH  29  31
ENDBRANCH  28  29
ENDBRANCH  10  28
TORSDOF 12
ENDMDL
MODEL 2
REMARK VINA RESULT:       1.5      1.248      6.110
REMARK  Name = *****
REMARK                            x       y       z     vdW  Elec       q    Type
REMARK                         _______ _______ _______ _____ _____    ______ ____
ROOT
ATOM      1  N   LIG    1       26.723 -17.978   3.942  0.00  0.00    -0.297 NA
ATOM      2  C   LIG    1       25.499 -18.535   4.551  0.00  0.00    +0.100 C 
ATOM      3  C   LIG    1       24.284 -18.117   3.697  0.00  0.00    +0.100 C 
ATOM      4  N   LIG    1       23.065 -17.888   4.522  0.00  0.00    -0.290 NA
ATOM      5  C   LIG    1       22.526 -16.532   4.199  0.00  0.00    +0.100 C 
ATOM      6  C   LIG    1       23.355 -15.339   4.779  0.00  0.00    +0.100 C 
ATOM      7  N   LIG    1       24.319 -14.617   3.873  0.00  0.00    -0.290 NA
ATOM      8  C   LIG    1       25.109 -13.695   4.747  0.00  0.00    +0.100 C 
ATOM      9  C   LIG    1       26.537 -13.289   4.280  0.00  0.00    +0.100 C 
ATOM     10  N   LIG    1       27.620 -14.307   4.415  0.00  0.00    -0.290 NA
ATOM     11  C   LIG    1       27.390 -15.558   3.642  0.00  0.00    +0.100 C 
ATOM     12  C   LIG    1       27.048 -16.695   4.609  0.00  0.00    +0.100 C 
ENDROOT
BRANCH   1  13
ATOM     13  C   LIG    1       27.868 -18.913   3.983  0.00  0.00    +0.115 C 
BRANCH  13  15
ATOM     14  C   LIG    1       29.359 -18.403   5.987  0.00  0.00    +0.039 C 
ATOM     15  C   LIG    1       28.326 -19.360   5.402  0.00  0.00    +0.125 C 
BRANCH  15  16
ATOM     16  O   LIG    1       28.876 -20.677   5.375  0.00  0.00    -0.391 OA
ATOM     17  H   LIG    1       29.245 -20.836   4.492  0.00  0.00    +0.210 HD
ENDBRANCH  15  16
ENDBRANCH  13  15
ENDBRANCH   1  13
BRANCH   4  18
ATOM     18  C   LIG    1       22.025 -18.900   4.178  0.00  0.00    +0.205 C 
BRANCH  18  19
ATOM     19  C   LIG    1       22.126 -20.167   5.031  0.00  0.00    +0.319 C 
ATOM     20  O   LIG    1       22.625 -20.208   6.139  0.00  0.00    -0.250 OA
BRANCH  19  21
ATOM     21  O   LIG    1       21.621 -21.267   4.416  0.00  0.00    -0.480 OA
ATOM     22  H   LIG    1       20.671 -21.374   4.618  0.00  0.00    +0.295 HD
ENDBRANCH  19  21
ENDBRANCH  18  19
ENDBRANCH   4  18
BRANCH   7  23
ATOM     23  C   LIG    1       23.534 -13.840   2.848  0.00  0.00    +0.205 C 
BRANCH  23  24
ATOM     24  C   LIG    1       23.899 -12.360   2.744  0.00  0.00    +0.319 C 
ATOM     25  O   LIG    1       24.460 -11.857   1.812  0.00  0.00    -0.250 OA
BRANCH  24  26
ATOM     26  O   LIG    1       23.598 -11.658   3.874  0.00  0.00    -0.480 OA
ATOM     27  H   LIG    1       23.277 -12.315   4.512  0.00  0.00    +0.295 HD
ENDBRANCH  24  26
ENDBRANCH  23  24
ENDBRANCH   7  23
BRANCH  10  28
ATOM     28  C   LIG    1       28.938 -13.746   3.987  0.00  0.00    +0.205 C 
BRANCH  28  29
ATOM     29  C   LIG    1       28.996 -12.231   4.137  0.00  0.00    +0.319 C 
ATOM     30  O   LIG    1       29.030 -11.448   3.196  0.00  0.00    -0.250 OA
BRANCH  29  31
ATOM     31  O   LIG    1       29.074 -11.825   5.430  0.00  0.00    -0.480 OA
ATOM     32  H   LIG    1       30.003 -11.557   5.610  0.00  0.00    +0.295 HD
ENDBRANCH  29  31
ENDBRANCH  28  29
ENDBRANCH  10  28
TORSDOF 12
ENDMDL
MODEL 3
REMARK VINA RESULT:       2.3      1.299      7.773
REMARK  Name = *****
REMARK                            x       y       z     vdW  Elec       q    Type
REMARK                         _______ _______ _______ _____ _____    ______ ____
ROOT
ATOM      1  N   LIG    1       23.645 -15.013   4.645  0.00  0.00    -0.297 NA
ATOM      2  C   LIG    1       22.737 -15.955   3.960  0.00  0.00    +0.100 C 
ATOM      3  C   LIG    1       22.811 -17.322   4.672  0.00  0.00    +0.100 C 
ATOM      4  N   LIG    1       22.649 -18.462   3.727  0.00  0.00    -0.290 NA
ATOM      5  C   LIG    1       23.800 -19.397   3.916  0.00  0.00    +0.100 C 
ATOM      6  C   LIG    1       25.163 -18.888   3.344  0.00  0.00    +0.100 C 
ATOM      7  N   LIG    1       26.162 -18.272   4.290  0.00  0.00    -0.290 NA
ATOM      8  C   LIG    1       27.247 -17.691   3.438  0.00  0.00    +0.100 C 
ATOM      9  C   LIG    1       28.065 -16.497   4.009  0.00  0.00    +0.100 C 
ATOM     10  N   LIG    1       27.402 -15.159   4.036  0.00  0.00    -0.290 NA
ATOM     11  C   LIG    1       26.162 -15.102   4.858  0.00  0.00    +0.100 C 
ATOM     12  C   LIG    1       24.945 -15.000   3.935  0.00  0.00    +0.100 C 
ENDROOT
BRANCH   1  13
ATOM     13  C   LIG    1       23.082 -13.650   4.766  0.00  0.00    +0.115 C 
BRANCH  13  15
ATOM     14  C   LIG    1       24.285 -11.514   5.467  0.00  0.00    +0.039 C 
ATOM     15  C   LIG    1       24.021 -12.490   4.325  0.00  0.00    +0.125 C 
BRANCH  15  16
ATOM     16  O   LIG    1       23.470 -11.773   3.220  0.00  0.00    -0.391 OA
ATOM     17  H   LIG    1       23.078 -12.415   2.606  0.00  0.00    +0.210 HD
ENDBRANCH  15  16
ENDBRANCH  13  15
ENDBRANCH   1  13
BRANCH   4  18
ATOM     18  C   LIG    1       21.390 -19.199   4.034  0.00  0.00    +0.205 C 
BRANCH  18  19
ATOM     19  C   LIG    1       21.634 -20.484   4.829  0.00  0.00    +0.319 C 
ATOM     20  O   LIG    1       21.172 -21.570   4.533  0.00  0.00    -0.250 OA
BRANCH  19  21
ATOM     21  O   LIG    1       22.405 -20.293   5.930  0.00  0.00    -0.480 OA
ATOM     22  H   LIG    1       23.302 -20.659   5.795  0.00  0.00    +0.295 HD
ENDBRANCH  19  21
ENDBRANCH  18  19
ENDBRANCH   4  18
BRANCH   7  23
ATOM     23  C   LIG    1       26.708 -19.350   5.189  0.00  0.00    +0.205 C 
BRANCH  23  24
ATOM     24  C   LIG    1       25.675 -20.366   5.676  0.00  0.00    +0.319 C 
ATOM     25  O   LIG    1       25.061 -20.280   6.702  0.00  0.00    -0.250 OA
BRANCH  24  26
ATOM     26  O   LIG    1       25.572 -21.452   4.858  0.00  0.00    -0.480 OA
ATOM     27  H   LIG    1       25.175 -22.151   5.401  0.00  0.00    +0.295 HD
ENDBRANCH  24  26
ENDBRANCH  23  24
ENDBRANCH   7  23
BRANCH  10  28
ATOM     28  C   LIG    1       28.334 -14.110   4.548  0.00  0.00    +0.205 C 
BRANCH  28  29
ATOM     29  C   LIG    1       28.380 -12.886   3.642  0.00  0.00    +0.319 C 
ATOM     30  O   LIG    1       29.164 -11.956   3.781  0.00  0.00    -0.250 OA
BRANCH  29  31
ATOM     31  O   LIG    1       27.412 -12.892   2.690  0.00  0.00    -0.480 OA
ATOM     32  H   LIG    1       27.594 -13.638   2.075  0.00  0.00    +0.295 HD
ENDBRANCH  29  31
ENDBRANCH  28  29
ENDBRANCH  10  28
TORSDOF 12
ENDMDL
MODEL 4
REMARK VINA RESULT:       2.5      1.600      6.454
REMARK  Name = *****
REMARK                            x       y       z     vdW  Elec       q    Type
REMARK                         _______ _______ _______ _____ _____    ______ ____
ROOT
ATOM      1  N   LIG    1       27.455 -15.771   3.941  0.00  0.00    -0.297 NA
ATOM      2  C   LIG    1       27.964 -16.831   4.834  0.00  0.00    +0.100 C 
ATOM      3  C   LIG    1       27.626 -18.204   4.218  0.00  0.00    +0.100 C 
ATOM      4  N   LIG    1       27.333 -19.233   5.254  0.00  0.00    -0.290 NA
ATOM      5  C   LIG    1       26.013 -19.857   4.938  0.00  0.00    +0.100 C 
ATOM      6  C   LIG    1       24.771 -18.954   5.233  0.00  0.00    +0.100 C 
ATOM      7  N   LIG    1       24.124 -18.213   4.090  0.00  0.00    -0.290 NA
ATOM      8  C   LIG    1       23.126 -17.282   4.703  0.00  0.00    +0.100 C 
ATOM      9  C   LIG    1       22.755 -15.990   3.918  0.00  0.00    +0.100 C 
ATOM     10  N   LIG    1       23.752 -14.879   3.911  0.00  0.00    -0.290 NA
ATOM     11  C   LIG    1       25.067 -15.235   3.309  0.00  0.00    +0.100 C 
ATOM     12  C   LIG    1       26.118 -15.345   4.417  0.00  0.00    +0.100 C 
ENDROOT
BRANCH   1  13
ATOM     13  C   LIG    1       28.378 -14.620   3.822  0.00  0.00    +0.115 C 
BRANCH  13  15
ATOM     14  C   LIG    1       28.837 -12.134   4.152  0.00  0.00    +0.039 C 
ATOM     15  C   LIG    1       27.865 -13.278   4.420  0.00  0.00    +0.125 C 
BRANCH  15  16
ATOM     16  O   LIG    1       27.654 -13.389   5.828  0.00  0.00    -0.391 OA
ATOM     17  H   LIG    1       27.125 -12.628   6.117  0.00  0.00    +0.210 HD
ENDBRANCH  15  16
ENDBRANCH  13  15
ENDBRANCH   1  13
BRANCH   4  18
ATOM     18  C   LIG    1       28.377 -20.298   5.218  0.00  0.00    +0.205 C 
BRANCH  18  19
ATOM     19  C   LIG    1       29.165 -20.401   6.526  0.00  0.00    +0.319 C 
ATOM     20  O   LIG    1       29.475 -21.450   7.058  0.00  0.00    -0.250 OA
BRANCH  19  21
ATOM     21  O   LIG    1       29.471 -19.192   7.062  0.00  0.00    -0.480 OA
ATOM     22  H   LIG    1       28.756 -18.546   6.899  0.00  0.00    +0.295 HD
ENDBRANCH  19  21
ENDBRANCH  18  19
ENDBRANCH   4  18
BRANCH   7  23
ATOM     23  C   LIG    1       23.443 -19.210   3.189  0.00  0.00    +0.205 C 
BRANCH  23  24
ATOM     24  C   LIG    1       23.100 -20.545   3.849  0.00  0.00    +0.319 C 
ATOM     25  O   LIG    1       23.732 -21.555   3.720  0.00  0.00    -0.250 OA
BRANCH  24  26
ATOM     26  O   LIG    1       21.931 -20.506   4.550  0.00  0.00    -0.480 OA
ATOM     27  H   LIG    1       21.593 -19.603   4.442  0.00  0.00    +0.295 HD
ENDBRANCH  24  26
ENDBRANCH  23  24
ENDBRANCH   7  23
BRANCH  10  28
ATOM     28  C   LIG    1       23.224 -13.690   3.175  0.00  0.00    +0.205 C 
BRANCH  28  29
ATOM     29  C   LIG    1       24.112 -12.464   3.348  0.00  0.00    +0.319 C 
ATOM     30  O   LIG    1       24.535 -11.786   2.420  0.00  0.00    -0.250 OA
BRANCH  29  31
ATOM     31  O   LIG    1       24.449 -12.228   4.642  0.00  0.00    -0.480 OA
ATOM     32  H   LIG    1       24.615 -13.095   5.076  0.00  0.00    +0.295 HD
ENDBRANCH  29  31
ENDBRANCH  28  29
ENDBRANCH  10  28
TORSDOF 12
ENDMDL
MODEL 5
REMARK VINA RESULT:       3.6      1.553      5.657
REMARK  Name = *****
REMARK                            x       y       z     vdW  Elec       q    Type
REMARK                         _______ _______ _______ _____ _____    ______ ____
ROOT
ATOM      1  N   LIG    1       26.979 -15.878   4.196  0.00  0.00    -0.297 NA
ATOM      2  C   LIG    1       25.937 -15.126   3.468  0.00  0.00    +0.100 C 
ATOM      3  C   LIG    1       24.655 -15.099   4.326  0.00  0.00    +0.100 C 
ATOM      4  N   LIG    1       23.418 -15.132   3.496  0.00  0.00    -0.290 NA
ATOM      5  C   LIG    1       22.553 -16.248   3.984  0.00  0.00    +0.100 C 
ATOM      6  C   LIG    1       23.054 -17.681   3.608  0.00  0.00    +0.100 C 
ATOM      7  N   LIG    1       23.802 -18.483   4.643  0.00  0.00    -0.290 NA
ATOM      8  C   LIG    1       24.334 -19.690   3.936  0.00  0.00    +0.100 C 
ATOM      9  C   LIG    1       25.612 -20.369   4.510  0.00  0.00    +0.100 C 
ATOM     10  N   LIG    1       26.918 -19.685   4.274  0.00  0.00    -0.290 NA
ATOM     11  C   LIG    1       27.011 -18.318   4.856  0.00  0.00    +0.100 C 
ATOM     12  C   LIG    1       26.970 -17.283   3.728  0.00  0.00    +0.100 C 
ENDROOT
BRANCH   1  13
ATOM     13  C   LIG    1       28.324 -15.275   4.068  0.00  0.00    +0.115 C 
BRANCH  13  15
ATOM     14  C   LIG    1       27.532 -13.179   5.285  0.00  0.00    +0.039 C 
ATOM     15  C   LIG    1       28.377 -13.721   4.137  0.00  0.00    +0.125 C 
BRANCH  15  16
ATOM     16  O   LIG    1       27.931 -13.135   2.914  0.00  0.00    -0.391 OA
ATOM     17  H   LIG    1       27.245 -13.708   2.535  0.00  0.00    +0.210 HD
ENDBRANCH  15  16
ENDBRANCH  13  15
ENDBRANCH   1  13
BRANCH   4  18
ATOM     18  C   LIG    1       22.668 -13.853   3.656  0.00  0.00    +0.205 C 
BRANCH  18  19
ATOM     19  C   LIG    1       23.557 -12.619   3.485  0.00  0.00    +0.319 C 
ATOM     20  O   LIG    1       23.892 -11.884   4.396  0.00  0.00    -0.250 OA
BRANCH  19  21
ATOM     21  O   LIG    1       23.925 -12.399   2.196  0.00  0.00    -0.480 OA
ATOM     22  H   LIG    1       23.776 -13.195   1.650  0.00  0.00    +0.295 HD
ENDBRANCH  19  21
ENDBRANCH  18  19
ENDBRANCH   4  18
BRANCH   7  23
ATOM     23  C   LIG    1       22.844 -18.881   5.735  0.00  0.00    +0.205 C 
BRANCH  23  24
ATOM     24  C   LIG    1       22.672 -20.389   5.921  0.00  0.00    +0.319 C 
ATOM     25  O   LIG    1       23.136 -21.025   6.825  0.00  0.00    -0.250 OA
BRANCH  24  26
ATOM     26  O   LIG    1       21.995 -20.977   4.893  0.00  0.00    -0.480 OA
ATOM     27  H   LIG    1       21.373 -21.593   5.310  0.00  0.00    +0.295 HD
ENDBRANCH  24  26
ENDBRANCH  23  24
ENDBRANCH   7  23
BRANCH  10  28
ATOM     28  C   LIG    1       28.050 -20.490   4.826  0.00  0.00    +0.205 C 
BRANCH  28  29
ATOM     29  C   LIG    1       28.241 -20.267   6.321  0.00  0.00    +0.319 C 
ATOM     30  O   LIG    1       29.265 -19.822   6.824  0.00  0.00    -0.250 OA
BRANCH  29  31
ATOM     31  O   LIG    1       27.178 -20.674   7.061  0.00  0.00    -0.480 OA
ATOM     32  H   LIG    1       27.501 -21.325   7.725  0.00  0.00    +0.295 HD
ENDBRANCH  29  31
ENDBRANCH  28  29
ENDBRANCH  10  28
TORSDOF 12
ENDMDL
MODEL 6
REMARK VINA RESULT:       4.0      1.568      1.806
REMARK  Name = *****
REMARK                            x       y       z     vdW  Elec       q    Type
REMARK                         _______ _______ _______ _____ _____    ______ ____
ROOT
ATOM      1  N   LIG    1       26.513 -18.248   4.277  0.00  0.00    -0.297 NA
ATOM      2  C   LIG    1       27.192 -17.169   3.530  0.00  0.00    +0.100 C 
ATOM      3  C   LIG    1       27.016 -15.845   4.302  0.00  0.00    +0.100 C 
ATOM      4  N   LIG    1       26.902 -14.671   3.393  0.00  0.00    -0.290 NA
ATOM      5  C   LIG    1       25.665 -13.915   3.755  0.00  0.00    +0.100 C 
ATOM      6  C   LIG    1       24.326 -14.598   3.325  0.00  0.00    +0.100 C 
ATOM      7  N   LIG    1       23.544 -15.374   4.355  0.00  0.00    -0.290 NA
ATOM      8  C   LIG    1       22.455 -16.082   3.612  0.00  0.00    +0.100 C 
ATOM      9  C   LIG    1       21.887 -17.395   4.225  0.00  0.00    +0.100 C 
ATOM     10  N   LIG    1       22.727 -18.625   4.118  0.00  0.00    -0.290 NA
ATOM     11  C   LIG    1       24.053 -18.524   4.787  0.00  0.00    +0.100 C 
ATOM     12  C   LIG    1       25.151 -18.429   3.724  0.00  0.00    +0.100 C 
ENDROOT
BRANCH   1  13
ATOM     13  C   LIG    1       27.270 -19.519   4.274  0.00  0.00    +0.115 C 
BRANCH  13  15
ATOM     14  C   LIG    1       27.275 -20.262   6.713  0.00  0.00    +0.039 C 
ATOM     15  C   LIG    1       28.132 -19.795   5.541  0.00  0.00    +0.125 C 
BRANCH  15  16
ATOM     16  O   LIG    1       28.861 -18.631   5.932  0.00  0.00    -0.391 OA
ATOM     17  H   LIG    1       28.396 -17.851   5.589  0.00  0.00    +0.210 HD
ENDBRANCH  15  16
ENDBRANCH  13  15
ENDBRANCH   1  13
BRANCH   4  18
ATOM     18  C   LIG    1       28.075 -13.769   3.582  0.00  0.00    +0.205 C 
BRANCH  18  19
ATOM     19  C   LIG    1       28.046 -13.031   4.922  0.00  0.00    +0.319 C 
ATOM     20  O   LIG    1       27.259 -13.271   5.819  0.00  0.00    -0.250 OA
BRANCH  19  21
ATOM     21  O   LIG    1       28.977 -12.047   5.011  0.00  0.00    -0.480 OA
ATOM     22  H   LIG    1       29.851 -12.415   5.251  0.00  0.00    +0.295 HD
ENDBRANCH  19  21
ENDBRANCH  18  19
ENDBRANCH   4  18
BRANCH   7  23
ATOM     23  C   LIG    1       22.967 -14.408   5.357  0.00  0.00    +0.205 C 
BRANCH  23  24
ATOM     24  C   LIG    1       21.982 -15.023   6.350  0.00  0.00    +0.319 C 
ATOM     25  O   LIG    1       21.127 -14.416   6.932  0.00  0.00    -0.250 OA
BRANCH  24  26
ATOM     26  O   LIG    1       22.223 -16.344   6.588  0.00  0.00    -0.480 OA
ATOM     27  H   LIG    1       21.735 -16.826   5.902  0.00  0.00    +0.295 HD
ENDBRANCH  24  26
ENDBRANCH  23  24
ENDBRANCH   7  23
BRANCH  10  28
ATOM     28  C   LIG    1       22.018 -19.809   4.692  0.00  0.00    +0.205 C 
BRANCH  28  29
ATOM     29  C   LIG    1       22.973 -20.952   5.012  0.00  0.00    +0.319 C 
ATOM     30  O   LIG    1       23.276 -21.298   6.147  0.00  0.00    -0.250 OA
BRANCH  29  31
ATOM     31  O   LIG    1       23.516 -21.519   3.904  0.00  0.00    -0.480 OA
ATOM     32  H   LIG    1       24.492 -21.401   3.949  0.00  0.00    +0.295 HD
ENDBRANCH  29  31
ENDBRANCH  28  29
ENDBRANCH  10  28
TORSDOF 12
ENDMDL
MODEL 7
REMARK VINA RESULT:       4.1      1.573      5.520
REMARK  Name = *****
REMARK                            x       y       z     vdW  Elec       q    Type
REMARK                         _______ _______ _______ _____ _____    ______ ____
ROOT
ATOM      1  N   LIG    1       24.585 -18.178   4.088  0.00  0.00    -0.297 NA
ATOM      2  C   LIG    1       25.769 -19.053   3.959  0.00  0.00    +0.100 C 
ATOM      3  C   LIG    1       26.767 -18.704   5.083  0.00  0.00    +0.100 C 
ATOM      4  N   LIG    1       28.183 -18.860   4.648  0.00  0.00    -0.290 NA
ATOM      5  C   LIG    1       28.909 -17.587   4.942  0.00  0.00    +0.100 C 
ATOM      6  C   LIG    1       28.564 -16.398   3.987  0.00  0.00    +0.100 C 
ATOM      7  N   LIG    1       27.581 -15.354   4.454  0.00  0.00    -0.290 NA
ATOM      8  C   LIG    1       27.291 -14.489   3.267  0.00  0.00    +0.100 C 
ATOM      9  C   LIG    1       25.921 -13.751   3.219  0.00  0.00    +0.100 C 
ATOM     10  N   LIG    1       24.713 -14.564   2.891  0.00  0.00    -0.290 NA
ATOM     11  C   LIG    1       24.433 -15.666   3.853  0.00  0.00    +0.100 C 
ATOM     12  C   LIG    1       24.756 -17.009   3.193  0.00  0.00    +0.100 C 
ENDROOT
BRANCH   1  13
ATOM     13  C   LIG    1       23.312 -18.882   3.819  0.00  0.00    +0.115 C 
BRANCH  13  15
ATOM     14  C   LIG    1       22.914 -19.919   6.114  0.00  0.00    +0.039 C 
ATOM     15  C   LIG    1       23.084 -20.195   4.624  0.00  0.00    +0.125 C 
BRANCH  15  16
ATOM     16  O   LIG    1       24.167 -21.107   4.440  0.00  0.00    -0.391 OA
ATOM     17  H   LIG    1       24.157 -21.410   3.518  0.00  0.00    +0.210 HD
ENDBRANCH  15  16
ENDBRANCH  13  15
ENDBRANCH   1  13
BRANCH   4  18
ATOM     18  C   LIG    1       28.831 -19.959   5.422  0.00  0.00    +0.205 C 
BRANCH  18  19
ATOM     19  C   LIG    1       27.968 -20.453   6.586  0.00  0.00    +0.319 C 
ATOM     20  O   LIG    1       28.036 -21.571   7.062  0.00  0.00    -0.250 OA
BRANCH  19  21
ATOM     21  O   LIG    1       27.086 -19.522   7.031  0.00  0.00    -0.480 OA
ATOM     22  H   LIG    1       26.202 -19.915   7.166  0.00  0.00    +0.295 HD
ENDBRANCH  19  21
ENDBRANCH  18  19
ENDBRANCH   4  18
BRANCH   7  23
ATOM     23  C   LIG    1       28.214 -14.551   5.560  0.00  0.00    +0.205 C 
BRANCH  23  24
ATOM     24  C   LIG    1       27.773 -13.089   5.626  0.00  0.00    +0.319 C 
ATOM     25  O   LIG    1       28.496 -12.147   5.465  0.00  0.00    -0.250 OA
BRANCH  24  26
ATOM     26  O   LIG    1       26.463 -12.945   5.979  0.00  0.00    -0.480 OA
ATOM     27  H   LIG    1       26.308 -11.988   6.020  0.00  0.00    +0.295 HD
ENDBRANCH  24  26
ENDBRANCH  23  24
ENDBRANCH   7  23
BRANCH  10  28
ATOM     28  C   LIG    1       23.493 -13.704   2.819  0.00  0.00    +0.205 C 
BRANCH  28  29
ATOM     29  C   LIG    1       23.824 -12.222   2.936  0.00  0.00    +0.319 C 
ATOM     30  O   LIG    1       24.372 -11.569   2.057  0.00  0.00    -0.250 OA
BRANCH  29  31
ATOM     31  O   LIG    1       23.511 -11.699   4.149  0.00  0.00    -0.480 OA
ATOM     32  H   LIG    1       24.272 -11.854   4.753  0.00  0.00    +0.295 HD
ENDBRANCH  29  31
ENDBRANCH  28  29
ENDBRANCH  10  28
TORSDOF 12
ENDMDL
