MODEL 1
REMARK VINA RESULT:      12.2      0.000      0.000
REMARK  Name = *****
REMARK                            x       y       z     vdW  Elec       q    Type
REMARK                         _______ _______ _______ _____ _____    ______ ____
ROOT
ATOM      1  C   LIG    1       24.003 -19.265   3.925  0.00  0.00    +0.095 C 
ATOM      2  C   LIG    1       24.409 -18.061   4.821  0.00  0.00    +0.038 C 
ATOM      3  C   LIG    1       25.915 -17.779   4.761  0.00  0.00    +0.086 C 
ATOM      4  N   LIG    1       26.400 -17.545   3.397  0.00  0.00    -0.302 NA
ATOM      5  C   LIG    1       26.137 -18.744   2.582  0.00  0.00    +0.086 C 
ATOM      6  C   LIG    1       24.649 -19.096   2.517  0.00  0.00    +0.038 C 
ENDROOT
BRANCH   1   7
ATOM      7  C   LIG    1       22.454 -19.365   3.833  0.00  0.00    -0.030 A 
ATOM      8  C   LIG    1       21.694 -18.364   3.195  0.00  0.00    +0.005 A 
ATOM      9  C   LIG    1       20.300 -18.420   3.138  0.00  0.00    +0.000 A 
ATOM     10  C   LIG    1       19.622 -19.491   3.706  0.00  0.00    +0.000 A 
ATOM     11  C   LIG    1       20.344 -20.507   4.321  0.00  0.00    +0.000 A 
ATOM     12  C   LIG    1       21.741 -20.450   4.375  0.00  0.00    +0.005 A 
ENDBRANCH   1   7
BRANCH   1  13
ATOM     13  C   LIG    1       24.559 -20.583   4.527  0.00  0.00    +0.318 C 
ATOM     14  O   LIG    1       25.017 -21.511   3.871  0.00  0.00    -0.250 OA
BRANCH  13  15
ATOM     15  O   LIG    1       24.327 -20.635   5.873  0.00  0.00    -0.464 OA
BRANCH  15  17
ATOM     16  C   LIG    1       26.533 -20.432   6.866  0.00  0.00    +0.048 C 
ATOM     17  C   LIG    1       25.309 -21.297   6.677  0.00  0.00    +0.229 C 
ENDBRANCH  15  17
ENDBRANCH  13  15
ENDBRANCH   1  13
BRANCH   4  18
ATOM     18  C   LIG    1       25.854 -16.316   2.774  0.00  0.00    +0.086 C 
BRANCH  18  19
ATOM     19  C   LIG    1       24.579 -15.825   3.483  0.00  0.00    +0.046 C 
BRANCH  19  20
ATOM     20  C   LIG    1       24.576 -14.327   3.949  0.00  0.00    +0.108 C 
BRANCH  20  21
ATOM     21  C   LIG    1       25.999 -13.937   4.473  0.00  0.00    -0.023 A 
ATOM     22  C   LIG    1       26.367 -14.108   5.821  0.00  0.00    +0.005 A 
ATOM     23  C   LIG    1       27.629 -13.706   6.286  0.00  0.00    +0.000 A 
ATOM     24  C   LIG    1       28.542 -13.101   5.427  0.00  0.00    +0.000 A 
ATOM     25  C   LIG    1       28.195 -12.889   4.103  0.00  0.00    +0.000 A 
ATOM     26  C   LIG    1       26.942 -13.295   3.636  0.00  0.00    +0.005 A 
ENDBRANCH  20  21
BRANCH  20  27
ATOM     27  C   LIG    1       23.457 -14.146   5.032  0.00  0.00    -0.023 A 
ATOM     28  C   LIG    1       22.779 -15.249   5.596  0.00  0.00    +0.005 A 
ATOM     29  C   LIG    1       21.780 -15.084   6.564  0.00  0.00    +0.000 A 
ATOM     30  C   LIG    1       21.419 -13.810   6.984  0.00  0.00    +0.000 A 
ATOM     31  C   LIG    1       22.072 -12.702   6.453  0.00  0.00    +0.000 A 
ATOM     32  C   LIG    1       23.085 -12.866   5.497  0.00  0.00    +0.005 A 
ENDBRANCH  20  27
BRANCH  20  33
ATOM     33  C   LIG    1       24.320 -13.494   2.732  0.00  0.00    +0.079 C 
ATOM     34  N   LIG    1       24.117 -12.816   1.820  0.00  0.00    -0.195 NA
ENDBRANCH  20  33
ENDBRANCH  19  20
ENDBRANCH  18  19
ENDBRANCH   4  18
TORSDOF 10
ENDMDL
MODEL 2
REMARK VINA RESULT:      12.5      1.035      1.675
REMARK  Name = *****
REMARK                            x       y       z     vdW  Elec       q    Type
REMARK                         _______ _______ _______ _____ _____    ______ ____
ROOT
ATOM      1  C   LIG    1       25.120 -19.078   4.171  0.00  0.00    +0.095 C 
ATOM      2  C   LIG    1       25.426 -17.730   4.882  0.00  0.00    +0.038 C 
ATOM      3  C   LIG    1       26.861 -17.255   4.625  0.00  0.00    +0.086 C 
ATOM      4  N   LIG    1       27.175 -17.125   3.198  0.00  0.00    -0.302 NA
ATOM      5  C   LIG    1       27.016 -18.439   2.550  0.00  0.00    +0.086 C 
ATOM      6  C   LIG    1       25.596 -18.995   2.689  0.00  0.00    +0.038 C 
ENDROOT
BRANCH   1   7
ATOM      7  C   LIG    1       23.601 -19.399   4.264  0.00  0.00    -0.030 A 
ATOM      8  C   LIG    1       23.128 -20.468   5.051  0.00  0.00    +0.005 A 
ATOM      9  C   LIG    1       21.771 -20.795   5.114  0.00  0.00    +0.000 A 
ATOM     10  C   LIG    1       20.843 -20.049   4.401  0.00  0.00    +0.000 A 
ATOM     11  C   LIG    1       21.274 -18.972   3.635  0.00  0.00    +0.000 A 
ATOM     12  C   LIG    1       22.633 -18.646   3.575  0.00  0.00    +0.005 A 
ENDBRANCH   1   7
BRANCH   1  13
ATOM     13  C   LIG    1       25.919 -20.225   4.844  0.00  0.00    +0.318 C 
ATOM     14  O   LIG    1       25.723 -21.419   4.653  0.00  0.00    -0.250 OA
BRANCH  13  15
ATOM     15  O   LIG    1       26.767 -19.729   5.795  0.00  0.00    -0.464 OA
BRANCH  15  17
ATOM     16  C   LIG    1       29.064 -19.343   6.482  0.00  0.00    +0.048 C 
ATOM     17  C   LIG    1       28.076 -20.305   5.864  0.00  0.00    +0.229 C 
ENDBRANCH  15  17
ENDBRANCH  13  15
ENDBRANCH   1  13
BRANCH   4  18
ATOM     18  C   LIG    1       26.395 -16.067   2.512  0.00  0.00    +0.086 C 
BRANCH  18  19
ATOM     19  C   LIG    1       25.004 -15.872   3.141  0.00  0.00    +0.046 C 
BRANCH  19  20
ATOM     20  C   LIG    1       24.722 -14.468   3.782  0.00  0.00    +0.108 C 
BRANCH  20  21
ATOM     21  C   LIG    1       26.037 -13.909   4.423  0.00  0.00    -0.023 A 
ATOM     22  C   LIG    1       26.169 -13.728   5.812  0.00  0.00    +0.005 A 
ATOM     23  C   LIG    1       27.335 -13.178   6.366  0.00  0.00    +0.000 A 
ATOM     24  C   LIG    1       28.386 -12.772   5.549  0.00  0.00    +0.000 A 
ATOM     25  C   LIG    1       28.271 -12.906   4.175  0.00  0.00    +0.000 A 
ATOM     26  C   LIG    1       27.114 -13.460   3.621  0.00  0.00    +0.005 A 
ENDBRANCH  20  21
BRANCH  20  27
ATOM     27  C   LIG    1       23.557 -14.622   4.821  0.00  0.00    -0.023 A 
ATOM     28  C   LIG    1       23.213 -13.584   5.714  0.00  0.00    +0.005 A 
ATOM     29  C   LIG    1       22.171 -13.724   6.640  0.00  0.00    +0.000 A 
ATOM     30  C   LIG    1       21.454 -14.912   6.710  0.00  0.00    +0.000 A 
ATOM     31  C   LIG    1       21.764 -15.952   5.840  0.00  0.00    +0.000 A 
ATOM     32  C   LIG    1       22.794 -15.808   4.899  0.00  0.00    +0.005 A 
ENDBRANCH  20  27
BRANCH  20  33
ATOM     33  C   LIG    1       24.359 -13.544   2.663  0.00  0.00    +0.079 C 
ATOM     34  N   LIG    1       24.066 -12.801   1.829  0.00  0.00    -0.195 NA
ENDBRANCH  20  33
ENDBRANCH  19  20
ENDBRANCH  18  19
ENDBRANCH   4  18
TORSDOF 10
ENDMDL
MODEL 3
REMARK VINA RESULT:      14.3      2.749      6.581
REMARK  Name = *****
REMARK                            x       y       z     vdW  Elec       q    Type
REMARK                         _______ _______ _______ _____ _____    ______ ____
ROOT
ATOM      1  C   LIG    1       26.736 -15.342   3.794  0.00  0.00    +0.095 C 
ATOM      2  C   LIG    1       25.999 -14.629   4.963  0.00  0.00    +0.038 C 
ATOM      3  C   LIG    1       25.064 -13.520   4.464  0.00  0.00    +0.086 C 
ATOM      4  N   LIG    1       24.073 -13.999   3.495  0.00  0.00    -0.302 NA
ATOM      5  C   LIG    1       24.775 -14.551   2.323  0.00  0.00    +0.086 C 
ATOM      6  C   LIG    1       25.702 -15.714   2.688  0.00  0.00    +0.038 C 
ENDROOT
BRANCH   1   7
ATOM      7  C   LIG    1       27.484 -16.599   4.321  0.00  0.00    -0.030 A 
ATOM      8  C   LIG    1       27.042 -17.899   3.999  0.00  0.00    +0.005 A 
ATOM      9  C   LIG    1       27.680 -19.038   4.496  0.00  0.00    +0.000 A 
ATOM     10  C   LIG    1       28.791 -18.911   5.319  0.00  0.00    +0.000 A 
ATOM     11  C   LIG    1       29.266 -17.644   5.634  0.00  0.00    +0.000 A 
ATOM     12  C   LIG    1       28.628 -16.504   5.134  0.00  0.00    +0.005 A 
ENDBRANCH   1   7
BRANCH   1  13
ATOM     13  C   LIG    1       27.765 -14.376   3.150  0.00  0.00    +0.318 C 
ATOM     14  O   LIG    1       27.820 -14.108   1.956  0.00  0.00    -0.250 OA
BRANCH  13  15
ATOM     15  O   LIG    1       28.699 -13.983   4.068  0.00  0.00    -0.464 OA
BRANCH  15  17
ATOM     16  C   LIG    1       29.465 -11.774   3.413  0.00  0.00    +0.048 C 
ATOM     17  C   LIG    1       28.713 -12.599   4.432  0.00  0.00    +0.229 C 
ENDBRANCH  15  17
ENDBRANCH  13  15
ENDBRANCH   1  13
BRANCH   4  18
ATOM     18  C   LIG    1       23.099 -14.959   4.066  0.00  0.00    +0.086 C 
BRANCH  18  19
ATOM     19  C   LIG    1       23.642 -16.399   4.075  0.00  0.00    +0.046 C 
BRANCH  19  20
ATOM     20  C   LIG    1       22.706 -17.490   4.702  0.00  0.00    +0.108 C 
BRANCH  20  21
ATOM     21  C   LIG    1       23.533 -18.786   4.998  0.00  0.00    -0.023 A 
ATOM     22  C   LIG    1       24.341 -19.392   4.017  0.00  0.00    +0.005 A 
ATOM     23  C   LIG    1       25.037 -20.582   4.282  0.00  0.00    +0.000 A 
ATOM     24  C   LIG    1       24.923 -21.210   5.520  0.00  0.00    +0.000 A 
ATOM     25  C   LIG    1       24.108 -20.655   6.493  0.00  0.00    +0.000 A 
ATOM     26  C   LIG    1       23.421 -19.466   6.234  0.00  0.00    +0.005 A 
ENDBRANCH  20  21
BRANCH  20  27
ATOM     27  C   LIG    1       21.509 -17.742   3.720  0.00  0.00    -0.023 A 
ATOM     28  C   LIG    1       20.697 -18.894   3.814  0.00  0.00    +0.005 A 
ATOM     29  C   LIG    1       19.629 -19.116   2.936  0.00  0.00    +0.000 A 
ATOM     30  C   LIG    1       19.352 -18.200   1.928  0.00  0.00    +0.000 A 
ATOM     31  C   LIG    1       20.129 -17.053   1.812  0.00  0.00    +0.000 A 
ATOM     32  C   LIG    1       21.188 -16.819   2.701  0.00  0.00    +0.005 A 
ENDBRANCH  20  27
BRANCH  20  33
ATOM     33  C   LIG    1       22.246 -16.960   6.024  0.00  0.00    +0.079 C 
ATOM     34  N   LIG    1       21.889 -16.510   7.026  0.00  0.00    -0.195 NA
ENDBRANCH  20  33
ENDBRANCH  19  20
ENDBRANCH  18  19
ENDBRANCH   4  18
TORSDOF 10
ENDMDL
