MODEL 1
REMARK VINA RESULT:      -6.7      0.000      0.000
REMARK  Name = *****
REMARK                            x       y       z     vdW  Elec       q    Type
REMARK                         _______ _______ _______ _____ _____    ______ ____
ROOT
ATOM      1  C   LIG    1       31.507 -18.010   8.680  0.00  0.00    -0.043 A 
ATOM      2  C   LIG    1       31.557 -19.331   9.141  0.00  0.00    +0.021 A 
ATOM      3  C   LIG    1       30.769 -20.332   8.546  0.00  0.00    +0.057 A 
ATOM      4  I   LIG    1       31.140 -22.303   9.157  0.00  0.00    -0.040 I 
ATOM      5  C   LIG    1       29.871 -20.022   7.511  0.00  0.00    +0.154 A 
ATOM      6  C   LIG    1       29.865 -18.700   7.023  0.00  0.00    +0.057 A 
ATOM      7  I   LIG    1       28.911 -18.113   5.242  0.00  0.00    -0.040 I 
ATOM      8  C   LIG    1       30.615 -17.695   7.653  0.00  0.00    +0.021 A 
ENDROOT
BRANCH   1   9
ATOM      9  C   LIG    1       32.525 -16.980   9.122  0.00  0.00    +0.065 C 
BRANCH   9  10
ATOM     10  CA  LIG    1       32.004 -16.024  10.220  0.00  0.00    +0.165 C 
BRANCH  10  11
ATOM     11  N   LIG    1       33.017 -15.061  10.754  0.00  0.00    -0.318 NA
ATOM     12  H1  LIG    1       32.512 -14.260  11.154  0.00  0.00    +0.119 HD
ATOM     13  H2  LIG    1       33.490 -15.488  11.554  0.00  0.00    +0.119 HD
ENDBRANCH  10  11
BRANCH  10  14
ATOM     14  C   LIG    1       31.368 -16.759  11.426  0.00  0.00    +0.322 C 
ATOM     15  O   LIG    1       31.951 -17.274  12.344  0.00  0.00    -0.249 OA
BRANCH  14  16
ATOM     16  OXT LIG    1       30.011 -16.808  11.275  0.00  0.00    -0.479 OA
ATOM     17  HXT LIG    1       29.709 -17.641  11.714  0.00  0.00    +0.295 HD
ENDBRANCH  14  16
ENDBRANCH  10  14
ENDBRANCH   9  10
ENDBRANCH   1   9
BRANCH   5  18
ATOM     18  O   LIG    1       29.060 -21.022   6.992  0.00  0.00    -0.454 OA
BRANCH  18  19
ATOM     19  C   LIG    1       27.681 -20.893   7.134  0.00  0.00    +0.130 A 
ATOM     20  C   LIG    1       26.810 -20.744   6.052  0.00  0.00    +0.064 A 
ATOM     21  C   LIG    1       25.425 -20.760   6.230  0.00  0.00    +0.058 A 
ATOM     22  I   LIG    1       24.238 -20.660   4.514  0.00  0.00    -0.040 I 
ATOM     23  C   LIG    1       24.890 -20.844   7.512  0.00  0.00    +0.130 A 
ATOM     24  C   LIG    1       25.744 -20.884   8.615  0.00  0.00    +0.050 A 
ATOM     25  C   LIG    1       27.138 -20.931   8.427  0.00  0.00    +0.050 A 
BRANCH  23  26
ATOM     26  O   LIG    1       23.535 -20.874   7.685  0.00  0.00    -0.506 OA
ATOM     27  H   LIG    1       23.233 -21.795   7.732  0.00  0.00    +0.292 HD
ENDBRANCH  23  26
ENDBRANCH  18  19
ENDBRANCH   5  18
TORSDOF 8
ENDMDL
MODEL 2
REMARK VINA RESULT:      -6.2      3.126      4.905
REMARK  Name = *****
REMARK                            x       y       z     vdW  Elec       q    Type
REMARK                         _______ _______ _______ _____ _____    ______ ____
ROOT
ATOM      1  C   LIG    1       28.574 -19.810   6.283  0.00  0.00    -0.043 A 
ATOM      2  C   LIG    1       27.835 -19.515   5.132  0.00  0.00    +0.021 A 
ATOM      3  C   LIG    1       26.489 -19.906   5.020  0.00  0.00    +0.057 A 
ATOM      4  I   LIG    1       25.434 -19.168   3.365  0.00  0.00    -0.040 I 
ATOM      5  C   LIG    1       25.868 -20.651   6.037  0.00  0.00    +0.154 A 
ATOM      6  C   LIG    1       26.606 -20.900   7.210  0.00  0.00    +0.057 A 
ATOM      7  I   LIG    1       25.761 -21.633   8.993  0.00  0.00    -0.040 I 
ATOM      8  C   LIG    1       27.963 -20.552   7.296  0.00  0.00    +0.021 A 
ENDROOT
BRANCH   1   9
ATOM      9  C   LIG    1       29.928 -19.180   6.537  0.00  0.00    +0.065 C 
BRANCH   9  10
ATOM     10  CA  LIG    1       30.211 -18.899   8.031  0.00  0.00    +0.165 C 
BRANCH  10  11
ATOM     11  N   LIG    1       30.485 -17.466   8.365  0.00  0.00    -0.318 NA
ATOM     12  H1  LIG    1       30.892 -17.020   7.533  0.00  0.00    +0.119 HD
ATOM     13  H2  LIG    1       29.595 -16.983   8.503  0.00  0.00    +0.119 HD
ENDBRANCH  10  11
BRANCH  10  14
ATOM     14  C   LIG    1       31.367 -19.750   8.611  0.00  0.00    +0.322 C 
ATOM     15  O   LIG    1       32.182 -19.398   9.423  0.00  0.00    -0.249 OA
BRANCH  14  16
ATOM     16  OXT LIG    1       31.387 -20.977   8.009  0.00  0.00    -0.479 OA
ATOM     17  HXT LIG    1       31.862 -21.586   8.626  0.00  0.00    +0.295 HD
ENDBRANCH  14  16
ENDBRANCH  10  14
ENDBRANCH   9  10
ENDBRANCH   1   9
BRANCH   5  18
ATOM     18  O   LIG    1       24.558 -21.078   5.863  0.00  0.00    -0.454 OA
BRANCH  18  19
ATOM     19  C   LIG    1       24.291 -22.440   5.958  0.00  0.00    +0.130 A 
ATOM     20  C   LIG    1       25.204 -23.429   5.586  0.00  0.00    +0.064 A 
ATOM     21  C   LIG    1       24.950 -24.780   5.831  0.00  0.00    +0.058 A 
ATOM     22  I   LIG    1       26.456 -26.142   5.342  0.00  0.00    -0.040 I 
ATOM     23  C   LIG    1       23.733 -25.169   6.383  0.00  0.00    +0.130 A 
ATOM     24  C   LIG    1       22.763 -24.206   6.663  0.00  0.00    +0.050 A 
ATOM     25  C   LIG    1       23.048 -22.841   6.473  0.00  0.00    +0.050 A 
BRANCH  23  26
ATOM     26  O   LIG    1       23.491 -26.489   6.636  0.00  0.00    -0.506 OA
ATOM     27  H   LIG    1       24.269 -27.015   6.395  0.00  0.00    +0.292 HD
ENDBRANCH  23  26
ENDBRANCH  18  19
ENDBRANCH   5  18
TORSDOF 8
ENDMDL
MODEL 3
REMARK VINA RESULT:      -6.2      9.248     11.598
REMARK  Name = *****
REMARK                            x       y       z     vdW  Elec       q    Type
REMARK                         _______ _______ _______ _____ _____    ______ ____
ROOT
ATOM      1  C   LIG    1       25.654 -27.583   6.829  0.00  0.00    -0.043 A 
ATOM      2  C   LIG    1       26.126 -27.599   8.146  0.00  0.00    +0.021 A 
ATOM      3  C   LIG    1       25.947 -28.730   8.963  0.00  0.00    +0.057 A 
ATOM      4  I   LIG    1       26.934 -28.716  10.813  0.00  0.00    -0.040 I 
ATOM      5  C   LIG    1       25.241 -29.851   8.495  0.00  0.00    +0.154 A 
ATOM      6  C   LIG    1       24.813 -29.843   7.153  0.00  0.00    +0.057 A 
ATOM      7  I   LIG    1       24.104 -31.545   6.139  0.00  0.00    -0.040 I 
ATOM      8  C   LIG    1       24.949 -28.694   6.360  0.00  0.00    +0.021 A 
ENDROOT
BRANCH   1   9
ATOM      9  C   LIG    1       26.059 -26.495   5.857  0.00  0.00    +0.065 C 
BRANCH   9  10
ATOM     10  CA  LIG    1       24.886 -25.588   5.416  0.00  0.00    +0.165 C 
BRANCH  10  11
ATOM     11  N   LIG    1       25.113 -24.833   4.144  0.00  0.00    -0.318 NA
ATOM     12  H1  LIG    1       24.626 -23.931   4.221  0.00  0.00    +0.119 HD
ATOM     13  H2  LIG    1       26.102 -24.583   4.081  0.00  0.00    +0.119 HD
ENDBRANCH  10  11
BRANCH  10  14
ATOM     14  C   LIG    1       24.452 -24.571   6.500  0.00  0.00    +0.322 C 
ATOM     15  O   LIG    1       25.176 -23.928   7.214  0.00  0.00    -0.249 OA
BRANCH  14  16
ATOM     16  OXT LIG    1       23.088 -24.547   6.593  0.00  0.00    -0.479 OA
ATOM     17  HXT LIG    1       22.749 -25.183   5.916  0.00  0.00    +0.295 HD
ENDBRANCH  14  16
ENDBRANCH  10  14
ENDBRANCH   9  10
ENDBRANCH   1   9
BRANCH   5  18
ATOM     18  O   LIG    1       25.024 -30.923   9.351  0.00  0.00    -0.454 OA
BRANCH  18  19
ATOM     19  C   LIG    1       23.797 -31.010  10.002  0.00  0.00    +0.130 A 
ATOM     20  C   LIG    1       23.380 -30.101  10.976  0.00  0.00    +0.064 A 
ATOM     21  C   LIG    1       22.086 -30.142  11.499  0.00  0.00    +0.058 A 
ATOM     22  I   LIG    1       21.552 -28.645  12.854  0.00  0.00    -0.040 I 
ATOM     23  C   LIG    1       21.212 -31.153  11.111  0.00  0.00    +0.130 A 
ATOM     24  C   LIG    1       21.644 -32.135  10.219  0.00  0.00    +0.050 A 
ATOM     25  C   LIG    1       22.927 -32.053   9.647  0.00  0.00    +0.050 A 
BRANCH  23  26
ATOM     26  O   LIG    1       19.941 -31.185  11.612  0.00  0.00    -0.506 OA
ATOM     27  H   LIG    1       19.863 -30.551  12.342  0.00  0.00    +0.292 HD
ENDBRANCH  23  26
ENDBRANCH  18  19
ENDBRANCH   5  18
TORSDOF 8
ENDMDL
MODEL 4
REMARK VINA RESULT:      -6.2     12.207     13.723
REMARK  Name = *****
REMARK                            x       y       z     vdW  Elec       q    Type
REMARK                         _______ _______ _______ _____ _____    ______ ____
ROOT
ATOM      1  C   LIG    1       24.215 -30.009   9.905  0.00  0.00    -0.043 A 
ATOM      2  C   LIG    1       24.747 -29.548  11.115  0.00  0.00    +0.021 A 
ATOM      3  C   LIG    1       23.968 -29.532  12.286  0.00  0.00    +0.057 A 
ATOM      4  I   LIG    1       24.968 -29.072  14.070  0.00  0.00    -0.040 I 
ATOM      5  C   LIG    1       22.619 -29.925  12.259  0.00  0.00    +0.154 A 
ATOM      6  C   LIG    1       22.109 -30.432  11.047  0.00  0.00    +0.057 A 
ATOM      7  I   LIG    1       20.267 -31.437  10.881  0.00  0.00    -0.040 I 
ATOM      8  C   LIG    1       22.874 -30.398   9.872  0.00  0.00    +0.021 A 
ENDROOT
BRANCH   1   9
ATOM      9  C   LIG    1       25.098 -30.281   8.706  0.00  0.00    +0.065 C 
BRANCH   9  10
ATOM     10  CA  LIG    1       24.309 -30.585   7.411  0.00  0.00    +0.165 C 
BRANCH  10  11
ATOM     11  N   LIG    1       24.799 -31.765   6.633  0.00  0.00    -0.318 NA
ATOM     12  H1  LIG    1       24.743 -31.531   5.634  0.00  0.00    +0.119 HD
ATOM     13  H2  LIG    1       25.799 -31.885   6.810  0.00  0.00    +0.119 HD
ENDBRANCH  10  11
BRANCH  10  14
ATOM     14  C   LIG    1       24.227 -29.380   6.441  0.00  0.00    +0.322 C 
ATOM     15  O   LIG    1       24.873 -28.366   6.498  0.00  0.00    -0.249 OA
BRANCH  14  16
ATOM     16  OXT LIG    1       23.243 -29.594   5.518  0.00  0.00    -0.479 OA
ATOM     17  HXT LIG    1       22.702 -28.767   5.488  0.00  0.00    +0.295 HD
ENDBRANCH  14  16
ENDBRANCH  10  14
ENDBRANCH   9  10
ENDBRANCH   1   9
BRANCH   5  18
ATOM     18  O   LIG    1       21.861 -29.832  13.418  0.00  0.00    -0.454 OA
BRANCH  18  19
ATOM     19  C   LIG    1       20.911 -28.820  13.505  0.00  0.00    +0.130 A 
ATOM     20  C   LIG    1       19.667 -28.986  14.118  0.00  0.00    +0.064 A 
ATOM     21  C   LIG    1       18.803 -27.906  14.308  0.00  0.00    +0.058 A 
ATOM     22  I   LIG    1       17.032 -28.268  15.355  0.00  0.00    -0.040 I 
ATOM     23  C   LIG    1       19.139 -26.651  13.810  0.00  0.00    +0.130 A 
ATOM     24  C   LIG    1       20.328 -26.486  13.099  0.00  0.00    +0.050 A 
ATOM     25  C   LIG    1       21.225 -27.563  12.965  0.00  0.00    +0.050 A 
BRANCH  23  26
ATOM     26  O   LIG    1       18.300 -25.591  14.009  0.00  0.00    -0.506 OA
ATOM     27  H   LIG    1       18.205 -25.425  14.960  0.00  0.00    +0.292 HD
ENDBRANCH  23  26
ENDBRANCH  18  19
ENDBRANCH   5  18
TORSDOF 8
ENDMDL
MODEL 5
REMARK VINA RESULT:      -6.1     11.649     13.364
REMARK  Name = *****
REMARK                            x       y       z     vdW  Elec       q    Type
REMARK                         _______ _______ _______ _____ _____    ______ ____
ROOT
ATOM      1  C   LIG    1       24.720 -29.670   9.979  0.00  0.00    -0.043 A 
ATOM      2  C   LIG    1       23.455 -30.270   9.958  0.00  0.00    +0.021 A 
ATOM      3  C   LIG    1       22.619 -30.228  11.087  0.00  0.00    +0.057 A 
ATOM      4  I   LIG    1       20.660 -30.929  10.828  0.00  0.00    -0.040 I 
ATOM      5  C   LIG    1       23.052 -29.631  12.283  0.00  0.00    +0.154 A 
ATOM      6  C   LIG    1       24.306 -28.988  12.277  0.00  0.00    +0.057 A 
ATOM      7  I   LIG    1       24.971 -27.704  13.806  0.00  0.00    -0.040 I 
ATOM      8  C   LIG    1       25.157 -29.078  11.165  0.00  0.00    +0.021 A 
ENDROOT
BRANCH   1   9
ATOM      9  C   LIG    1       25.524 -29.475   8.711  0.00  0.00    +0.065 C 
BRANCH   9  10
ATOM     10  CA  LIG    1       24.878 -30.117   7.461  0.00  0.00    +0.165 C 
BRANCH  10  11
ATOM     11  N   LIG    1       25.793 -30.974   6.645  0.00  0.00    -0.318 NA
ATOM     12  H1  LIG    1       25.447 -30.973   5.677  0.00  0.00    +0.119 HD
ATOM     13  H2  LIG    1       26.707 -30.520   6.588  0.00  0.00    +0.119 HD
ENDBRANCH  10  11
BRANCH  10  14
ATOM     14  C   LIG    1       24.217 -29.089   6.510  0.00  0.00    +0.322 C 
ATOM     15  O   LIG    1       24.406 -27.900   6.494  0.00  0.00    -0.249 OA
BRANCH  14  16
ATOM     16  OXT LIG    1       23.308 -29.717   5.707  0.00  0.00    -0.479 OA
ATOM     17  HXT LIG    1       23.185 -29.139   4.915  0.00  0.00    +0.295 HD
ENDBRANCH  14  16
ENDBRANCH  10  14
ENDBRANCH   9  10
ENDBRANCH   1   9
BRANCH   5  18
ATOM     18  O   LIG    1       22.226 -29.667  13.399  0.00  0.00    -0.454 OA
BRANCH  18  19
ATOM     19  C   LIG    1       21.198 -28.733  13.488  0.00  0.00    +0.130 A 
ATOM     20  C   LIG    1       20.001 -28.971  14.168  0.00  0.00    +0.064 A 
ATOM     21  C   LIG    1       19.059 -27.959  14.353  0.00  0.00    +0.058 A 
ATOM     22  I   LIG    1       17.374 -28.416  15.500  0.00  0.00    -0.040 I 
ATOM     23  C   LIG    1       19.265 -26.705  13.785  0.00  0.00    +0.130 A 
ATOM     24  C   LIG    1       20.403 -26.477  13.011  0.00  0.00    +0.050 A 
ATOM     25  C   LIG    1       21.380 -27.481  12.879  0.00  0.00    +0.050 A 
BRANCH  23  26
ATOM     26  O   LIG    1       18.350 -25.710  13.979  0.00  0.00    -0.506 OA
ATOM     27  H   LIG    1       17.734 -25.966  14.684  0.00  0.00    +0.292 HD
ENDBRANCH  23  26
ENDBRANCH  18  19
ENDBRANCH   5  18
TORSDOF 8
ENDMDL
MODEL 6
REMARK VINA RESULT:      -5.8     10.181     12.529
REMARK  Name = *****
REMARK                            x       y       z     vdW  Elec       q    Type
REMARK                         _______ _______ _______ _____ _____    ______ ____
ROOT
ATOM      1  C   LIG    1       25.400 -28.884   8.089  0.00  0.00    -0.043 A 
ATOM      2  C   LIG    1       26.272 -28.644   9.157  0.00  0.00    +0.021 A 
ATOM      3  C   LIG    1       26.168 -29.379  10.352  0.00  0.00    +0.057 A 
ATOM      4  I   LIG    1       27.699 -29.104  11.758  0.00  0.00    -0.040 I 
ATOM      5  C   LIG    1       25.151 -30.333  10.525  0.00  0.00    +0.154 A 
ATOM      6  C   LIG    1       24.309 -30.599   9.426  0.00  0.00    +0.057 A 
ATOM      7  I   LIG    1       22.999 -32.243   9.326  0.00  0.00    -0.040 I 
ATOM      8  C   LIG    1       24.385 -29.829   8.256  0.00  0.00    +0.021 A 
ENDROOT
BRANCH   1   9
ATOM      9  C   LIG    1       25.653 -28.300   6.715  0.00  0.00    +0.065 C 
BRANCH   9  10
ATOM     10  CA  LIG    1       24.391 -27.701   6.053  0.00  0.00    +0.165 C 
BRANCH  10  11
ATOM     11  N   LIG    1       23.746 -28.569   5.018  0.00  0.00    -0.318 NA
ATOM     12  H1  LIG    1       22.896 -28.973   5.429  0.00  0.00    +0.119 HD
ATOM     13  H2  LIG    1       23.404 -27.976   4.257  0.00  0.00    +0.119 HD
ENDBRANCH  10  11
BRANCH  10  14
ATOM     14  C   LIG    1       24.628 -26.307   5.422  0.00  0.00    +0.322 C 
ATOM     15  O   LIG    1       25.579 -25.966   4.769  0.00  0.00    -0.249 OA
BRANCH  14  16
ATOM     16  OXT LIG    1       23.614 -25.461   5.772  0.00  0.00    -0.479 OA
ATOM     17  HXT LIG    1       24.025 -24.574   5.916  0.00  0.00    +0.295 HD
ENDBRANCH  14  16
ENDBRANCH  10  14
ENDBRANCH   9  10
ENDBRANCH   1   9
BRANCH   5  18
ATOM     18  O   LIG    1       25.036 -30.991  11.742  0.00  0.00    -0.454 OA
BRANCH  18  19
ATOM     19  C   LIG    1       24.048 -30.571  12.627  0.00  0.00    +0.130 A 
ATOM     20  C   LIG    1       23.647 -29.239  12.755  0.00  0.00    +0.064 A 
ATOM     21  C   LIG    1       22.557 -28.883  13.550  0.00  0.00    +0.058 A 
ATOM     22  I   LIG    1       21.984 -26.874  13.548  0.00  0.00    -0.040 I 
ATOM     23  C   LIG    1       21.898 -29.853  14.300  0.00  0.00    +0.130 A 
ATOM     24  C   LIG    1       22.350 -31.172  14.272  0.00  0.00    +0.050 A 
ATOM     25  C   LIG    1       23.409 -31.537  13.420  0.00  0.00    +0.050 A 
BRANCH  23  26
ATOM     26  O   LIG    1       20.822 -29.507  15.067  0.00  0.00    -0.506 OA
ATOM     27  H   LIG    1       21.104 -29.385  15.988  0.00  0.00    +0.292 HD
ENDBRANCH  23  26
ENDBRANCH  18  19
ENDBRANCH   5  18
TORSDOF 8
ENDMDL
MODEL 7
REMARK VINA RESULT:      -5.8     11.626     12.897
REMARK  Name = *****
REMARK                            x       y       z     vdW  Elec       q    Type
REMARK                         _______ _______ _______ _____ _____    ______ ____
ROOT
ATOM      1  C   LIG    1       22.705 -27.830  12.959  0.00  0.00    -0.043 A 
ATOM      2  C   LIG    1       24.098 -27.708  12.899  0.00  0.00    +0.021 A 
ATOM      3  C   LIG    1       24.881 -28.684  12.256  0.00  0.00    +0.057 A 
ATOM      4  I   LIG    1       26.915 -28.240  12.009  0.00  0.00    -0.040 I 
ATOM      5  C   LIG    1       24.290 -29.834  11.707  0.00  0.00    +0.154 A 
ATOM      6  C   LIG    1       22.884 -29.923  11.731  0.00  0.00    +0.057 A 
ATOM      7  I   LIG    1       21.781 -31.337  10.630  0.00  0.00    -0.040 I 
ATOM      8  C   LIG    1       22.113 -28.973  12.417  0.00  0.00    +0.021 A 
ENDROOT
BRANCH   1   9
ATOM      9  C   LIG    1       21.829 -26.680  13.408  0.00  0.00    +0.065 C 
BRANCH   9  10
ATOM     10  CA  LIG    1       20.315 -26.968  13.284  0.00  0.00    +0.165 C 
BRANCH  10  11
ATOM     11  N   LIG    1       19.535 -25.942  12.523  0.00  0.00    -0.318 NA
ATOM     12  H1  LIG    1       19.544 -25.071  13.068  0.00  0.00    +0.119 HD
ATOM     13  H2  LIG    1       20.041 -25.712  11.666  0.00  0.00    +0.119 HD
ENDBRANCH  10  11
BRANCH  10  14
ATOM     14  C   LIG    1       19.614 -27.182  14.648  0.00  0.00    +0.322 C 
ATOM     15  O   LIG    1       19.476 -28.226  15.230  0.00  0.00    -0.249 OA
BRANCH  14  16
ATOM     16  OXT LIG    1       19.092 -25.999  15.091  0.00  0.00    -0.479 OA
ATOM     17  HXT LIG    1       18.519 -25.654  14.362  0.00  0.00    +0.295 HD
ENDBRANCH  14  16
ENDBRANCH  10  14
ENDBRANCH   9  10
ENDBRANCH   1   9
BRANCH   5  18
ATOM     18  O   LIG    1       25.099 -30.809  11.140  0.00  0.00    -0.454 OA
BRANCH  18  19
ATOM     19  C   LIG    1       25.227 -30.835   9.754  0.00  0.00    +0.130 A 
ATOM     20  C   LIG    1       24.955 -29.735   8.938  0.00  0.00    +0.064 A 
ATOM     21  C   LIG    1       25.233 -29.762   7.570  0.00  0.00    +0.058 A 
ATOM     22  I   LIG    1       24.900 -28.005   6.490  0.00  0.00    -0.040 I 
ATOM     23  C   LIG    1       25.714 -30.928   6.981  0.00  0.00    +0.130 A 
ATOM     24  C   LIG    1       25.890 -32.072   7.760  0.00  0.00    +0.050 A 
ATOM     25  C   LIG    1       25.669 -32.022   9.149  0.00  0.00    +0.050 A 
BRANCH  23  26
ATOM     26  O   LIG    1       25.999 -30.950   5.645  0.00  0.00    -0.506 OA
ATOM     27  H   LIG    1       26.355 -30.089   5.374  0.00  0.00    +0.292 HD
ENDBRANCH  23  26
ENDBRANCH  18  19
ENDBRANCH   5  18
TORSDOF 8
ENDMDL
MODEL 8
REMARK VINA RESULT:      -5.7     10.116     12.391
REMARK  Name = *****
REMARK                            x       y       z     vdW  Elec       q    Type
REMARK                         _______ _______ _______ _____ _____    ______ ____
ROOT
ATOM      1  C   LIG    1       24.824 -28.310   6.446  0.00  0.00    -0.043 A 
ATOM      2  C   LIG    1       24.416 -29.583   6.029  0.00  0.00    +0.021 A 
ATOM      3  C   LIG    1       24.668 -30.716   6.822  0.00  0.00    +0.057 A 
ATOM      4  I   LIG    1       23.772 -32.509   6.206  0.00  0.00    -0.040 I 
ATOM      5  C   LIG    1       25.384 -30.608   8.026  0.00  0.00    +0.154 A 
ATOM      6  C   LIG    1       25.746 -29.317   8.459  0.00  0.00    +0.057 A 
ATOM      7  I   LIG    1       26.455 -28.886  10.393  0.00  0.00    -0.040 I 
ATOM      8  C   LIG    1       25.537 -28.197   7.640  0.00  0.00    +0.021 A 
ENDROOT
BRANCH   1   9
ATOM      9  C   LIG    1       24.340 -27.057   5.747  0.00  0.00    +0.065 C 
BRANCH   9  10
ATOM     10  CA  LIG    1       25.478 -26.214   5.126  0.00  0.00    +0.165 C 
BRANCH  10  11
ATOM     11  N   LIG    1       26.839 -26.831   5.206  0.00  0.00    -0.318 NA
ATOM     12  H1  LIG    1       27.260 -26.554   6.102  0.00  0.00    +0.119 HD
ATOM     13  H2  LIG    1       26.738 -27.846   5.275  0.00  0.00    +0.119 HD
ENDBRANCH  10  11
BRANCH  10  14
ATOM     14  C   LIG    1       25.572 -24.781   5.708  0.00  0.00    +0.322 C 
ATOM     15  O   LIG    1       26.058 -24.464   6.762  0.00  0.00    -0.249 OA
BRANCH  14  16
ATOM     16  OXT LIG    1       24.949 -23.900   4.870  0.00  0.00    -0.479 OA
ATOM     17  HXT LIG    1       24.360 -24.436   4.285  0.00  0.00    +0.295 HD
ENDBRANCH  14  16
ENDBRANCH  10  14
ENDBRANCH   9  10
ENDBRANCH   1   9
BRANCH   5  18
ATOM     18  O   LIG    1       25.673 -31.757   8.751  0.00  0.00    -0.454 OA
BRANCH  18  19
ATOM     19  C   LIG    1       24.832 -32.101   9.805  0.00  0.00    +0.130 A 
ATOM     20  C   LIG    1       23.547 -31.576   9.964  0.00  0.00    +0.064 A 
ATOM     21  C   LIG    1       22.687 -32.054  10.953  0.00  0.00    +0.058 A 
ATOM     22  I   LIG    1       20.749 -31.274  10.997  0.00  0.00    -0.040 I 
ATOM     23  C   LIG    1       23.132 -33.015  11.856  0.00  0.00    +0.130 A 
ATOM     24  C   LIG    1       24.447 -33.475  11.783  0.00  0.00    +0.050 A 
ATOM     25  C   LIG    1       25.291 -33.036  10.745  0.00  0.00    +0.050 A 
BRANCH  23  26
ATOM     26  O   LIG    1       22.285 -33.493  12.815  0.00  0.00    -0.506 OA
ATOM     27  H   LIG    1       22.718 -34.210  13.305  0.00  0.00    +0.292 HD
ENDBRANCH  23  26
ENDBRANCH  18  19
ENDBRANCH   5  18
TORSDOF 8
ENDMDL
MODEL 9
REMARK VINA RESULT:      -5.7     10.772     12.868
REMARK  Name = *****
REMARK                            x       y       z     vdW  Elec       q    Type
REMARK                         _______ _______ _______ _____ _____    ______ ____
ROOT
ATOM      1  C   LIG    1       24.841 -29.892   8.573  0.00  0.00    -0.043 A 
ATOM      2  C   LIG    1       23.627 -30.456   8.982  0.00  0.00    +0.021 A 
ATOM      3  C   LIG    1       23.247 -30.444  10.337  0.00  0.00    +0.057 A 
ATOM      4  I   LIG    1       21.296 -31.079  10.768  0.00  0.00    -0.040 I 
ATOM      5  C   LIG    1       24.100 -29.915  11.319  0.00  0.00    +0.154 A 
ATOM      6  C   LIG    1       25.297 -29.307  10.890  0.00  0.00    +0.057 A 
ATOM      7  I   LIG    1       26.514 -28.115  12.125  0.00  0.00    -0.040 I 
ATOM      8  C   LIG    1       25.694 -29.367   9.546  0.00  0.00    +0.021 A 
ENDROOT
BRANCH   1   9
ATOM      9  C   LIG    1       25.150 -29.658   7.109  0.00  0.00    +0.065 C 
BRANCH   9  10
ATOM     10  CA  LIG    1       24.145 -28.718   6.405  0.00  0.00    +0.165 C 
BRANCH  10  11
ATOM     11  N   LIG    1       23.280 -29.374   5.374  0.00  0.00    -0.318 NA
ATOM     12  H1  LIG    1       23.498 -28.952   4.463  0.00  0.00    +0.119 HD
ATOM     13  H2  LIG    1       23.566 -30.351   5.277  0.00  0.00    +0.119 HD
ENDBRANCH  10  11
BRANCH  10  14
ATOM     14  C   LIG    1       24.810 -27.484   5.748  0.00  0.00    +0.322 C 
ATOM     15  O   LIG    1       24.266 -26.460   5.425  0.00  0.00    -0.249 OA
BRANCH  14  16
ATOM     16  OXT LIG    1       26.132 -27.740   5.512  0.00  0.00    -0.479 OA
ATOM     17  HXT LIG    1       26.488 -28.157   6.335  0.00  0.00    +0.295 HD
ENDBRANCH  14  16
ENDBRANCH  10  14
ENDBRANCH   9  10
ENDBRANCH   1   9
BRANCH   5  18
ATOM     18  O   LIG    1       23.723 -29.981  12.654  0.00  0.00    -0.454 OA
BRANCH  18  19
ATOM     19  C   LIG    1       22.740 -29.105  13.105  0.00  0.00    +0.130 A 
ATOM     20  C   LIG    1       21.606 -29.519  13.808  0.00  0.00    +0.064 A 
ATOM     21  C   LIG    1       20.721 -28.594  14.364  0.00  0.00    +0.058 A 
ATOM     22  I   LIG    1       19.138 -29.347  15.500  0.00  0.00    -0.040 I 
ATOM     23  C   LIG    1       20.915 -27.232  14.153  0.00  0.00    +0.130 A 
ATOM     24  C   LIG    1       21.981 -26.801  13.363  0.00  0.00    +0.050 A 
ATOM     25  C   LIG    1       22.907 -27.733  12.857  0.00  0.00    +0.050 A 
BRANCH  23  26
ATOM     26  O   LIG    1       20.056 -26.327  14.709  0.00  0.00    -0.506 OA
ATOM     27  H   LIG    1       20.106 -25.489  14.223  0.00  0.00    +0.292 HD
ENDBRANCH  23  26
ENDBRANCH  18  19
ENDBRANCH   5  18
TORSDOF 8
ENDMDL
