MODEL 1
REMARK VINA RESULT:       2.5      0.000      0.000
REMARK  Name = *****
REMARK                            x       y       z     vdW  Elec       q    Type
REMARK                         _______ _______ _______ _____ _____    ______ ____
ROOT
ATOM      1  N   UNK A  0       21.875 -18.831   5.014  0.00  0.00    -0.342 N 
ATOM      2  H   UNK A  0       20.860 -18.823   4.940  0.00  0.00    +0.146 HD
ENDROOT
BRANCH   1   3
ATOM      3  C   UNK A  0       22.418 -17.559   4.805  0.00  0.00    +0.027 A 
ATOM      4  C   UNK A  0       23.504 -17.403   3.934  0.00  0.00    +0.024 A 
ATOM      5  C   UNK A  0       24.128 -16.156   3.769  0.00  0.00    +0.015 A 
ATOM      6  C   UNK A  0       23.692 -15.048   4.503  0.00  0.00    +0.037 A 
ATOM      7  C   UNK A  0       22.616 -15.192   5.374  0.00  0.00    +0.015 A 
ATOM      8  C   UNK A  0       22.007 -16.438   5.536  0.00  0.00    +0.024 A 
BRANCH   6   9
ATOM      9  C   UNK A  0       24.432 -13.754   4.356  0.00  0.00    +0.245 C 
ATOM     10  N   GLU A  1       25.731 -13.731   4.824  0.00  0.00    -0.298 N 
ATOM     11  H   GLU A  1       26.063 -14.466   5.429  0.00  0.00    +0.150 HD
ATOM     12  O   UNK A  0       23.905 -12.800   3.820  0.00  0.00    -0.270 OA
BRANCH  10  13
ATOM     13  CA  GLU A  1       26.533 -12.513   4.745  0.00  0.00    +0.182 C 
BRANCH  13  14
ATOM     14  C   GLU A  1       27.774 -12.655   5.648  0.00  0.00    +0.325 C 
ATOM     15  O   GLU A  1       28.795 -12.005   5.519  0.00  0.00    -0.249 OA
BRANCH  14  16
ATOM     16  OXT GLU A  1       27.600 -13.525   6.679  0.00  0.00    -0.479 OA
ATOM     17  HXT GLU A  1       26.670 -13.732   6.887  0.00  0.00    +0.295 HD
ENDBRANCH  14  16
ENDBRANCH  13  14
BRANCH  13  18
ATOM     18  CB  GLU A  1       26.993 -12.244   3.305  0.00  0.00    +0.045 C 
BRANCH  18  19
ATOM     19  CG  GLU A  1       27.908 -13.329   2.749  0.00  0.00    +0.123 C 
BRANCH  19  20
ATOM     20  CD  GLU A  1       27.176 -14.641   2.624  0.00  0.00    +0.305 C 
ATOM     21  OE1 GLU A  1       27.468 -15.700   3.147  0.00  0.00    -0.251 OA
BRANCH  20  22
ATOM     22  OE2 GLU A  1       26.088 -14.547   1.818  0.00  0.00    -0.481 OA
ATOM     23  HE2 GLU A  1       26.433 -14.785   0.931  0.00  0.00    +0.295 HD
ENDBRANCH  20  22
ENDBRANCH  19  20
ENDBRANCH  18  19
ENDBRANCH  13  18
ENDBRANCH  10  13
ENDBRANCH   6   9
ENDBRANCH   1   3
BRANCH   1  24
ATOM     24  C   UNK A  0       22.339 -19.625   6.161  0.00  0.00    +0.126 C 
BRANCH  24  32
ATOM     25  C   UNK A  0       27.544 -19.327   5.153  0.00  0.00    +0.195 C 
ATOM     26  N   UNK A  0       27.073 -19.356   3.887  0.00  0.00    -0.294 N 
ATOM     27  H   UNK A  0       27.680 -19.104   3.125  0.00  0.00    +0.172 HD
ATOM     28  C   UNK A  0       25.976 -20.094   3.555  0.00  0.00    +0.276 C 
ATOM     29  O   UNK A  0       25.788 -20.416   2.389  0.00  0.00    -0.266 OA
ATOM     30  C   UNK A  0       25.086 -20.475   4.696  0.00  0.00    +0.142 C 
ATOM     31  N   UNK A  0       23.757 -20.914   4.527  0.00  0.00    -0.261 N 
ATOM     32  C   UNK A  0       22.916 -21.013   5.758  0.00  0.00    +0.115 C 
ATOM     33  C   UNK A  0       23.745 -21.571   6.931  0.00  0.00    +0.127 C 
ATOM     34  N   UNK A  0       24.954 -20.775   7.060  0.00  0.00    -0.326 N 
ATOM     35  H   UNK A  0       25.595 -21.022   7.810  0.00  0.00    +0.148 HD
ATOM     36  C   UNK A  0       23.132 -21.145   3.314  0.00  0.00    +0.333 C 
ATOM     37  O   UNK A  0       21.960 -21.488   3.179  0.00  0.00    -0.279 OA
ATOM     38  C   UNK A  0       25.657 -20.368   5.929  0.00  0.00    +0.149 C 
ATOM     39  N   UNK A  0       26.907 -19.848   6.147  0.00  0.00    -0.199 NA
BRANCH  25  40
ATOM     40  N   UNK A  0       28.734 -18.709   5.338  0.00  0.00    -0.329 N 
ATOM     41  H   UNK A  0       29.368 -18.730   4.549  0.00  0.00    +0.145 HD
ATOM     42  H   UNK A  0       28.608 -17.766   5.698  0.00  0.00    +0.145 HD
ENDBRANCH  25  40
ENDBRANCH  24  32
ENDBRANCH   1  24
TORSDOF 12
ENDMDL
MODEL 2
REMARK VINA RESULT:       4.9      2.298      7.816
REMARK  Name = *****
REMARK                            x       y       z     vdW  Elec       q    Type
REMARK                         _______ _______ _______ _____ _____    ______ ____
ROOT
ATOM      1  N   UNK A  0       28.106 -14.764   3.455  0.00  0.00    -0.342 N 
ATOM      2  H   UNK A  0       28.809 -14.727   2.719  0.00  0.00    +0.146 HD
ENDROOT
BRANCH   1   3
ATOM      3  C   UNK A  0       27.677 -16.073   3.694  0.00  0.00    +0.027 A 
ATOM      4  C   UNK A  0       26.402 -16.473   3.270  0.00  0.00    +0.024 A 
ATOM      5  C   UNK A  0       25.906 -17.751   3.570  0.00  0.00    +0.015 A 
ATOM      6  C   UNK A  0       26.670 -18.642   4.332  0.00  0.00    +0.037 A 
ATOM      7  C   UNK A  0       27.937 -18.254   4.761  0.00  0.00    +0.015 A 
ATOM      8  C   UNK A  0       28.417 -16.977   4.463  0.00  0.00    +0.024 A 
BRANCH   6   9
ATOM      9  C   UNK A  0       26.075 -19.967   4.695  0.00  0.00    +0.245 C 
ATOM     10  N   GLU A  1       24.710 -20.094   4.536  0.00  0.00    -0.298 N 
ATOM     11  H   GLU A  1       24.138 -19.274   4.407  0.00  0.00    +0.150 HD
ATOM     12  O   UNK A  0       26.784 -20.877   5.078  0.00  0.00    -0.270 OA
BRANCH  10  13
ATOM     13  CA  GLU A  1       24.029 -21.340   4.879  0.00  0.00    +0.182 C 
BRANCH  13  14
ATOM     14  C   GLU A  1       23.902 -21.452   6.410  0.00  0.00    +0.325 C 
ATOM     15  O   GLU A  1       22.844 -21.508   7.010  0.00  0.00    -0.249 OA
BRANCH  14  16
ATOM     16  OXT GLU A  1       25.098 -21.572   7.048  0.00  0.00    -0.479 OA
ATOM     17  HXT GLU A  1       25.610 -20.745   7.116  0.00  0.00    +0.295 HD
ENDBRANCH  14  16
ENDBRANCH  13  14
BRANCH  13  18
ATOM     18  CB  GLU A  1       22.626 -21.395   4.257  0.00  0.00    +0.045 C 
BRANCH  18  19
ATOM     19  CG  GLU A  1       21.653 -20.392   4.868  0.00  0.00    +0.123 C 
BRANCH  19  20
ATOM     20  CD  GLU A  1       21.887 -19.009   4.317  0.00  0.00    +0.305 C 
ATOM     21  OE1 GLU A  1       22.859 -18.298   4.500  0.00  0.00    -0.251 OA
BRANCH  20  22
ATOM     22  OE2 GLU A  1       20.854 -18.580   3.550  0.00  0.00    -0.481 OA
ATOM     23  HE2 GLU A  1       21.252 -17.879   2.992  0.00  0.00    +0.295 HD
ENDBRANCH  20  22
ENDBRANCH  19  20
ENDBRANCH  18  19
ENDBRANCH  13  18
ENDBRANCH  10  13
ENDBRANCH   6   9
ENDBRANCH   1   3
BRANCH   1  24
ATOM     24  C   UNK A  0       28.458 -13.908   4.599  0.00  0.00    +0.126 C 
BRANCH  24  32
ATOM     25  C   UNK A  0       23.219 -14.772   4.571  0.00  0.00    +0.195 C 
ATOM     26  N   UNK A  0       23.395 -14.424   3.277  0.00  0.00    -0.294 N 
ATOM     27  H   UNK A  0       22.665 -14.609   2.610  0.00  0.00    +0.172 HD
ATOM     28  C   UNK A  0       24.309 -13.481   2.914  0.00  0.00    +0.276 C 
ATOM     29  O   UNK A  0       24.201 -12.911   1.836  0.00  0.00    -0.266 OA
ATOM     30  C   UNK A  0       25.383 -13.204   3.918  0.00  0.00    +0.142 C 
ATOM     31  N   UNK A  0       26.590 -12.548   3.599  0.00  0.00    -0.261 N 
ATOM     32  C   UNK A  0       27.666 -12.570   4.635  0.00  0.00    +0.115 C 
ATOM     33  C   UNK A  0       27.062 -12.384   6.041  0.00  0.00    +0.127 C 
ATOM     34  N   UNK A  0       26.000 -13.360   6.218  0.00  0.00    -0.326 N 
ATOM     35  H   UNK A  0       25.517 -13.364   7.113  0.00  0.00    +0.148 HD
ATOM     36  C   UNK A  0       26.905 -11.992   2.371  0.00  0.00    +0.333 C 
ATOM     37  O   UNK A  0       27.977 -11.459   2.093  0.00  0.00    -0.279 OA
ATOM     38  C   UNK A  0       25.112 -13.636   5.182  0.00  0.00    +0.149 C 
ATOM     39  N   UNK A  0       24.001 -14.368   5.515  0.00  0.00    -0.199 NA
BRANCH  25  40
ATOM     40  N   UNK A  0       22.169 -15.584   4.839  0.00  0.00    -0.329 N 
ATOM     41  H   UNK A  0       22.199 -16.499   4.405  0.00  0.00    +0.145 HD
ATOM     42  H   UNK A  0       21.997 -15.646   5.839  0.00  0.00    +0.145 HD
ENDBRANCH  25  40
ENDBRANCH  24  32
ENDBRANCH   1  24
TORSDOF 12
ENDMDL
