MODEL 1
REMARK VINA RESULT:      12.4      0.000      0.000
REMARK  Name = *****
REMARK                            x       y       z     vdW  Elec       q    Type
REMARK                         _______ _______ _______ _____ _____    ______ ____
ROOT
ATOM      1  C   LIG    1       21.862 -16.514   5.661  0.00  0.00    +0.013 C 
ATOM      2  C   LIG    1       22.565 -17.120   4.690  0.00  0.00    -0.036 C 
ATOM      3  C   LIG    1       23.668 -16.502   3.828  0.00  0.00    +0.085 C 
ATOM      4  C   LIG    1       24.944 -17.298   3.984  0.00  0.00    +0.050 C 
ATOM      5  C   LIG    1       26.167 -16.728   4.001  0.00  0.00    +0.141 C 
ATOM      6  C   LIG    1       26.385 -15.252   3.780  0.00  0.00    +0.189 C 
ATOM      7  C   LIG    1       25.141 -14.486   3.274  0.00  0.00    +0.089 C 
ATOM      8  C   LIG    1       25.421 -12.952   3.376  0.00  0.00    +0.133 C 
ATOM      9  C   LIG    1       26.710 -12.564   2.594  0.00  0.00    +0.170 C 
ATOM     10  O   LIG    1       26.876 -11.447   2.086  0.00  0.00    -0.294 OA
ATOM     11  C   LIG    1       27.882 -13.523   2.601  0.00  0.00    +0.211 C 
ATOM     12  C   LIG    1       27.430 -14.957   2.681  0.00  0.00    +0.192 C 
ATOM     13  O   LIG    1       27.760 -15.766   1.812  0.00  0.00    -0.293 OA
ATOM     14  C   LIG    1       24.812 -18.782   4.173  0.00  0.00    +0.197 C 
ATOM     15  O   LIG    1       25.807 -19.461   4.415  0.00  0.00    -0.287 OA
ATOM     16  C   LIG    1       23.446 -19.369   4.087  0.00  0.00    +0.071 A 
ATOM     17  C   LIG    1       23.239 -20.716   3.753  0.00  0.00    +0.128 A 
ATOM     18  C   LIG    1       21.949 -21.248   3.714  0.00  0.00    +0.046 A 
ATOM     19  C   LIG    1       20.855 -20.437   4.004  0.00  0.00    +0.004 A 
ATOM     20  C   LIG    1       21.049 -19.095   4.333  0.00  0.00    +0.009 A 
ATOM     21  C   LIG    1       23.890 -14.970   4.038  0.00  0.00    +0.135 C 
ATOM     22  C   LIG    1       22.343 -18.550   4.386  0.00  0.00    -0.007 A 
ENDROOT
BRANCH  11  23
ATOM     23  C   LIG    1       28.915 -13.158   3.633  0.00  0.00    +0.228 C 
ATOM     24  O   LIG    1       29.302 -13.916   4.518  0.00  0.00    -0.275 OA
ATOM     25  N   LIG    1       29.473 -11.916   3.499  0.00  0.00    -0.328 N 
ATOM     26  H   LIG    1       29.145 -11.240   2.813  0.00  0.00    +0.145 HD
ATOM     27  H   LIG    1       30.183 -11.627   4.159  0.00  0.00    +0.145 HD
ENDBRANCH  11  23
BRANCH   8  28
ATOM     28  N   LIG    1       24.230 -12.134   2.992  0.00  0.00    -0.299 NA
ATOM     29  C   LIG    1       23.460 -12.735   1.896  0.00  0.00    +0.105 C 
ATOM     30  C   LIG    1       23.337 -11.782   4.101  0.00  0.00    +0.105 C 
ENDBRANCH   8  28
BRANCH   5  31
ATOM     31  O   LIG    1       27.327 -17.423   4.304  0.00  0.00    -0.507 OA
ATOM     32  H   LIG    1       27.112 -18.387   4.339  0.00  0.00    +0.292 HD
ENDBRANCH   5  31
BRANCH   6  33
ATOM     33  O   LIG    1       26.785 -14.719   5.036  0.00  0.00    -0.373 OA
ATOM     34  H   LIG    1       27.665 -15.114   5.229  0.00  0.00    +0.211 HD
ENDBRANCH   6  33
BRANCH  17  35
ATOM     35  O   LIG    1       24.291 -21.521   3.417  0.00  0.00    -0.506 OA
ATOM     36  H   LIG    1       24.798 -21.757   4.210  0.00  0.00    +0.292 HD
ENDBRANCH  17  35
BRANCH  21  37
ATOM     37  O   LIG    1       22.720 -14.302   3.549  0.00  0.00    -0.390 OA
ATOM     38  H   LIG    1       22.216 -14.960   3.023  0.00  0.00    +0.210 HD
ENDBRANCH  21  37
TORSDOF 6
ENDMDL
