MODEL 1
REMARK VINA RESULT:      -8.0      0.000      0.000
REMARK  Name = *****
REMARK                            x       y       z     vdW  Elec       q    Type
REMARK                         _______ _______ _______ _____ _____    ______ ____
ROOT
ATOM      1  C   LIG    1       25.647 -23.018   6.109  0.00  0.00    +0.168 A 
ATOM      2  N   LIG    1       26.790 -22.470   6.520  0.00  0.00    -0.208 NA
ATOM      3  C   LIG    1       26.879 -21.152   6.297  0.00  0.00    +0.168 A 
ATOM      4  N   LIG    1       25.911 -20.397   5.788  0.00  0.00    -0.208 NA
ATOM      5  C   LIG    1       24.803 -21.033   5.454  0.00  0.00    +0.164 A 
ATOM      6  N   LIG    1       24.619 -22.348   5.581  0.00  0.00    -0.208 NA
ENDROOT
BRANCH   5   7
ATOM      7  C   LIG    1       23.687 -20.231   4.924  0.00  0.00    +0.019 A 
ATOM      8  C   LIG    1       22.371 -20.727   4.954  0.00  0.00    +0.015 A 
ATOM      9  C   LIG    1       21.300 -19.973   4.467  0.00  0.00    +0.046 A 
ATOM     10  C   LIG    1       21.515 -18.710   3.924  0.00  0.00    +0.120 A 
ATOM     11  C   LIG    1       22.808 -18.189   3.897  0.00  0.00    +0.046 A 
ATOM     12  C   LIG    1       23.883 -18.945   4.387  0.00  0.00    +0.015 A 
BRANCH  10  13
ATOM     13  O   LIG    1       20.393 -18.060   3.493  0.00  0.00    -0.495 OA
ATOM     14  C   LIG    1       19.314 -18.899   3.092  0.00  0.00    +0.277 C 
ENDBRANCH  10  13
ENDBRANCH   5   7
BRANCH   1  18
ATOM     15  C   LIG    1       25.137 -27.288   6.556  0.00  0.00    +0.124 A 
ATOM     16  C   LIG    1       24.045 -26.443   6.433  0.00  0.00    +0.091 A 
ATOM     17  C   LIG    1       24.218 -25.072   6.314  0.00  0.00    +0.131 A 
ATOM     18  C   LIG    1       25.490 -24.479   6.242  0.00  0.00    +0.061 A 
ATOM     19  C   LIG    1       26.592 -25.362   6.276  0.00  0.00    +0.019 A 
ATOM     20  C   LIG    1       26.416 -26.749   6.441  0.00  0.00    +0.046 A 
BRANCH  17  21
ATOM     21  O   LIG    1       23.035 -24.373   6.293  0.00  0.00    -0.506 OA
ATOM     22  H   LIG    1       23.167 -23.592   5.725  0.00  0.00    +0.292 HD
ENDBRANCH  17  21
BRANCH  15  23
ATOM     23  O   LIG    1       25.016 -28.637   6.744  0.00  0.00    -0.492 OA
BRANCH  23  24
ATOM     24  C   LIG    1       24.439 -29.053   7.991  0.00  0.00    +0.232 C 
BRANCH  24  25
ATOM     25  C   LIG    1       25.157 -30.285   8.575  0.00  0.00    +0.026 C 
BRANCH  25  26
ATOM     26  C   LIG    1       26.559 -29.836   9.070  0.00  0.00    +0.003 C 
ATOM     27  C   LIG    1       26.549 -28.597   9.956  0.00  0.00    +0.004 C 
ENDBRANCH  25  26
BRANCH  25  28
ATOM     28  C   LIG    1       25.279 -31.447   7.569  0.00  0.00    +0.007 C 
BRANCH  28  29
ATOM     29  C   LIG    1       23.990 -31.942   6.904  0.00  0.00    +0.000 C 
BRANCH  29  31
ATOM     30  C   LIG    1       22.704 -32.721   8.981  0.00  0.00    +0.004 C 
ATOM     31  C   LIG    1       23.269 -33.090   7.617  0.00  0.00    -0.003 C 
ENDBRANCH  29  31
ENDBRANCH  28  29
ENDBRANCH  25  28
ENDBRANCH  24  25
ENDBRANCH  23  24
ENDBRANCH  15  23
ENDBRANCH   1  18
BRANCH   3  32
ATOM     32  C   LIG    1       28.146 -20.487   6.619  0.00  0.00    +0.061 A 
ATOM     33  C   LIG    1       28.933 -20.798   7.742  0.00  0.00    +0.131 A 
ATOM     34  C   LIG    1       30.119 -20.111   8.012  0.00  0.00    +0.091 A 
ATOM     35  C   LIG    1       30.566 -19.098   7.163  0.00  0.00    +0.124 A 
ATOM     36  C   LIG    1       29.811 -18.772   6.039  0.00  0.00    +0.046 A 
ATOM     37  C   LIG    1       28.620 -19.461   5.777  0.00  0.00    +0.019 A 
BRANCH  33  38
ATOM     38  O   LIG    1       28.582 -21.760   8.659  0.00  0.00    -0.506 OA
ATOM     39  H   LIG    1       27.752 -21.483   9.094  0.00  0.00    +0.292 HD
ENDBRANCH  33  38
BRANCH  35  40
ATOM     40  O   LIG    1       31.711 -18.459   7.556  0.00  0.00    -0.492 OA
BRANCH  40  41
ATOM     41  C   LIG    1       31.968 -18.429   8.964  0.00  0.00    +0.232 C 
BRANCH  41  42
ATOM     42  C   LIG    1       31.930 -16.969   9.465  0.00  0.00    +0.026 C 
BRANCH  42  43
ATOM     43  C   LIG    1       30.512 -16.583   9.939  0.00  0.00    +0.003 C 
ATOM     44  C   LIG    1       29.753 -17.710  10.632  0.00  0.00    +0.004 C 
ENDBRANCH  42  43
BRANCH  42  45
ATOM     45  C   LIG    1       33.020 -16.725  10.536  0.00  0.00    +0.007 C 
BRANCH  45  46
ATOM     46  C   LIG    1       32.560 -15.881  11.733  0.00  0.00    +0.000 C 
BRANCH  46  47
ATOM     47  C   LIG    1       32.439 -16.721  13.005  0.00  0.00    -0.003 C 
ATOM     48  C   LIG    1       32.452 -15.856  14.258  0.00  0.00    +0.004 C 
ENDBRANCH  46  47
ENDBRANCH  45  46
ENDBRANCH  42  45
ENDBRANCH  41  42
ENDBRANCH  40  41
ENDBRANCH  35  40
ENDBRANCH   3  32
TORSDOF 20
ENDMDL
MODEL 2
REMARK VINA RESULT:      -7.7      0.619      2.077
REMARK  Name = *****
REMARK                            x       y       z     vdW  Elec       q    Type
REMARK                         _______ _______ _______ _____ _____    ______ ____
ROOT
ATOM      1  C   LIG    1       25.620 -23.210   6.082  0.00  0.00    +0.168 A 
ATOM      2  N   LIG    1       26.743 -22.623   6.493  0.00  0.00    -0.208 NA
ATOM      3  C   LIG    1       26.781 -21.301   6.284  0.00  0.00    +0.168 A 
ATOM      4  N   LIG    1       25.782 -20.578   5.787  0.00  0.00    -0.208 NA
ATOM      5  C   LIG    1       24.698 -21.252   5.451  0.00  0.00    +0.164 A 
ATOM      6  N   LIG    1       24.565 -22.574   5.566  0.00  0.00    -0.208 NA
ENDROOT
BRANCH   5   7
ATOM      7  C   LIG    1       23.550 -20.488   4.934  0.00  0.00    +0.019 A 
ATOM      8  C   LIG    1       23.702 -19.150   4.532  0.00  0.00    +0.015 A 
ATOM      9  C   LIG    1       22.625 -18.416   4.028  0.00  0.00    +0.046 A 
ATOM     10  C   LIG    1       21.364 -18.994   3.924  0.00  0.00    +0.120 A 
ATOM     11  C   LIG    1       21.190 -20.324   4.301  0.00  0.00    +0.046 A 
ATOM     12  C   LIG    1       22.270 -21.062   4.806  0.00  0.00    +0.015 A 
BRANCH  10  13
ATOM     13  O   LIG    1       20.392 -18.186   3.404  0.00  0.00    -0.495 OA
ATOM     14  C   LIG    1       19.137 -18.814   3.164  0.00  0.00    +0.277 C 
ENDBRANCH  10  13
ENDBRANCH   5   7
BRANCH   1  18
ATOM     15  C   LIG    1       25.282 -27.500   6.495  0.00  0.00    +0.124 A 
ATOM     16  C   LIG    1       24.162 -26.685   6.533  0.00  0.00    +0.091 A 
ATOM     17  C   LIG    1       24.283 -25.308   6.424  0.00  0.00    +0.131 A 
ATOM     18  C   LIG    1       25.519 -24.677   6.201  0.00  0.00    +0.061 A 
ATOM     19  C   LIG    1       26.639 -25.529   6.073  0.00  0.00    +0.019 A 
ATOM     20  C   LIG    1       26.521 -26.923   6.228  0.00  0.00    +0.046 A 
BRANCH  17  21
ATOM     21  O   LIG    1       23.089 -24.642   6.572  0.00  0.00    -0.506 OA
ATOM     22  H   LIG    1       22.589 -25.092   7.276  0.00  0.00    +0.292 HD
ENDBRANCH  17  21
BRANCH  15  23
ATOM     23  O   LIG    1       25.222 -28.856   6.666  0.00  0.00    -0.492 OA
BRANCH  23  24
ATOM     24  C   LIG    1       24.568 -29.314   7.859  0.00  0.00    +0.232 C 
BRANCH  24  25
ATOM     25  C   LIG    1       25.419 -30.348   8.622  0.00  0.00    +0.026 C 
BRANCH  25  26
ATOM     26  C   LIG    1       24.639 -31.690   8.646  0.00  0.00    +0.003 C 
ATOM     27  C   LIG    1       23.691 -31.891   7.469  0.00  0.00    +0.004 C 
ENDBRANCH  25  26
BRANCH  25  28
ATOM     28  C   LIG    1       25.776 -29.899  10.053  0.00  0.00    +0.007 C 
BRANCH  28  29
ATOM     29  C   LIG    1       26.250 -28.453  10.241  0.00  0.00    +0.000 C 
BRANCH  29  31
ATOM     30  C   LIG    1       27.362 -28.969  12.493  0.00  0.00    +0.004 C 
ATOM     31  C   LIG    1       27.468 -28.263  11.150  0.00  0.00    -0.003 C 
ENDBRANCH  29  31
ENDBRANCH  28  29
ENDBRANCH  25  28
ENDBRANCH  24  25
ENDBRANCH  23  24
ENDBRANCH  15  23
ENDBRANCH   1  18
BRANCH   3  32
ATOM     32  C   LIG    1       28.024 -20.591   6.606  0.00  0.00    +0.061 A 
ATOM     33  C   LIG    1       28.799 -20.847   7.751  0.00  0.00    +0.131 A 
ATOM     34  C   LIG    1       29.961 -20.119   8.020  0.00  0.00    +0.091 A 
ATOM     35  C   LIG    1       30.394 -19.119   7.149  0.00  0.00    +0.124 A 
ATOM     36  C   LIG    1       29.649 -18.846   6.004  0.00  0.00    +0.046 A 
ATOM     37  C   LIG    1       28.483 -19.576   5.743  0.00  0.00    +0.019 A 
BRANCH  33  38
ATOM     38  O   LIG    1       28.460 -21.792   8.689  0.00  0.00    -0.506 OA
ATOM     39  H   LIG    1       27.529 -22.050   8.544  0.00  0.00    +0.292 HD
ENDBRANCH  33  38
BRANCH  35  40
ATOM     40  O   LIG    1       31.514 -18.437   7.542  0.00  0.00    -0.492 OA
BRANCH  40  41
ATOM     41  C   LIG    1       31.727 -18.329   8.953  0.00  0.00    +0.232 C 
BRANCH  41  42
ATOM     42  C   LIG    1       31.668 -16.844   9.373  0.00  0.00    +0.026 C 
BRANCH  42  43
ATOM     43  C   LIG    1       30.477 -16.584  10.321  0.00  0.00    +0.003 C 
ATOM     44  C   LIG    1       29.895 -17.842  10.958  0.00  0.00    +0.004 C 
ENDBRANCH  42  43
BRANCH  42  45
ATOM     45  C   LIG    1       33.025 -16.381   9.954  0.00  0.00    +0.007 C 
BRANCH  45  46
ATOM     46  C   LIG    1       32.926 -15.653  11.303  0.00  0.00    +0.000 C 
BRANCH  46  47
ATOM     47  C   LIG    1       32.919 -16.635  12.476  0.00  0.00    -0.003 C 
ATOM     48  C   LIG    1       32.780 -15.918  13.812  0.00  0.00    +0.004 C 
ENDBRANCH  46  47
ENDBRANCH  45  46
ENDBRANCH  42  45
ENDBRANCH  41  42
ENDBRANCH  40  41
ENDBRANCH  35  40
ENDBRANCH   3  32
TORSDOF 20
ENDMDL
MODEL 3
REMARK VINA RESULT:      -6.3      2.016     11.293
REMARK  Name = *****
REMARK                            x       y       z     vdW  Elec       q    Type
REMARK                         _______ _______ _______ _____ _____    ______ ____
ROOT
ATOM      1  C   LIG    1       25.399 -21.311   5.984  0.00  0.00    +0.168 A 
ATOM      2  N   LIG    1       25.061 -22.600   5.995  0.00  0.00    -0.208 NA
ATOM      3  C   LIG    1       25.999 -23.411   6.501  0.00  0.00    +0.168 A 
ATOM      4  N   LIG    1       27.150 -23.008   7.032  0.00  0.00    -0.208 NA
ATOM      5  C   LIG    1       27.368 -21.706   7.010  0.00  0.00    +0.164 A 
ATOM      6  N   LIG    1       26.531 -20.809   6.486  0.00  0.00    -0.208 NA
ENDROOT
BRANCH   5   7
ATOM      7  C   LIG    1       28.610 -21.209   7.624  0.00  0.00    +0.019 A 
ATOM      8  C   LIG    1       28.931 -19.841   7.585  0.00  0.00    +0.015 A 
ATOM      9  C   LIG    1       30.101 -19.352   8.174  0.00  0.00    +0.046 A 
ATOM     10  C   LIG    1       30.987 -20.218   8.807  0.00  0.00    +0.120 A 
ATOM     11  C   LIG    1       30.684 -21.577   8.873  0.00  0.00    +0.046 A 
ATOM     12  C   LIG    1       29.510 -22.068   8.283  0.00  0.00    +0.015 A 
BRANCH  10  13
ATOM     13  O   LIG    1       32.089 -19.627   9.359  0.00  0.00    -0.495 OA
ATOM     14  C   LIG    1       32.031 -18.209   9.474  0.00  0.00    +0.277 C 
ENDBRANCH  10  13
ENDBRANCH   5   7
BRANCH   1  18
ATOM     15  C   LIG    1       22.589 -18.552   4.199  0.00  0.00    +0.124 A 
ATOM     16  C   LIG    1       22.286 -19.228   5.371  0.00  0.00    +0.091 A 
ATOM     17  C   LIG    1       23.184 -20.129   5.923  0.00  0.00    +0.131 A 
ATOM     18  C   LIG    1       24.459 -20.352   5.374  0.00  0.00    +0.061 A 
ATOM     19  C   LIG    1       24.788 -19.587   4.232  0.00  0.00    +0.019 A 
ATOM     20  C   LIG    1       23.859 -18.705   3.647  0.00  0.00    +0.046 A 
BRANCH  17  21
ATOM     21  O   LIG    1       22.695 -20.778   7.031  0.00  0.00    -0.506 OA
ATOM     22  H   LIG    1       23.291 -20.577   7.775  0.00  0.00    +0.292 HD
ENDBRANCH  17  21
BRANCH  15  23
ATOM     23  O   LIG    1       21.712 -17.706   3.580  0.00  0.00    -0.492 OA
BRANCH  23  24
ATOM     24  C   LIG    1       21.543 -16.416   4.186  0.00  0.00    +0.232 C 
BRANCH  24  25
ATOM     25  C   LIG    1       22.887 -15.806   4.628  0.00  0.00    +0.026 C 
BRANCH  25  26
ATOM     26  C   LIG    1       22.704 -15.223   6.056  0.00  0.00    +0.003 C 
ATOM     27  C   LIG    1       21.266 -15.223   6.559  0.00  0.00    +0.004 C 
ENDBRANCH  25  26
BRANCH  25  28
ATOM     28  C   LIG    1       23.409 -14.726   3.660  0.00  0.00    +0.007 C 
BRANCH  28  29
ATOM     29  C   LIG    1       24.300 -13.625   4.245  0.00  0.00    +0.000 C 
BRANCH  29  31
ATOM     30  C   LIG    1       26.259 -14.991   3.311  0.00  0.00    +0.004 C 
ATOM     31  C   LIG    1       25.796 -13.945   4.314  0.00  0.00    -0.003 C 
ENDBRANCH  29  31
ENDBRANCH  28  29
ENDBRANCH  25  28
ENDBRANCH  24  25
ENDBRANCH  23  24
ENDBRANCH  15  23
ENDBRANCH   1  18
BRANCH   3  32
ATOM     32  C   LIG    1       25.755 -24.856   6.451  0.00  0.00    +0.061 A 
ATOM     33  C   LIG    1       24.475 -25.435   6.393  0.00  0.00    +0.131 A 
ATOM     34  C   LIG    1       24.304 -26.821   6.375  0.00  0.00    +0.091 A 
ATOM     35  C   LIG    1       25.406 -27.676   6.403  0.00  0.00    +0.124 A 
ATOM     36  C   LIG    1       26.687 -27.132   6.456  0.00  0.00    +0.046 A 
ATOM     37  C   LIG    1       26.851 -25.742   6.479  0.00  0.00    +0.019 A 
BRANCH  33  38
ATOM     38  O   LIG    1       23.318 -24.693   6.382  0.00  0.00    -0.506 OA
ATOM     39  H   LIG    1       23.559 -23.746   6.397  0.00  0.00    +0.292 HD
ENDBRANCH  33  38
BRANCH  35  40
ATOM     40  O   LIG    1       25.115 -29.013   6.436  0.00  0.00    -0.492 OA
BRANCH  40  41
ATOM     41  C   LIG    1       24.000 -29.400   7.247  0.00  0.00    +0.232 C 
BRANCH  41  42
ATOM     42  C   LIG    1       24.503 -29.849   8.637  0.00  0.00    +0.026 C 
BRANCH  42  43
ATOM     43  C   LIG    1       23.476 -30.776   9.324  0.00  0.00    +0.003 C 
ATOM     44  C   LIG    1       22.892 -30.216  10.618  0.00  0.00    +0.004 C 
ENDBRANCH  42  43
BRANCH  42  45
ATOM     45  C   LIG    1       25.916 -30.471   8.537  0.00  0.00    +0.007 C 
BRANCH  45  46
ATOM     46  C   LIG    1       26.902 -29.990   9.612  0.00  0.00    +0.000 C 
BRANCH  46  47
ATOM     47  C   LIG    1       26.758 -28.492   9.883  0.00  0.00    -0.003 C 
ATOM     48  C   LIG    1       26.485 -28.206  11.353  0.00  0.00    +0.004 C 
ENDBRANCH  46  47
ENDBRANCH  45  46
ENDBRANCH  42  45
ENDBRANCH  41  42
ENDBRANCH  40  41
ENDBRANCH  35  40
ENDBRANCH   3  32
TORSDOF 20
ENDMDL
MODEL 4
REMARK VINA RESULT:      -6.1      2.012     11.661
REMARK  Name = *****
REMARK                            x       y       z     vdW  Elec       q    Type
REMARK                         _______ _______ _______ _____ _____    ______ ____
ROOT
ATOM      1  C   LIG    1       25.413 -21.218   5.934  0.00  0.00    +0.168 A 
ATOM      2  N   LIG    1       25.049 -22.500   5.954  0.00  0.00    -0.208 NA
ATOM      3  C   LIG    1       25.966 -23.325   6.476  0.00  0.00    +0.168 A 
ATOM      4  N   LIG    1       27.121 -22.940   7.013  0.00  0.00    -0.208 NA
ATOM      5  C   LIG    1       27.365 -21.643   6.980  0.00  0.00    +0.164 A 
ATOM      6  N   LIG    1       26.551 -20.735   6.441  0.00  0.00    -0.208 NA
ENDROOT
BRANCH   5   7
ATOM      7  C   LIG    1       28.612 -21.166   7.600  0.00  0.00    +0.019 A 
ATOM      8  C   LIG    1       28.978 -19.810   7.523  0.00  0.00    +0.015 A 
ATOM      9  C   LIG    1       30.152 -19.340   8.117  0.00  0.00    +0.046 A 
ATOM     10  C   LIG    1       30.999 -20.212   8.793  0.00  0.00    +0.120 A 
ATOM     11  C   LIG    1       30.652 -21.557   8.898  0.00  0.00    +0.046 A 
ATOM     12  C   LIG    1       29.474 -22.030   8.302  0.00  0.00    +0.015 A 
BRANCH  10  13
ATOM     13  O   LIG    1       32.110 -19.637   9.345  0.00  0.00    -0.495 OA
ATOM     14  C   LIG    1       32.004 -18.246   9.629  0.00  0.00    +0.277 C 
ENDBRANCH  10  13
ENDBRANCH   5   7
BRANCH   1  18
ATOM     15  C   LIG    1       22.678 -18.423   4.092  0.00  0.00    +0.124 A 
ATOM     16  C   LIG    1       22.308 -19.162   5.205  0.00  0.00    +0.091 A 
ATOM     17  C   LIG    1       23.184 -20.074   5.774  0.00  0.00    +0.131 A 
ATOM     18  C   LIG    1       24.499 -20.246   5.306  0.00  0.00    +0.061 A 
ATOM     19  C   LIG    1       24.890 -19.420   4.229  0.00  0.00    +0.019 A 
ATOM     20  C   LIG    1       23.986 -18.526   3.624  0.00  0.00    +0.046 A 
BRANCH  17  21
ATOM     21  O   LIG    1       22.632 -20.786   6.812  0.00  0.00    -0.506 OA
ATOM     22  H   LIG    1       23.257 -21.497   7.043  0.00  0.00    +0.292 HD
ENDBRANCH  17  21
BRANCH  15  23
ATOM     23  O   LIG    1       21.828 -17.562   3.455  0.00  0.00    -0.492 OA
BRANCH  23  24
ATOM     24  C   LIG    1       21.672 -16.268   4.054  0.00  0.00    +0.232 C 
BRANCH  24  25
ATOM     25  C   LIG    1       22.998 -15.738   4.635  0.00  0.00    +0.026 C 
BRANCH  25  26
ATOM     26  C   LIG    1       22.674 -14.953   5.935  0.00  0.00    +0.003 C 
ATOM     27  C   LIG    1       21.391 -15.387   6.633  0.00  0.00    +0.004 C 
ENDBRANCH  25  26
BRANCH  25  28
ATOM     28  C   LIG    1       23.782 -14.855   3.644  0.00  0.00    +0.007 C 
BRANCH  28  29
ATOM     29  C   LIG    1       24.746 -13.819   4.232  0.00  0.00    +0.000 C 
BRANCH  29  31
ATOM     30  C   LIG    1       26.596 -15.409   3.442  0.00  0.00    +0.004 C 
ATOM     31  C   LIG    1       26.222 -13.995   3.863  0.00  0.00    -0.003 C 
ENDBRANCH  29  31
ENDBRANCH  28  29
ENDBRANCH  25  28
ENDBRANCH  24  25
ENDBRANCH  23  24
ENDBRANCH  15  23
ENDBRANCH   1  18
BRANCH   3  32
ATOM     32  C   LIG    1       25.694 -24.765   6.438  0.00  0.00    +0.061 A 
ATOM     33  C   LIG    1       24.402 -25.320   6.443  0.00  0.00    +0.131 A 
ATOM     34  C   LIG    1       24.204 -26.703   6.433  0.00  0.00    +0.091 A 
ATOM     35  C   LIG    1       25.290 -27.579   6.406  0.00  0.00    +0.124 A 
ATOM     36  C   LIG    1       26.582 -27.058   6.395  0.00  0.00    +0.046 A 
ATOM     37  C   LIG    1       26.773 -25.671   6.411  0.00  0.00    +0.019 A 
BRANCH  33  38
ATOM     38  O   LIG    1       23.260 -24.557   6.490  0.00  0.00    -0.506 OA
ATOM     39  H   LIG    1       22.536 -25.060   6.068  0.00  0.00    +0.292 HD
ENDBRANCH  33  38
BRANCH  35  40
ATOM     40  O   LIG    1       24.977 -28.910   6.453  0.00  0.00    -0.492 OA
BRANCH  40  41
ATOM     41  C   LIG    1       24.711 -29.453   7.751  0.00  0.00    +0.232 C 
BRANCH  41  42
ATOM     42  C   LIG    1       25.763 -30.533   8.086  0.00  0.00    +0.026 C 
BRANCH  42  43
ATOM     43  C   LIG    1       26.562 -30.153   9.352  0.00  0.00    +0.003 C 
ATOM     44  C   LIG    1       26.645 -28.653   9.616  0.00  0.00    +0.004 C 
ENDBRANCH  42  43
BRANCH  42  45
ATOM     45  C   LIG    1       25.109 -31.932   8.172  0.00  0.00    +0.007 C 
BRANCH  45  46
ATOM     46  C   LIG    1       25.292 -32.800   6.919  0.00  0.00    +0.000 C 
BRANCH  46  47
ATOM     47  C   LIG    1       26.385 -32.248   6.002  0.00  0.00    -0.003 C 
ATOM     48  C   LIG    1       25.846 -31.910   4.619  0.00  0.00    +0.004 C 
ENDBRANCH  46  47
ENDBRANCH  45  46
ENDBRANCH  42  45
ENDBRANCH  41  42
ENDBRANCH  40  41
ENDBRANCH  35  40
ENDBRANCH   3  32
TORSDOF 20
ENDMDL
MODEL 5
REMARK VINA RESULT:      -6.0      2.151      7.247
REMARK  Name = *****
REMARK                            x       y       z     vdW  Elec       q    Type
REMARK                         _______ _______ _______ _____ _____    ______ ____
ROOT
ATOM      1  C   LIG    1       25.943 -23.345   6.340  0.00  0.00    +0.168 A 
ATOM      2  N   LIG    1       25.082 -22.526   5.736  0.00  0.00    -0.208 NA
ATOM      3  C   LIG    1       25.383 -21.227   5.854  0.00  0.00    +0.168 A 
ATOM      4  N   LIG    1       26.475 -20.747   6.443  0.00  0.00    -0.208 NA
ATOM      5  C   LIG    1       27.284 -21.647   6.971  0.00  0.00    +0.164 A 
ATOM      6  N   LIG    1       27.062 -22.962   6.960  0.00  0.00    -0.208 NA
ENDROOT
BRANCH   5   7
ATOM      7  C   LIG    1       28.527 -21.165   7.597  0.00  0.00    +0.019 A 
ATOM      8  C   LIG    1       28.840 -19.794   7.607  0.00  0.00    +0.015 A 
ATOM      9  C   LIG    1       30.009 -19.321   8.208  0.00  0.00    +0.046 A 
ATOM     10  C   LIG    1       30.904 -20.204   8.803  0.00  0.00    +0.120 A 
ATOM     11  C   LIG    1       30.610 -21.566   8.821  0.00  0.00    +0.046 A 
ATOM     12  C   LIG    1       29.436 -22.042   8.219  0.00  0.00    +0.015 A 
BRANCH  10  13
ATOM     13  O   LIG    1       32.005 -19.626   9.371  0.00  0.00    -0.495 OA
ATOM     14  C   LIG    1       31.946 -18.212   9.524  0.00  0.00    +0.277 C 
ENDBRANCH  10  13
ENDBRANCH   5   7
BRANCH   1  18
ATOM     15  C   LIG    1       25.039 -27.573   6.367  0.00  0.00    +0.124 A 
ATOM     16  C   LIG    1       24.030 -26.623   6.360  0.00  0.00    +0.091 A 
ATOM     17  C   LIG    1       24.330 -25.269   6.375  0.00  0.00    +0.131 A 
ATOM     18  C   LIG    1       25.651 -24.791   6.329  0.00  0.00    +0.061 A 
ATOM     19  C   LIG    1       26.665 -25.771   6.243  0.00  0.00    +0.019 A 
ATOM     20  C   LIG    1       26.362 -27.145   6.272  0.00  0.00    +0.046 A 
BRANCH  17  21
ATOM     21  O   LIG    1       23.218 -24.465   6.457  0.00  0.00    -0.506 OA
ATOM     22  H   LIG    1       22.454 -25.041   6.642  0.00  0.00    +0.292 HD
ENDBRANCH  17  21
BRANCH  15  23
ATOM     23  O   LIG    1       24.795 -28.917   6.420  0.00  0.00    -0.492 OA
BRANCH  23  24
ATOM     24  C   LIG    1       24.458 -29.448   7.711  0.00  0.00    +0.232 C 
BRANCH  24  25
ATOM     25  C   LIG    1       25.705 -29.918   8.485  0.00  0.00    +0.026 C 
BRANCH  25  26
ATOM     26  C   LIG    1       25.733 -31.471   8.453  0.00  0.00    +0.003 C 
ATOM     27  C   LIG    1       26.921 -32.096   9.174  0.00  0.00    +0.004 C 
ENDBRANCH  25  26
BRANCH  25  28
ATOM     28  C   LIG    1       25.745 -29.400   9.937  0.00  0.00    +0.007 C 
BRANCH  28  29
ATOM     29  C   LIG    1       26.995 -28.629  10.376  0.00  0.00    +0.000 C 
BRANCH  29  31
ATOM     30  C   LIG    1       27.157 -28.148  12.889  0.00  0.00    +0.004 C 
ATOM     31  C   LIG    1       26.792 -27.620  11.509  0.00  0.00    -0.003 C 
ENDBRANCH  29  31
ENDBRANCH  28  29
ENDBRANCH  25  28
ENDBRANCH  24  25
ENDBRANCH  23  24
ENDBRANCH  15  23
ENDBRANCH   1  18
BRANCH   3  32
ATOM     32  C   LIG    1       24.431 -20.251   5.314  0.00  0.00    +0.061 A 
ATOM     33  C   LIG    1       24.728 -19.362   4.266  0.00  0.00    +0.131 A 
ATOM     34  C   LIG    1       23.788 -18.434   3.811  0.00  0.00    +0.091 A 
ATOM     35  C   LIG    1       22.516 -18.370   4.379  0.00  0.00    +0.124 A 
ATOM     36  C   LIG    1       22.191 -19.242   5.417  0.00  0.00    +0.046 A 
ATOM     37  C   LIG    1       23.140 -20.166   5.871  0.00  0.00    +0.019 A 
BRANCH  33  38
ATOM     38  O   LIG    1       25.954 -19.319   3.645  0.00  0.00    -0.506 OA
ATOM     39  H   LIG    1       25.942 -18.595   2.989  0.00  0.00    +0.292 HD
ENDBRANCH  33  38
BRANCH  35  40
ATOM     40  O   LIG    1       21.698 -17.387   3.890  0.00  0.00    -0.492 OA
BRANCH  40  41
ATOM     41  C   LIG    1       22.347 -16.206   3.407  0.00  0.00    +0.232 C 
BRANCH  41  42
ATOM     42  C   LIG    1       22.571 -15.223   4.578  0.00  0.00    +0.026 C 
BRANCH  42  43
ATOM     43  C   LIG    1       22.148 -15.858   5.921  0.00  0.00    +0.003 C 
ATOM     44  C   LIG    1       21.383 -14.918   6.847  0.00  0.00    +0.004 C 
ENDBRANCH  42  43
BRANCH  42  45
ATOM     45  C   LIG    1       24.024 -14.694   4.583  0.00  0.00    +0.007 C 
BRANCH  45  46
ATOM     46  C   LIG    1       24.423 -13.914   3.321  0.00  0.00    +0.000 C 
BRANCH  46  47
ATOM     47  C   LIG    1       25.942 -13.798   3.185  0.00  0.00    -0.003 C 
ATOM     48  C   LIG    1       26.628 -15.151   3.324  0.00  0.00    +0.004 C 
ENDBRANCH  46  47
ENDBRANCH  45  46
ENDBRANCH  42  45
ENDBRANCH  41  42
ENDBRANCH  40  41
ENDBRANCH  35  40
ENDBRANCH   3  32
TORSDOF 20
ENDMDL
MODEL 6
REMARK VINA RESULT:      -5.9      4.057     12.486
REMARK  Name = *****
REMARK                            x       y       z     vdW  Elec       q    Type
REMARK                         _______ _______ _______ _____ _____    ______ ____
ROOT
ATOM      1  C   LIG    1       24.968 -28.323   6.839  0.00  0.00    +0.168 A 
ATOM      2  N   LIG    1       24.526 -28.751   8.022  0.00  0.00    -0.208 NA
ATOM      3  C   LIG    1       24.505 -30.084   8.152  0.00  0.00    +0.168 A 
ATOM      4  N   LIG    1       24.950 -30.946   7.242  0.00  0.00    -0.208 NA
ATOM      5  C   LIG    1       25.407 -30.415   6.123  0.00  0.00    +0.164 A 
ATOM      6  N   LIG    1       25.429 -29.108   5.861  0.00  0.00    -0.208 NA
ENDROOT
BRANCH   5   7
ATOM      7  C   LIG    1       25.948 -31.329   5.103  0.00  0.00    +0.019 A 
ATOM      8  C   LIG    1       25.603 -31.176   3.749  0.00  0.00    +0.015 A 
ATOM      9  C   LIG    1       26.119 -32.028   2.768  0.00  0.00    +0.046 A 
ATOM     10  C   LIG    1       26.981 -33.063   3.114  0.00  0.00    +0.120 A 
ATOM     11  C   LIG    1       27.351 -33.226   4.448  0.00  0.00    +0.046 A 
ATOM     12  C   LIG    1       26.835 -32.372   5.433  0.00  0.00    +0.015 A 
BRANCH  10  13
ATOM     13  O   LIG    1       27.433 -33.822   2.071  0.00  0.00    -0.495 OA
ATOM     14  C   LIG    1       26.606 -33.825   0.911  0.00  0.00    +0.277 C 
ENDBRANCH  10  13
ENDBRANCH   5   7
BRANCH   1  18
ATOM     15  C   LIG    1       24.991 -24.061   6.114  0.00  0.00    +0.124 A 
ATOM     16  C   LIG    1       26.134 -24.825   5.940  0.00  0.00    +0.091 A 
ATOM     17  C   LIG    1       26.123 -26.187   6.198  0.00  0.00    +0.131 A 
ATOM     18  C   LIG    1       24.955 -26.872   6.577  0.00  0.00    +0.061 A 
ATOM     19  C   LIG    1       23.777 -26.095   6.660  0.00  0.00    +0.019 A 
ATOM     20  C   LIG    1       23.799 -24.704   6.441  0.00  0.00    +0.046 A 
BRANCH  17  21
ATOM     21  O   LIG    1       27.357 -26.778   6.063  0.00  0.00    -0.506 OA
ATOM     22  H   LIG    1       27.725 -26.494   5.207  0.00  0.00    +0.292 HD
ENDBRANCH  17  21
BRANCH  15  23
ATOM     23  O   LIG    1       24.967 -22.705   5.938  0.00  0.00    -0.492 OA
BRANCH  23  24
ATOM     24  C   LIG    1       25.779 -21.937   6.839  0.00  0.00    +0.232 C 
BRANCH  24  25
ATOM     25  C   LIG    1       25.834 -20.449   6.439  0.00  0.00    +0.026 C 
BRANCH  25  26
ATOM     26  C   LIG    1       24.834 -20.228   5.272  0.00  0.00    +0.003 C 
ATOM     27  C   LIG    1       25.463 -19.682   3.995  0.00  0.00    +0.004 C 
ENDBRANCH  25  26
BRANCH  25  28
ATOM     28  C   LIG    1       27.248 -19.982   6.043  0.00  0.00    +0.007 C 
BRANCH  28  29
ATOM     29  C   LIG    1       28.273 -19.803   7.169  0.00  0.00    +0.000 C 
BRANCH  29  31
ATOM     30  C   LIG    1       30.623 -20.292   8.069  0.00  0.00    +0.004 C 
ATOM     31  C   LIG    1       29.549 -20.641   7.049  0.00  0.00    -0.003 C 
ENDBRANCH  29  31
ENDBRANCH  28  29
ENDBRANCH  25  28
ENDBRANCH  24  25
ENDBRANCH  23  24
ENDBRANCH  15  23
ENDBRANCH   1  18
BRANCH   3  32
ATOM     32  C   LIG    1       23.931 -30.643   9.379  0.00  0.00    +0.061 A 
ATOM     33  C   LIG    1       23.066 -31.752   9.407  0.00  0.00    +0.131 A 
ATOM     34  C   LIG    1       22.527 -32.224  10.606  0.00  0.00    +0.091 A 
ATOM     35  C   LIG    1       22.843 -31.613  11.820  0.00  0.00    +0.124 A 
ATOM     36  C   LIG    1       23.702 -30.516  11.825  0.00  0.00    +0.046 A 
ATOM     37  C   LIG    1       24.234 -30.044  10.618  0.00  0.00    +0.019 A 
BRANCH  33  38
ATOM     38  O   LIG    1       22.668 -32.419   8.273  0.00  0.00    -0.506 OA
ATOM     39  H   LIG    1       21.838 -32.014   7.952  0.00  0.00    +0.292 HD
ENDBRANCH  33  38
BRANCH  35  40
ATOM     40  O   LIG    1       22.215 -32.128  12.922  0.00  0.00    -0.492 OA
BRANCH  40  41
ATOM     41  C   LIG    1       21.547 -31.185  13.768  0.00  0.00    +0.232 C 
BRANCH  41  42
ATOM     42  C   LIG    1       20.488 -30.415  12.948  0.00  0.00    +0.026 C 
BRANCH  42  43
ATOM     43  C   LIG    1       19.283 -31.321  12.611  0.00  0.00    +0.003 C 
ATOM     44  C   LIG    1       19.113 -31.612  11.123  0.00  0.00    +0.004 C 
ENDBRANCH  42  43
BRANCH  42  45
ATOM     45  C   LIG    1       20.086 -29.104  13.661  0.00  0.00    +0.007 C 
BRANCH  45  46
ATOM     46  C   LIG    1       21.268 -28.232  14.109  0.00  0.00    +0.000 C 
BRANCH  46  47
ATOM     47  C   LIG    1       21.689 -27.246  13.018  0.00  0.00    -0.003 C 
ATOM     48  C   LIG    1       22.987 -26.532  13.371  0.00  0.00    +0.004 C 
ENDBRANCH  46  47
ENDBRANCH  45  46
ENDBRANCH  42  45
ENDBRANCH  41  42
ENDBRANCH  40  41
ENDBRANCH  35  40
ENDBRANCH   3  32
TORSDOF 20
ENDMDL
MODEL 7
REMARK VINA RESULT:      -5.8      2.403      7.214
REMARK  Name = *****
REMARK                            x       y       z     vdW  Elec       q    Type
REMARK                         _______ _______ _______ _____ _____    ______ ____
ROOT
ATOM      1  C   LIG    1       25.895 -23.384   6.358  0.00  0.00    +0.168 A 
ATOM      2  N   LIG    1       25.039 -22.561   5.753  0.00  0.00    -0.208 NA
ATOM      3  C   LIG    1       25.361 -21.265   5.847  0.00  0.00    +0.168 A 
ATOM      4  N   LIG    1       26.468 -20.793   6.414  0.00  0.00    -0.208 NA
ATOM      5  C   LIG    1       27.270 -21.696   6.946  0.00  0.00    +0.164 A 
ATOM      6  N   LIG    1       27.029 -23.008   6.958  0.00  0.00    -0.208 NA
ENDROOT
BRANCH   5   7
ATOM      7  C   LIG    1       28.528 -21.224   7.548  0.00  0.00    +0.019 A 
ATOM      8  C   LIG    1       28.917 -19.878   7.433  0.00  0.00    +0.015 A 
ATOM      9  C   LIG    1       30.102 -19.412   8.009  0.00  0.00    +0.046 A 
ATOM     10  C   LIG    1       30.937 -20.280   8.705  0.00  0.00    +0.120 A 
ATOM     11  C   LIG    1       30.567 -21.616   8.848  0.00  0.00    +0.046 A 
ATOM     12  C   LIG    1       29.377 -22.084   8.270  0.00  0.00    +0.015 A 
BRANCH  10  13
ATOM     13  O   LIG    1       32.059 -19.711   9.237  0.00  0.00    -0.495 OA
ATOM     14  C   LIG    1       31.965 -18.319   9.523  0.00  0.00    +0.277 C 
ENDBRANCH  10  13
ENDBRANCH   5   7
BRANCH   1  18
ATOM     15  C   LIG    1       24.927 -27.596   6.461  0.00  0.00    +0.124 A 
ATOM     16  C   LIG    1       23.933 -26.632   6.406  0.00  0.00    +0.091 A 
ATOM     17  C   LIG    1       24.252 -25.283   6.398  0.00  0.00    +0.131 A 
ATOM     18  C   LIG    1       25.582 -24.825   6.373  0.00  0.00    +0.061 A 
ATOM     19  C   LIG    1       26.583 -25.822   6.337  0.00  0.00    +0.019 A 
ATOM     20  C   LIG    1       26.258 -27.190   6.390  0.00  0.00    +0.046 A 
BRANCH  17  21
ATOM     21  O   LIG    1       23.152 -24.461   6.433  0.00  0.00    -0.506 OA
ATOM     22  H   LIG    1       22.734 -24.568   7.307  0.00  0.00    +0.292 HD
ENDBRANCH  17  21
BRANCH  15  23
ATOM     23  O   LIG    1       24.661 -28.935   6.540  0.00  0.00    -0.492 OA
BRANCH  23  24
ATOM     24  C   LIG    1       25.455 -29.787   5.701  0.00  0.00    +0.232 C 
BRANCH  24  25
ATOM     25  C   LIG    1       25.297 -31.274   6.075  0.00  0.00    +0.026 C 
BRANCH  25  26
ATOM     26  C   LIG    1       24.797 -31.350   7.544  0.00  0.00    +0.003 C 
ATOM     27  C   LIG    1       25.620 -32.261   8.446  0.00  0.00    +0.004 C 
ENDBRANCH  25  26
BRANCH  25  28
ATOM     28  C   LIG    1       26.597 -32.083   5.899  0.00  0.00    +0.007 C 
BRANCH  28  29
ATOM     29  C   LIG    1       26.552 -33.296   4.964  0.00  0.00    +0.000 C 
BRANCH  29  31
ATOM     30  C   LIG    1       25.889 -32.985   2.506  0.00  0.00    +0.004 C 
ATOM     31  C   LIG    1       27.017 -33.048   3.526  0.00  0.00    -0.003 C 
ENDBRANCH  29  31
ENDBRANCH  28  29
ENDBRANCH  25  28
ENDBRANCH  24  25
ENDBRANCH  23  24
ENDBRANCH  15  23
ENDBRANCH   1  18
BRANCH   3  32
ATOM     32  C   LIG    1       24.417 -20.283   5.304  0.00  0.00    +0.061 A 
ATOM     33  C   LIG    1       24.714 -19.413   4.241  0.00  0.00    +0.131 A 
ATOM     34  C   LIG    1       23.782 -18.478   3.783  0.00  0.00    +0.091 A 
ATOM     35  C   LIG    1       22.518 -18.388   4.365  0.00  0.00    +0.124 A 
ATOM     36  C   LIG    1       22.192 -19.241   5.418  0.00  0.00    +0.046 A 
ATOM     37  C   LIG    1       23.133 -20.172   5.875  0.00  0.00    +0.019 A 
BRANCH  33  38
ATOM     38  O   LIG    1       25.933 -19.396   3.606  0.00  0.00    -0.506 OA
ATOM     39  H   LIG    1       26.529 -20.021   4.065  0.00  0.00    +0.292 HD
ENDBRANCH  33  38
BRANCH  35  40
ATOM     40  O   LIG    1       21.709 -17.401   3.871  0.00  0.00    -0.492 OA
BRANCH  40  41
ATOM     41  C   LIG    1       22.368 -16.233   3.370  0.00  0.00    +0.232 C 
BRANCH  41  42
ATOM     42  C   LIG    1       22.597 -15.233   4.524  0.00  0.00    +0.026 C 
BRANCH  42  43
ATOM     43  C   LIG    1       22.199 -15.854   5.881  0.00  0.00    +0.003 C 
ATOM     44  C   LIG    1       21.434 -14.910   6.804  0.00  0.00    +0.004 C 
ENDBRANCH  42  43
BRANCH  42  45
ATOM     45  C   LIG    1       24.044 -14.687   4.502  0.00  0.00    +0.007 C 
BRANCH  45  46
ATOM     46  C   LIG    1       24.313 -13.635   3.416  0.00  0.00    +0.000 C 
BRANCH  46  47
ATOM     47  C   LIG    1       25.647 -13.880   2.710  0.00  0.00    -0.003 C 
ATOM     48  C   LIG    1       26.526 -14.855   3.483  0.00  0.00    +0.004 C 
ENDBRANCH  46  47
ENDBRANCH  45  46
ENDBRANCH  42  45
ENDBRANCH  41  42
ENDBRANCH  40  41
ENDBRANCH  35  40
ENDBRANCH   3  32
TORSDOF 20
ENDMDL
MODEL 8
REMARK VINA RESULT:      -5.6      4.023     11.917
REMARK  Name = *****
REMARK                            x       y       z     vdW  Elec       q    Type
REMARK                         _______ _______ _______ _____ _____    ______ ____
ROOT
ATOM      1  C   LIG    1       25.502 -28.027   7.237  0.00  0.00    +0.168 A 
ATOM      2  N   LIG    1       25.430 -28.359   8.526  0.00  0.00    -0.208 NA
ATOM      3  C   LIG    1       25.533 -29.673   8.763  0.00  0.00    +0.168 A 
ATOM      4  N   LIG    1       25.766 -30.599   7.837  0.00  0.00    -0.208 NA
ATOM      5  C   LIG    1       25.863 -30.159   6.596  0.00  0.00    +0.164 A 
ATOM      6  N   LIG    1       25.727 -28.882   6.235  0.00  0.00    -0.208 NA
ENDROOT
BRANCH   5   7
ATOM      7  C   LIG    1       26.162 -31.142   5.542  0.00  0.00    +0.019 A 
ATOM      8  C   LIG    1       25.737 -30.926   4.219  0.00  0.00    +0.015 A 
ATOM      9  C   LIG    1       26.024 -31.845   3.205  0.00  0.00    +0.046 A 
ATOM     10  C   LIG    1       26.730 -33.009   3.487  0.00  0.00    +0.120 A 
ATOM     11  C   LIG    1       27.177 -33.239   4.787  0.00  0.00    +0.046 A 
ATOM     12  C   LIG    1       26.890 -32.318   5.805  0.00  0.00    +0.015 A 
BRANCH  10  13
ATOM     13  O   LIG    1       26.965 -33.824   2.416  0.00  0.00    -0.495 OA
ATOM     14  C   LIG    1       26.323 -33.444   1.203  0.00  0.00    +0.277 C 
ENDBRANCH  10  13
ENDBRANCH   5   7
BRANCH   1  18
ATOM     15  C   LIG    1       24.978 -23.890   6.098  0.00  0.00    +0.124 A 
ATOM     16  C   LIG    1       24.214 -24.894   5.525  0.00  0.00    +0.091 A 
ATOM     17  C   LIG    1       24.406 -26.221   5.880  0.00  0.00    +0.131 A 
ATOM     18  C   LIG    1       25.321 -26.609   6.874  0.00  0.00    +0.061 A 
ATOM     19  C   LIG    1       26.026 -25.565   7.513  0.00  0.00    +0.019 A 
ATOM     20  C   LIG    1       25.863 -24.223   7.122  0.00  0.00    +0.046 A 
BRANCH  17  21
ATOM     21  O   LIG    1       23.632 -27.097   5.156  0.00  0.00    -0.506 OA
ATOM     22  H   LIG    1       24.197 -27.852   4.909  0.00  0.00    +0.292 HD
ENDBRANCH  17  21
BRANCH  15  23
ATOM     23  O   LIG    1       24.874 -22.576   5.733  0.00  0.00    -0.492 OA
BRANCH  23  24
ATOM     24  C   LIG    1       24.746 -21.631   6.805  0.00  0.00    +0.232 C 
BRANCH  24  25
ATOM     25  C   LIG    1       25.631 -20.388   6.587  0.00  0.00    +0.026 C 
BRANCH  25  26
ATOM     26  C   LIG    1       26.044 -20.348   5.091  0.00  0.00    +0.003 C 
ATOM     27  C   LIG    1       25.033 -19.669   4.174  0.00  0.00    +0.004 C 
ENDBRANCH  25  26
BRANCH  25  28
ATOM     28  C   LIG    1       26.875 -20.365   7.498  0.00  0.00    +0.007 C 
BRANCH  28  29
ATOM     29  C   LIG    1       28.125 -21.099   7.002  0.00  0.00    +0.000 C 
BRANCH  29  31
ATOM     30  C   LIG    1       29.479 -19.094   6.154  0.00  0.00    +0.004 C 
ATOM     31  C   LIG    1       29.435 -20.308   7.070  0.00  0.00    -0.003 C 
ENDBRANCH  29  31
ENDBRANCH  28  29
ENDBRANCH  25  28
ENDBRANCH  24  25
ENDBRANCH  23  24
ENDBRANCH  15  23
ENDBRANCH   1  18
BRANCH   3  32
ATOM     32  C   LIG    1       25.356 -30.137  10.142  0.00  0.00    +0.061 A 
ATOM     33  C   LIG    1       25.865 -29.465  11.268  0.00  0.00    +0.131 A 
ATOM     34  C   LIG    1       25.687 -29.970  12.558  0.00  0.00    +0.091 A 
ATOM     35  C   LIG    1       24.986 -31.157  12.769  0.00  0.00    +0.124 A 
ATOM     36  C   LIG    1       24.466 -31.843  11.674  0.00  0.00    +0.046 A 
ATOM     37  C   LIG    1       24.652 -31.334  10.383  0.00  0.00    +0.019 A 
BRANCH  33  38
ATOM     38  O   LIG    1       26.589 -28.300  11.180  0.00  0.00    -0.506 OA
ATOM     39  H   LIG    1       26.316 -27.712  11.912  0.00  0.00    +0.292 HD
ENDBRANCH  33  38
BRANCH  35  40
ATOM     40  O   LIG    1       24.922 -31.583  14.069  0.00  0.00    -0.492 OA
BRANCH  40  41
ATOM     41  C   LIG    1       23.617 -31.636  14.654  0.00  0.00    +0.232 C 
BRANCH  41  42
ATOM     42  C   LIG    1       22.779 -30.436  14.158  0.00  0.00    +0.026 C 
BRANCH  42  43
ATOM     43  C   LIG    1       21.342 -30.876  13.801  0.00  0.00    +0.003 C 
ATOM     44  C   LIG    1       21.008 -30.783  12.316  0.00  0.00    +0.004 C 
ENDBRANCH  42  43
BRANCH  42  45
ATOM     45  C   LIG    1       22.827 -29.272  15.175  0.00  0.00    +0.007 C 
BRANCH  45  46
ATOM     46  C   LIG    1       23.723 -28.096  14.757  0.00  0.00    +0.000 C 
BRANCH  46  47
ATOM     47  C   LIG    1       23.267 -27.482  13.433  0.00  0.00    -0.003 C 
ATOM     48  C   LIG    1       21.788 -27.122  13.455  0.00  0.00    +0.004 C 
ENDBRANCH  46  47
ENDBRANCH  45  46
ENDBRANCH  42  45
ENDBRANCH  41  42
ENDBRANCH  40  41
ENDBRANCH  35  40
ENDBRANCH   3  32
TORSDOF 20
ENDMDL
MODEL 9
REMARK VINA RESULT:      -5.5      3.776     11.131
REMARK  Name = *****
REMARK                            x       y       z     vdW  Elec       q    Type
REMARK                         _______ _______ _______ _____ _____    ______ ____
ROOT
ATOM      1  C   LIG    1       25.465 -27.518   6.944  0.00  0.00    +0.168 A 
ATOM      2  N   LIG    1       25.750 -27.736   8.227  0.00  0.00    -0.208 NA
ATOM      3  C   LIG    1       25.855 -29.030   8.556  0.00  0.00    +0.168 A 
ATOM      4  N   LIG    1       25.770 -30.044   7.700  0.00  0.00    -0.208 NA
ATOM      5  C   LIG    1       25.528 -29.716   6.444  0.00  0.00    +0.164 A 
ATOM      6  N   LIG    1       25.354 -28.468   6.010  0.00  0.00    -0.208 NA
ENDROOT
BRANCH   5   7
ATOM      7  C   LIG    1       25.466 -30.803   5.453  0.00  0.00    +0.019 A 
ATOM      8  C   LIG    1       26.150 -30.696   4.229  0.00  0.00    +0.015 A 
ATOM      9  C   LIG    1       26.111 -31.724   3.283  0.00  0.00    +0.046 A 
ATOM     10  C   LIG    1       25.379 -32.881   3.529  0.00  0.00    +0.120 A 
ATOM     11  C   LIG    1       24.706 -33.020   4.741  0.00  0.00    +0.046 A 
ATOM     12  C   LIG    1       24.745 -31.989   5.691  0.00  0.00    +0.015 A 
BRANCH  10  13
ATOM     13  O   LIG    1       25.426 -33.823   2.540  0.00  0.00    -0.495 OA
ATOM     14  C   LIG    1       26.572 -33.771   1.696  0.00  0.00    +0.277 C 
ENDBRANCH  10  13
ENDBRANCH   5   7
BRANCH   1  18
ATOM     15  C   LIG    1       24.859 -23.460   5.585  0.00  0.00    +0.124 A 
ATOM     16  C   LIG    1       24.173 -24.518   5.013  0.00  0.00    +0.091 A 
ATOM     17  C   LIG    1       24.391 -25.819   5.439  0.00  0.00    +0.131 A 
ATOM     18  C   LIG    1       25.255 -26.126   6.505  0.00  0.00    +0.061 A 
ATOM     19  C   LIG    1       25.877 -25.027   7.139  0.00  0.00    +0.019 A 
ATOM     20  C   LIG    1       25.688 -23.711   6.677  0.00  0.00    +0.046 A 
BRANCH  17  21
ATOM     21  O   LIG    1       23.700 -26.756   4.709  0.00  0.00    -0.506 OA
ATOM     22  H   LIG    1       22.972 -26.294   4.255  0.00  0.00    +0.292 HD
ENDBRANCH  17  21
BRANCH  15  23
ATOM     23  O   LIG    1       24.729 -22.168   5.155  0.00  0.00    -0.492 OA
BRANCH  23  24
ATOM     24  C   LIG    1       24.563 -21.174   6.178  0.00  0.00    +0.232 C 
BRANCH  24  25
ATOM     25  C   LIG    1       25.600 -20.040   6.053  0.00  0.00    +0.026 C 
BRANCH  25  26
ATOM     26  C   LIG    1       25.908 -19.834   4.545  0.00  0.00    +0.003 C 
ATOM     27  C   LIG    1       24.738 -19.297   3.729  0.00  0.00    +0.004 C 
ENDBRANCH  25  26
BRANCH  25  28
ATOM     28  C   LIG    1       26.895 -20.316   6.842  0.00  0.00    +0.007 C 
BRANCH  28  29
ATOM     29  C   LIG    1       28.224 -19.993   6.151  0.00  0.00    +0.000 C 
BRANCH  29  31
ATOM     30  C   LIG    1       29.817 -20.563   8.078  0.00  0.00    +0.004 C 
ATOM     31  C   LIG    1       29.436 -20.801   6.624  0.00  0.00    -0.003 C 
ENDBRANCH  29  31
ENDBRANCH  28  29
ENDBRANCH  25  28
ENDBRANCH  24  25
ENDBRANCH  23  24
ENDBRANCH  15  23
ENDBRANCH   1  18
BRANCH   3  32
ATOM     32  C   LIG    1       26.059 -29.363   9.970  0.00  0.00    +0.061 A 
ATOM     33  C   LIG    1       25.132 -30.078  10.749  0.00  0.00    +0.131 A 
ATOM     34  C   LIG    1       25.369 -30.343  12.100  0.00  0.00    +0.091 A 
ATOM     35  C   LIG    1       26.545 -29.914  12.716  0.00  0.00    +0.124 A 
ATOM     36  C   LIG    1       27.485 -29.208  11.968  0.00  0.00    +0.046 A 
ATOM     37  C   LIG    1       27.238 -28.941  10.615  0.00  0.00    +0.019 A 
BRANCH  33  38
ATOM     38  O   LIG    1       23.931 -30.531  10.257  0.00  0.00    -0.506 OA
ATOM     39  H   LIG    1       24.104 -31.311   9.694  0.00  0.00    +0.292 HD
ENDBRANCH  33  38
BRANCH  35  40
ATOM     40  O   LIG    1       26.645 -30.183  14.054  0.00  0.00    -0.492 OA
BRANCH  40  41
ATOM     41  C   LIG    1       25.526 -29.801  14.862  0.00  0.00    +0.232 C 
BRANCH  41  42
ATOM     42  C   LIG    1       25.792 -28.417  15.493  0.00  0.00    +0.026 C 
BRANCH  42  43
ATOM     43  C   LIG    1       27.210 -27.914  15.145  0.00  0.00    +0.003 C 
ATOM     44  C   LIG    1       27.316 -26.402  14.971  0.00  0.00    +0.004 C 
ENDBRANCH  42  43
BRANCH  42  45
ATOM     45  C   LIG    1       24.678 -27.414  15.113  0.00  0.00    +0.007 C 
BRANCH  45  46
ATOM     46  C   LIG    1       24.394 -27.317  13.607  0.00  0.00    +0.000 C 
BRANCH  46  47
ATOM     47  C   LIG    1       22.952 -26.887  13.329  0.00  0.00    -0.003 C 
ATOM     48  C   LIG    1       22.099 -28.051  12.844  0.00  0.00    +0.004 C 
ENDBRANCH  46  47
ENDBRANCH  45  46
ENDBRANCH  42  45
ENDBRANCH  41  42
ENDBRANCH  40  41
ENDBRANCH  35  40
ENDBRANCH   3  32
TORSDOF 20
ENDMDL
