MODEL 1
REMARK VINA RESULT:      -3.7      0.000      0.000
REMARK  Name = *****
REMARK                            x       y       z     vdW  Elec       q    Type
REMARK                         _______ _______ _______ _____ _____    ______ ____
ROOT
ATOM      1  C   LIG    1       24.630 -13.341   3.370  0.00  0.00    +0.175 C 
ENDROOT
BRANCH   1   3
ATOM      2  O   LIG    1       23.506 -11.450   4.406  0.00  0.00    -0.250 OA
ATOM      3  C   LIG    1       23.864 -12.020   3.384  0.00  0.00    +0.319 C 
BRANCH   3   4
ATOM      4  O   LIG    1       23.700 -11.449   2.166  0.00  0.00    -0.480 OA
ATOM      5  H   LIG    1       23.764 -12.104   1.438  0.00  0.00    +0.295 HD
ENDBRANCH   3   4
ENDBRANCH   1   3
BRANCH   1   6
ATOM      6  S   LIG    1       23.759 -14.599   4.414  0.00  0.00    -0.162 S 
ATOM      7  H   LIG    1       22.547 -14.439   3.836  0.00  0.00    +0.102 HD
ENDBRANCH   1   6
BRANCH   1   8
ATOM      8  C   LIG    1       26.117 -13.214   3.748  0.00  0.00    +0.175 C 
BRANCH   8   9
ATOM      9  C   LIG    1       27.023 -14.176   2.990  0.00  0.00    +0.319 C 
ATOM     10  O   LIG    1       26.894 -14.462   1.812  0.00  0.00    -0.250 OA
BRANCH   9  11
ATOM     11  O   LIG    1       28.074 -14.619   3.726  0.00  0.00    -0.480 OA
ATOM     12  H   LIG    1       28.536 -15.380   3.314  0.00  0.00    +0.295 HD
ENDBRANCH   9  11
ENDBRANCH   8   9
BRANCH   8  13
ATOM     13  S   LIG    1       26.450 -13.370   5.551  0.00  0.00    -0.162 S 
ATOM     14  H   LIG    1       27.031 -14.589   5.476  0.00  0.00    +0.102 HD
ENDBRANCH   8  13
ENDBRANCH   1   8
TORSDOF 7
ENDMDL
MODEL 2
REMARK VINA RESULT:      -3.7      0.383      4.106
REMARK  Name = *****
REMARK                            x       y       z     vdW  Elec       q    Type
REMARK                         _______ _______ _______ _____ _____    ______ ____
ROOT
ATOM      1  C   LIG    1       26.181 -13.039   3.764  0.00  0.00    +0.175 C 
ENDROOT
BRANCH   1   3
ATOM      2  O   LIG    1       26.863 -14.420   1.881  0.00  0.00    -0.250 OA
ATOM      3  C   LIG    1       27.173 -13.812   2.897  0.00  0.00    +0.319 C 
BRANCH   3   4
ATOM      4  O   LIG    1       28.469 -13.685   3.273  0.00  0.00    -0.480 OA
ATOM      5  H   LIG    1       28.569 -13.142   4.084  0.00  0.00    +0.295 HD
ENDBRANCH   3   4
ENDBRANCH   1   3
BRANCH   1   6
ATOM      6  S   LIG    1       26.499 -13.377   5.557  0.00  0.00    -0.162 S 
ATOM      7  H   LIG    1       26.763 -14.695   5.402  0.00  0.00    +0.102 HD
ENDBRANCH   1   6
BRANCH   1   8
ATOM      8  C   LIG    1       24.705 -13.266   3.392  0.00  0.00    +0.175 C 
BRANCH   8   9
ATOM      9  C   LIG    1       23.867 -11.994   3.416  0.00  0.00    +0.319 C 
ATOM     10  O   LIG    1       23.471 -11.448   4.432  0.00  0.00    -0.250 OA
BRANCH   9  11
ATOM     11  O   LIG    1       23.682 -11.447   2.188  0.00  0.00    -0.480 OA
ATOM     12  H   LIG    1       24.449 -11.575   1.591  0.00  0.00    +0.295 HD
ENDBRANCH   9  11
ENDBRANCH   8   9
BRANCH   8  13
ATOM     13  S   LIG    1       23.865 -14.556   4.401  0.00  0.00    -0.162 S 
ATOM     14  H   LIG    1       23.297 -13.694   5.276  0.00  0.00    +0.102 HD
ENDBRANCH   8  13
ENDBRANCH   1   8
TORSDOF 7
ENDMDL
MODEL 3
REMARK VINA RESULT:      -3.6      6.395      7.879
REMARK  Name = *****
REMARK                            x       y       z     vdW  Elec       q    Type
REMARK                         _______ _______ _______ _____ _____    ______ ____
ROOT
ATOM      1  C   LIG    1       25.798 -20.253   5.889  0.00  0.00    +0.175 C 
ENDROOT
BRANCH   1   3
ATOM      2  O   LIG    1       27.788 -21.014   7.061  0.00  0.00    -0.250 OA
ATOM      3  C   LIG    1       27.299 -20.422   6.108  0.00  0.00    +0.319 C 
BRANCH   3   4
ATOM      4  O   LIG    1       28.073 -19.962   5.095  0.00  0.00    -0.480 OA
ATOM      5  H   LIG    1       28.971 -19.707   5.400  0.00  0.00    +0.295 HD
ENDBRANCH   3   4
ENDBRANCH   1   3
BRANCH   1   6
ATOM      6  S   LIG    1       24.855 -21.383   7.014  0.00  0.00    -0.162 S 
ATOM      7  H   LIG    1       24.137 -20.407   7.616  0.00  0.00    +0.102 HD
ENDBRANCH   1   6
BRANCH   1   8
ATOM      8  C   LIG    1       25.351 -20.402   4.423  0.00  0.00    +0.175 C 
BRANCH   8   9
ATOM      9  C   LIG    1       25.016 -19.078   3.750  0.00  0.00    +0.319 C 
ATOM     10  O   LIG    1       23.886 -18.644   3.607  0.00  0.00    -0.250 OA
BRANCH   9  11
ATOM     11  O   LIG    1       26.112 -18.354   3.407  0.00  0.00    -0.480 OA
ATOM     12  H   LIG    1       25.890 -17.463   3.062  0.00  0.00    +0.295 HD
ENDBRANCH   9  11
ENDBRANCH   8   9
BRANCH   8  13
ATOM     13  S   LIG    1       23.951 -21.571   4.179  0.00  0.00    -0.162 S 
ATOM     14  H   LIG    1       23.149 -20.689   3.538  0.00  0.00    +0.102 HD
ENDBRANCH   8  13
ENDBRANCH   1   8
TORSDOF 7
ENDMDL
MODEL 4
REMARK VINA RESULT:      -3.5      7.136      7.796
REMARK  Name = *****
REMARK                            x       y       z     vdW  Elec       q    Type
REMARK                         _______ _______ _______ _____ _____    ______ ____
ROOT
ATOM      1  C   LIG    1       23.488 -19.839   5.323  0.00  0.00    +0.175 C 
ENDROOT
BRANCH   1   3
ATOM      2  O   LIG    1       22.826 -21.571   6.897  0.00  0.00    -0.250 OA
ATOM      3  C   LIG    1       22.734 -21.087   5.777  0.00  0.00    +0.319 C 
BRANCH   3   4
ATOM      4  O   LIG    1       21.848 -21.572   4.872  0.00  0.00    -0.480 OA
ATOM      5  H   LIG    1       21.776 -20.997   4.080  0.00  0.00    +0.295 HD
ENDBRANCH   3   4
ENDBRANCH   1   3
BRANCH   1   6
ATOM      6  S   LIG    1       22.335 -18.672   4.462  0.00  0.00    -0.162 S 
ATOM      7  H   LIG    1       21.221 -19.415   4.655  0.00  0.00    +0.102 HD
ENDBRANCH   1   6
BRANCH   1   8
ATOM      8  C   LIG    1       24.743 -20.129   4.480  0.00  0.00    +0.175 C 
BRANCH   8   9
ATOM      9  C   LIG    1       25.966 -20.493   5.312  0.00  0.00    +0.319 C 
ATOM     10  O   LIG    1       25.944 -21.226   6.286  0.00  0.00    -0.250 OA
BRANCH   9  11
ATOM     11  O   LIG    1       27.127 -20.006   4.806  0.00  0.00    -0.480 OA
ATOM     12  H   LIG    1       27.125 -19.030   4.712  0.00  0.00    +0.295 HD
ENDBRANCH   9  11
ENDBRANCH   8   9
BRANCH   8  13
ATOM     13  S   LIG    1       25.192 -18.779   3.311  0.00  0.00    -0.162 S 
ATOM     14  H   LIG    1       23.972 -18.194   3.306  0.00  0.00    +0.102 HD
ENDBRANCH   8  13
ENDBRANCH   1   8
TORSDOF 7
ENDMDL
MODEL 5
REMARK VINA RESULT:      -3.4      2.236      4.190
REMARK  Name = *****
REMARK                            x       y       z     vdW  Elec       q    Type
REMARK                         _______ _______ _______ _____ _____    ______ ____
ROOT
ATOM      1  C   LIG    1       27.130 -13.824   2.948  0.00  0.00    +0.175 C 
ENDROOT
BRANCH   1   3
ATOM      2  O   LIG    1       26.138 -16.045   2.971  0.00  0.00    -0.250 OA
ATOM      3  C   LIG    1       26.992 -15.278   3.396  0.00  0.00    +0.319 C 
BRANCH   3   4
ATOM      4  O   LIG    1       27.971 -15.707   4.229  0.00  0.00    -0.480 OA
ATOM      5  H   LIG    1       28.826 -15.833   3.764  0.00  0.00    +0.295 HD
ENDBRANCH   3   4
ENDBRANCH   1   3
BRANCH   1   6
ATOM      6  S   LIG    1       28.669 -13.078   3.660  0.00  0.00    -0.162 S 
ATOM      7  H   LIG    1       28.117 -11.877   3.948  0.00  0.00    +0.102 HD
ENDBRANCH   1   6
BRANCH   1   8
ATOM      8  C   LIG    1       25.891 -12.956   3.228  0.00  0.00    +0.175 C 
BRANCH   8   9
ATOM      9  C   LIG    1       25.182 -13.306   4.531  0.00  0.00    +0.319 C 
ATOM     10  O   LIG    1       24.123 -13.906   4.600  0.00  0.00    -0.250 OA
BRANCH   9  11
ATOM     11  O   LIG    1       25.895 -12.978   5.638  0.00  0.00    -0.480 OA
ATOM     12  H   LIG    1       25.330 -12.796   6.418  0.00  0.00    +0.295 HD
ENDBRANCH   9  11
ENDBRANCH   8   9
BRANCH   8  13
ATOM     13  S   LIG    1       24.659 -12.940   1.860  0.00  0.00    -0.162 S 
ATOM     14  H   LIG    1       25.255 -13.912   1.131  0.00  0.00    +0.102 HD
ENDBRANCH   8  13
ENDBRANCH   1   8
TORSDOF 7
ENDMDL
MODEL 6
REMARK VINA RESULT:      -3.4      2.229      2.441
REMARK  Name = *****
REMARK                            x       y       z     vdW  Elec       q    Type
REMARK                         _______ _______ _______ _____ _____    ______ ____
ROOT
ATOM      1  C   LIG    1       25.867 -12.939   3.231  0.00  0.00    +0.175 C 
ENDROOT
BRANCH   1   3
ATOM      2  O   LIG    1       24.101 -13.876   4.616  0.00  0.00    -0.250 OA
ATOM      3  C   LIG    1       25.166 -13.277   4.545  0.00  0.00    +0.319 C 
BRANCH   3   4
ATOM      4  O   LIG    1       25.872 -12.964   5.659  0.00  0.00    -0.480 OA
ATOM      5  H   LIG    1       25.989 -11.995   5.763  0.00  0.00    +0.295 HD
ENDBRANCH   3   4
ENDBRANCH   1   3
BRANCH   1   6
ATOM      6  S   LIG    1       24.657 -12.989   1.828  0.00  0.00    -0.162 S 
ATOM      7  H   LIG    1       23.750 -12.165   2.402  0.00  0.00    +0.102 HD
ENDBRANCH   1   6
BRANCH   1   8
ATOM      8  C   LIG    1       27.115 -13.792   2.941  0.00  0.00    +0.175 C 
BRANCH   8   9
ATOM      9  C   LIG    1       26.980 -15.242   3.389  0.00  0.00    +0.319 C 
ATOM     10  O   LIG    1       26.135 -16.016   2.972  0.00  0.00    -0.250 OA
BRANCH   9  11
ATOM     11  O   LIG    1       27.966 -15.640   4.232  0.00  0.00    -0.480 OA
ATOM     12  H   LIG    1       28.438 -16.440   3.918  0.00  0.00    +0.295 HD
ENDBRANCH   9  11
ENDBRANCH   8   9
BRANCH   8  13
ATOM     13  S   LIG    1       28.676 -13.096   3.624  0.00  0.00    -0.162 S 
ATOM     14  H   LIG    1       29.482 -14.068   3.137  0.00  0.00    +0.102 HD
ENDBRANCH   8  13
ENDBRANCH   1   8
TORSDOF 7
ENDMDL
MODEL 7
REMARK VINA RESULT:      -3.3      7.142      8.370
REMARK  Name = *****
REMARK                            x       y       z     vdW  Elec       q    Type
REMARK                         _______ _______ _______ _____ _____    ______ ____
ROOT
ATOM      1  C   LIG    1       24.751 -20.086   4.397  0.00  0.00    +0.175 C 
ENDROOT
BRANCH   1   3
ATOM      2  O   LIG    1       25.860 -21.537   6.004  0.00  0.00    -0.250 OA
ATOM      3  C   LIG    1       25.941 -20.635   5.181  0.00  0.00    +0.319 C 
BRANCH   3   4
ATOM      4  O   LIG    1       27.143 -20.125   4.814  0.00  0.00    -0.480 OA
ATOM      5  H   LIG    1       27.618 -20.711   4.186  0.00  0.00    +0.295 HD
ENDBRANCH   3   4
ENDBRANCH   1   3
BRANCH   1   6
ATOM      6  S   LIG    1       25.269 -18.619   3.391  0.00  0.00    -0.162 S 
ATOM      7  H   LIG    1       26.143 -18.132   4.301  0.00  0.00    +0.102 HD
ENDBRANCH   1   6
BRANCH   1   8
ATOM      8  C   LIG    1       23.513 -19.780   5.259  0.00  0.00    +0.175 C 
BRANCH   8   9
ATOM      9  C   LIG    1       22.782 -21.026   5.740  0.00  0.00    +0.319 C 
ATOM     10  O   LIG    1       22.831 -21.458   6.879  0.00  0.00    -0.250 OA
BRANCH   9  11
ATOM     11  O   LIG    1       21.969 -21.572   4.800  0.00  0.00    -0.480 OA
ATOM     12  H   LIG    1       21.309 -20.937   4.449  0.00  0.00    +0.295 HD
ENDBRANCH   9  11
ENDBRANCH   8   9
BRANCH   8  13
ATOM     13  S   LIG    1       22.304 -18.645   4.461  0.00  0.00    -0.162 S 
ATOM     14  H   LIG    1       22.944 -18.580   3.270  0.00  0.00    +0.102 HD
ENDBRANCH   8  13
ENDBRANCH   1   8
TORSDOF 7
ENDMDL
MODEL 8
REMARK VINA RESULT:      -3.3      7.086      7.542
REMARK  Name = *****
REMARK                            x       y       z     vdW  Elec       q    Type
REMARK                         _______ _______ _______ _____ _____    ______ ____
ROOT
ATOM      1  C   LIG    1       23.747 -20.997   5.296  0.00  0.00    +0.175 C 
ENDROOT
BRANCH   1   3
ATOM      2  O   LIG    1       22.073 -19.369   4.615  0.00  0.00    -0.250 OA
ATOM      3  C   LIG    1       22.348 -20.526   4.906  0.00  0.00    +0.319 C 
BRANCH   3   4
ATOM      4  O   LIG    1       21.431 -21.517   4.788  0.00  0.00    -0.480 OA
ATOM      5  H   LIG    1       21.820 -22.341   4.426  0.00  0.00    +0.295 HD
ENDBRANCH   3   4
ENDBRANCH   1   3
BRANCH   1   6
ATOM      6  S   LIG    1       23.764 -21.558   7.062  0.00  0.00    -0.162 S 
ATOM      7  H   LIG    1       24.811 -22.403   6.926  0.00  0.00    +0.102 HD
ENDBRANCH   1   6
BRANCH   1   8
ATOM      8  C   LIG    1       24.862 -19.975   5.010  0.00  0.00    +0.175 C 
BRANCH   8   9
ATOM      9  C   LIG    1       25.085 -19.716   3.525  0.00  0.00    +0.319 C 
ATOM     10  O   LIG    1       24.633 -20.408   2.629  0.00  0.00    -0.250 OA
BRANCH   9  11
ATOM     11  O   LIG    1       25.759 -18.565   3.274  0.00  0.00    -0.480 OA
ATOM     12  H   LIG    1       26.022 -18.089   4.090  0.00  0.00    +0.295 HD
ENDBRANCH   9  11
ENDBRANCH   8   9
BRANCH   8  13
ATOM     13  S   LIG    1       26.475 -20.383   5.797  0.00  0.00    -0.162 S 
ATOM     14  H   LIG    1       27.213 -20.249   4.671  0.00  0.00    +0.102 HD
ENDBRANCH   8  13
ENDBRANCH   1   8
TORSDOF 7
ENDMDL
MODEL 9
REMARK VINA RESULT:      -3.3      7.001      8.007
REMARK  Name = *****
REMARK                            x       y       z     vdW  Elec       q    Type
REMARK                         _______ _______ _______ _____ _____    ______ ____
ROOT
ATOM      1  C   LIG    1       24.933 -19.922   5.100  0.00  0.00    +0.175 C 
ENDROOT
BRANCH   1   3
ATOM      2  O   LIG    1       25.068 -20.503   2.742  0.00  0.00    -0.250 OA
ATOM      3  C   LIG    1       25.256 -19.679   3.627  0.00  0.00    +0.319 C 
BRANCH   3   4
ATOM      4  O   LIG    1       25.668 -18.420   3.340  0.00  0.00    -0.480 OA
ATOM      5  H   LIG    1       26.307 -18.079   4.003  0.00  0.00    +0.295 HD
ENDBRANCH   3   4
ENDBRANCH   1   3
BRANCH   1   6
ATOM      6  S   LIG    1       26.460 -20.440   6.013  0.00  0.00    -0.162 S 
ATOM      7  H   LIG    1       27.240 -20.561   4.915  0.00  0.00    +0.102 HD
ENDBRANCH   1   6
BRANCH   1   8
ATOM      8  C   LIG    1       23.765 -20.895   5.340  0.00  0.00    +0.175 C 
BRANCH   8   9
ATOM      9  C   LIG    1       22.404 -20.317   4.974  0.00  0.00    +0.319 C 
ATOM     10  O   LIG    1       22.178 -19.128   4.825  0.00  0.00    -0.250 OA
BRANCH   9  11
ATOM     11  O   LIG    1       21.466 -21.264   4.719  0.00  0.00    -0.480 OA
ATOM     12  H   LIG    1       21.804 -21.997   4.161  0.00  0.00    +0.295 HD
ENDBRANCH   9  11
ENDBRANCH   8   9
BRANCH   8  13
ATOM     13  S   LIG    1       23.689 -21.571   7.050  0.00  0.00    -0.162 S 
ATOM     14  H   LIG    1       24.633 -20.748   7.563  0.00  0.00    +0.102 HD
ENDBRANCH   8  13
ENDBRANCH   1   8
TORSDOF 7
ENDMDL
