MODEL 1
REMARK VINA RESULT:      -3.7      0.000      0.000
REMARK  Name = *****
REMARK                            x       y       z     vdW  Elec       q    Type
REMARK                         _______ _______ _______ _____ _____    ______ ____
ROOT
ATOM      1  CA  SER A  1       27.599 -14.207   4.102  0.00  0.00    +0.186 C 
ENDROOT
BRANCH   1   2
ATOM      2  N   SER A  1       28.441 -13.205   3.392  0.00  0.00    -0.317 NA
ATOM      3  H1  SER A  1       28.004 -12.285   3.522  0.00  0.00    +0.119 HD
ATOM      4  H2  SER A  1       29.325 -13.116   3.901  0.00  0.00    +0.119 HD
ENDBRANCH   1   2
BRANCH   1   5
ATOM      5  C   SER A  1       26.611 -13.520   5.044  0.00  0.00    +0.324 C 
ATOM      6  O   SER A  1       25.508 -13.121   4.702  0.00  0.00    -0.249 OA
BRANCH   5   7
ATOM      7  OXT SER A  1       27.061 -13.397   6.314  0.00  0.00    -0.479 OA
ATOM      8  HXT SER A  1       26.399 -13.584   7.008  0.00  0.00    +0.295 HD
ENDBRANCH   5   7
ENDBRANCH   1   5
BRANCH   1   9
ATOM      9  CB  SER A  1       26.811 -15.037   3.087  0.00  0.00    +0.185 C 
BRANCH   9  10
ATOM     10  OG  SER A  1       26.511 -14.247   1.938  0.00  0.00    -0.393 OA
ATOM     11  H   SER A  1       27.279 -13.649   1.825  0.00  0.00    +0.209 HD
ENDBRANCH   9  10
ENDBRANCH   1   9
TORSDOF 5
ENDMDL
MODEL 2
REMARK VINA RESULT:      -3.7      1.799      3.006
REMARK  Name = *****
REMARK                            x       y       z     vdW  Elec       q    Type
REMARK                         _______ _______ _______ _____ _____    ______ ____
ROOT
ATOM      1  CA  SER A  1       27.545 -13.712   4.252  0.00  0.00    +0.186 C 
ENDROOT
BRANCH   1   2
ATOM      2  N   SER A  1       26.942 -13.263   5.537  0.00  0.00    -0.317 NA
ATOM      3  H1  SER A  1       26.892 -14.079   6.158  0.00  0.00    +0.119 HD
ATOM      4  H2  SER A  1       27.616 -12.653   6.008  0.00  0.00    +0.119 HD
ENDBRANCH   1   2
BRANCH   1   5
ATOM      5  C   SER A  1       26.544 -13.586   3.104  0.00  0.00    +0.324 C 
ATOM      6  O   SER A  1       25.453 -13.045   3.208  0.00  0.00    -0.249 OA
BRANCH   5   7
ATOM      7  OXT SER A  1       26.975 -14.125   1.941  0.00  0.00    -0.479 OA
ATOM      8  HXT SER A  1       26.294 -14.207   1.245  0.00  0.00    +0.295 HD
ENDBRANCH   5   7
ENDBRANCH   1   5
BRANCH   1   9
ATOM      9  CB  SER A  1       28.772 -12.857   3.926  0.00  0.00    +0.185 C 
BRANCH   9  10
ATOM     10  OG  SER A  1       29.076 -12.001   5.026  0.00  0.00    -0.393 OA
ATOM     11  H   SER A  1       28.672 -12.429   5.809  0.00  0.00    +0.209 HD
ENDBRANCH   9  10
ENDBRANCH   1   9
TORSDOF 5
ENDMDL
MODEL 3
REMARK VINA RESULT:      -3.6      1.985      2.373
REMARK  Name = *****
REMARK                            x       y       z     vdW  Elec       q    Type
REMARK                         _______ _______ _______ _____ _____    ______ ____
ROOT
ATOM      1  CA  SER A  1       27.263 -13.890   4.176  0.00  0.00    +0.186 C 
ENDROOT
BRANCH   1   2
ATOM      2  N   SER A  1       27.634 -15.324   4.020  0.00  0.00    -0.317 NA
ATOM      3  H1  SER A  1       27.903 -15.677   4.946  0.00  0.00    +0.119 HD
ATOM      4  H2  SER A  1       26.782 -15.851   3.809  0.00  0.00    +0.119 HD
ENDBRANCH   1   2
BRANCH   1   5
ATOM      5  C   SER A  1       28.507 -13.005   4.220  0.00  0.00    +0.324 C 
ATOM      6  O   SER A  1       28.707 -12.152   5.072  0.00  0.00    -0.249 OA
BRANCH   5   7
ATOM      7  OXT SER A  1       29.390 -13.254   3.225  0.00  0.00    -0.479 OA
ATOM      8  HXT SER A  1       29.950 -12.494   2.970  0.00  0.00    +0.295 HD
ENDBRANCH   5   7
ENDBRANCH   1   5
BRANCH   1   9
ATOM      9  CB  SER A  1       26.389 -13.449   3.000  0.00  0.00    +0.185 C 
BRANCH   9  10
ATOM     10  OG  SER A  1       26.786 -14.132   1.813  0.00  0.00    -0.393 OA
ATOM     11  H   SER A  1       27.194 -13.448   1.243  0.00  0.00    +0.209 HD
ENDBRANCH   9  10
ENDBRANCH   1   9
TORSDOF 5
ENDMDL
MODEL 4
REMARK VINA RESULT:      -3.6      2.154      2.796
REMARK  Name = *****
REMARK                            x       y       z     vdW  Elec       q    Type
REMARK                         _______ _______ _______ _____ _____    ______ ____
ROOT
ATOM      1  CA  SER A  1       25.902 -13.259   3.904  0.00  0.00    +0.186 C 
ENDROOT
BRANCH   1   2
ATOM      2  N   SER A  1       26.429 -13.568   5.262  0.00  0.00    -0.317 NA
ATOM      3  H1  SER A  1       25.666 -13.993   5.801  0.00  0.00    +0.119 HD
ATOM      4  H2  SER A  1       27.105 -14.332   5.174  0.00  0.00    +0.119 HD
ENDBRANCH   1   2
BRANCH   1   5
ATOM      5  C   SER A  1       26.875 -13.724   2.821  0.00  0.00    +0.324 C 
ATOM      6  O   SER A  1       26.538 -14.338   1.820  0.00  0.00    -0.249 OA
BRANCH   5   7
ATOM      7  OXT SER A  1       28.163 -13.386   3.061  0.00  0.00    -0.479 OA
ATOM      8  HXT SER A  1       28.376 -12.442   2.920  0.00  0.00    +0.295 HD
ENDBRANCH   5   7
ENDBRANCH   1   5
BRANCH   1   9
ATOM      9  CB  SER A  1       24.561 -13.966   3.694  0.00  0.00    +0.185 C 
BRANCH   9  10
ATOM     10  OG  SER A  1       23.791 -13.272   2.714  0.00  0.00    -0.393 OA
ATOM     11  H   SER A  1       24.411 -13.091   1.977  0.00  0.00    +0.209 HD
ENDBRANCH   9  10
ENDBRANCH   1   9
TORSDOF 5
ENDMDL
MODEL 5
REMARK VINA RESULT:      -3.5      1.125      2.692
REMARK  Name = *****
REMARK                            x       y       z     vdW  Elec       q    Type
REMARK                         _______ _______ _______ _____ _____    ______ ____
ROOT
ATOM      1  CA  SER A  1       27.763 -13.228   3.656  0.00  0.00    +0.186 C 
ENDROOT
BRANCH   1   2
ATOM      2  N   SER A  1       29.223 -13.270   3.369  0.00  0.00    -0.317 NA
ATOM      3  H1  SER A  1       29.677 -12.571   3.970  0.00  0.00    +0.119 HD
ATOM      4  H2  SER A  1       29.592 -14.156   3.725  0.00  0.00    +0.119 HD
ENDBRANCH   1   2
BRANCH   1   5
ATOM      5  C   SER A  1       27.030 -14.352   2.926  0.00  0.00    +0.324 C 
ATOM      6  O   SER A  1       26.540 -14.235   1.812  0.00  0.00    -0.249 OA
BRANCH   5   7
ATOM      7  OXT SER A  1       26.975 -15.511   3.621  0.00  0.00    -0.479 OA
ATOM      8  HXT SER A  1       27.633 -15.595   4.339  0.00  0.00    +0.295 HD
ENDBRANCH   5   7
ENDBRANCH   1   5
BRANCH   1   9
ATOM      9  CB  SER A  1       27.524 -13.384   5.160  0.00  0.00    +0.185 C 
BRANCH   9  10
ATOM     10  OG  SER A  1       26.143 -13.191   5.458  0.00  0.00    -0.393 OA
ATOM     11  H   SER A  1       25.811 -14.070   5.735  0.00  0.00    +0.209 HD
ENDBRANCH   9  10
ENDBRANCH   1   9
TORSDOF 5
ENDMDL
MODEL 6
REMARK VINA RESULT:      -3.5      1.725      2.094
REMARK  Name = *****
REMARK                            x       y       z     vdW  Elec       q    Type
REMARK                         _______ _______ _______ _____ _____    ______ ____
ROOT
ATOM      1  CA  SER A  1       27.032 -13.337   3.299  0.00  0.00    +0.186 C 
ENDROOT
BRANCH   1   2
ATOM      2  N   SER A  1       26.677 -14.193   2.134  0.00  0.00    -0.317 NA
ATOM      3  H1  SER A  1       27.401 -14.059   1.418  0.00  0.00    +0.119 HD
ATOM      4  H2  SER A  1       26.801 -15.171   2.409  0.00  0.00    +0.119 HD
ENDBRANCH   1   2
BRANCH   1   5
ATOM      5  C   SER A  1       26.152 -13.663   4.505  0.00  0.00    +0.324 C 
ATOM      6  O   SER A  1       25.058 -14.200   4.425  0.00  0.00    -0.249 OA
BRANCH   5   7
ATOM      7  OXT SER A  1       26.699 -13.310   5.691  0.00  0.00    -0.479 OA
ATOM      8  HXT SER A  1       27.368 -13.931   6.039  0.00  0.00    +0.295 HD
ENDBRANCH   5   7
ENDBRANCH   1   5
BRANCH   1   9
ATOM      9  CB  SER A  1       28.495 -13.565   3.684  0.00  0.00    +0.185 C 
BRANCH   9  10
ATOM     10  OG  SER A  1       29.004 -12.421   4.367  0.00  0.00    -0.393 OA
ATOM     11  H   SER A  1       28.919 -11.679   3.733  0.00  0.00    +0.209 HD
ENDBRANCH   9  10
ENDBRANCH   1   9
TORSDOF 5
ENDMDL
MODEL 7
REMARK VINA RESULT:      -3.5      1.986      2.960
REMARK  Name = *****
REMARK                            x       y       z     vdW  Elec       q    Type
REMARK                         _______ _______ _______ _____ _____    ______ ____
ROOT
ATOM      1  CA  SER A  1       26.187 -13.420   3.192  0.00  0.00    +0.186 C 
ENDROOT
BRANCH   1   2
ATOM      2  N   SER A  1       26.705 -14.108   1.977  0.00  0.00    -0.317 NA
ATOM      3  H1  SER A  1       27.692 -13.846   1.870  0.00  0.00    +0.119 HD
ATOM      4  H2  SER A  1       26.751 -15.111   2.176  0.00  0.00    +0.119 HD
ENDBRANCH   1   2
BRANCH   1   5
ATOM      5  C   SER A  1       24.697 -13.698   3.384  0.00  0.00    +0.324 C 
ATOM      6  O   SER A  1       24.249 -14.442   4.244  0.00  0.00    -0.249 OA
BRANCH   5   7
ATOM      7  OXT SER A  1       23.900 -13.035   2.516  0.00  0.00    -0.479 OA
ATOM      8  HXT SER A  1       23.521 -12.201   2.856  0.00  0.00    +0.295 HD
ENDBRANCH   5   7
ENDBRANCH   1   5
BRANCH   1   9
ATOM      9  CB  SER A  1       26.941 -13.912   4.429  0.00  0.00    +0.185 C 
BRANCH   9  10
ATOM     10  OG  SER A  1       26.576 -13.132   5.566  0.00  0.00    -0.393 OA
ATOM     11  H   SER A  1       27.355 -13.156   6.160  0.00  0.00    +0.209 HD
ENDBRANCH   9  10
ENDBRANCH   1   9
TORSDOF 5
ENDMDL
MODEL 8
REMARK VINA RESULT:      -3.5      1.736      2.129
REMARK  Name = *****
REMARK                            x       y       z     vdW  Elec       q    Type
REMARK                         _______ _______ _______ _____ _____    ______ ____
ROOT
ATOM      1  CA  SER A  1       26.818 -14.465   3.456  0.00  0.00    +0.186 C 
ENDROOT
BRANCH   1   2
ATOM      2  N   SER A  1       26.835 -14.147   2.001  0.00  0.00    -0.317 NA
ATOM      3  H1  SER A  1       27.758 -14.413   1.637  0.00  0.00    +0.119 HD
ATOM      4  H2  SER A  1       26.203 -14.797   1.527  0.00  0.00    +0.119 HD
ENDBRANCH   1   2
BRANCH   1   5
ATOM      5  C   SER A  1       27.735 -13.521   4.233  0.00  0.00    +0.324 C 
ATOM      6  O   SER A  1       28.807 -13.114   3.812  0.00  0.00    -0.249 OA
BRANCH   5   7
ATOM      7  OXT SER A  1       27.250 -13.160   5.443  0.00  0.00    -0.479 OA
ATOM      8  HXT SER A  1       26.371 -12.733   5.425  0.00  0.00    +0.295 HD
ENDBRANCH   5   7
ENDBRANCH   1   5
BRANCH   1   9
ATOM      9  CB  SER A  1       25.395 -14.324   4.002  0.00  0.00    +0.185 C 
BRANCH   9  10
ATOM     10  OG  SER A  1       24.906 -13.007   3.756  0.00  0.00    -0.393 OA
ATOM     11  H   SER A  1       24.168 -13.118   3.120  0.00  0.00    +0.209 HD
ENDBRANCH   9  10
ENDBRANCH   1   9
TORSDOF 5
ENDMDL
MODEL 9
REMARK VINA RESULT:      -3.5      1.890      2.107
REMARK  Name = *****
REMARK                            x       y       z     vdW  Elec       q    Type
REMARK                         _______ _______ _______ _____ _____    ______ ____
ROOT
ATOM      1  CA  SER A  1       26.426 -14.106   4.369  0.00  0.00    +0.186 C 
ENDROOT
BRANCH   1   2
ATOM      2  N   SER A  1       26.933 -13.209   5.445  0.00  0.00    -0.317 NA
ATOM      3  H1  SER A  1       27.928 -13.422   5.582  0.00  0.00    +0.119 HD
ATOM      4  H2  SER A  1       26.948 -12.253   5.080  0.00  0.00    +0.119 HD
ENDBRANCH   1   2
BRANCH   1   5
ATOM      5  C   SER A  1       24.978 -13.770   4.015  0.00  0.00    +0.324 C 
ATOM      6  O   SER A  1       24.580 -12.640   3.777  0.00  0.00    -0.249 OA
BRANCH   5   7
ATOM      7  OXT SER A  1       24.161 -14.848   3.976  0.00  0.00    -0.479 OA
ATOM      8  HXT SER A  1       23.255 -14.692   4.306  0.00  0.00    +0.295 HD
ENDBRANCH   5   7
ENDBRANCH   1   5
BRANCH   1   9
ATOM      9  CB  SER A  1       27.287 -13.948   3.113  0.00  0.00    +0.185 C 
BRANCH   9  10
ATOM     10  OG  SER A  1       26.506 -14.214   1.950  0.00  0.00    -0.393 OA
ATOM     11  H   SER A  1       26.746 -15.125   1.678  0.00  0.00    +0.209 HD
ENDBRANCH   9  10
ENDBRANCH   1   9
TORSDOF 5
ENDMDL
