MODEL 1
REMARK VINA RESULT:      -2.6      0.000      0.000
REMARK  Name = *****
REMARK                            x       y       z     vdW  Elec       q    Type
REMARK                         _______ _______ _______ _____ _____    ______ ____
ROOT
ATOM      1  C   LIG    1       24.933 -18.353   4.024  0.00  0.00    +0.071 C 
ENDROOT
BRANCH   1   2
ATOM      2  C   LIG    1       25.174 -17.079   3.154  0.00  0.00    +0.021 C 
BRANCH   2   3
ATOM      3  C   LIG    1       24.721 -15.742   3.761  0.00  0.00    +0.036 C 
BRANCH   3   8
ATOM      4 CL   LIG    1       29.316 -11.871   4.434  0.00  0.00    -0.084 Cl
ATOM      5  C   LIG    1       27.993 -12.955   4.237  0.00  0.00    +0.041 A 
ATOM      6  C   LIG    1       27.192 -13.277   5.329  0.00  0.00    +0.020 A 
ATOM      7  C   LIG    1       26.120 -14.163   5.171  0.00  0.00    +0.005 A 
ATOM      8  C   LIG    1       25.847 -14.738   3.921  0.00  0.00    -0.047 A 
ATOM      9  C   LIG    1       26.659 -14.395   2.828  0.00  0.00    +0.005 A 
ATOM     10  C   LIG    1       27.732 -13.511   2.987  0.00  0.00    +0.020 A 
ENDBRANCH   3   8
ENDBRANCH   2   3
ENDBRANCH   1   2
BRANCH   1  11
ATOM     11  S   LIG    1       26.284 -19.594   3.610  0.00  0.00    -0.117 S 
BRANCH  11  12
ATOM     12  C   LIG    1       27.457 -19.426   4.976  0.00  0.00    +0.045 A 
ATOM     13  C   LIG    1       27.490 -20.323   6.062  0.00  0.00    +0.056 A 
ATOM     14 CL   LIG    1       26.310 -21.572   6.273  0.00  0.00    -0.082 Cl
ATOM     15  C   LIG    1       28.474 -20.215   7.060  0.00  0.00    +0.021 A 
ATOM     16  C   LIG    1       29.446 -19.222   6.988  0.00  0.00    +0.003 A 
ATOM     17  C   LIG    1       29.374 -18.272   5.976  0.00  0.00    +0.021 A 
ATOM     18  C   LIG    1       28.358 -18.341   5.013  0.00  0.00    +0.056 A 
ATOM     19 CL   LIG    1       28.245 -17.002   3.917  0.00  0.00    -0.082 Cl
ENDBRANCH  11  12
ENDBRANCH   1  11
BRANCH   1  20
ATOM     20  C   LIG    1       23.508 -18.946   3.899  0.00  0.00    +0.137 C 
BRANCH  20  21
ATOM     21  N   LIG    1       23.094 -19.934   4.887  0.00  0.00    -0.336 N 
ATOM     22  C   LIG    1       23.570 -19.973   6.175  0.00  0.00    +0.199 A 
ATOM     23  N   LIG    1       23.057 -20.972   6.862  0.00  0.00    -0.244 NA
ATOM     24  C   LIG    1       22.189 -21.570   6.004  0.00  0.00    +0.130 A 
ATOM     25  C   LIG    1       22.167 -20.932   4.799  0.00  0.00    +0.107 A 
ENDBRANCH  20  21
ENDBRANCH   1  20
TORSDOF 7
ENDMDL
MODEL 2
REMARK VINA RESULT:      -1.7      2.617      4.687
REMARK  Name = *****
REMARK                            x       y       z     vdW  Elec       q    Type
REMARK                         _______ _______ _______ _____ _____    ______ ____
ROOT
ATOM      1  C   LIG    1       26.770 -18.408   3.942  0.00  0.00    +0.071 C 
ENDROOT
BRANCH   1   2
ATOM      2  C   LIG    1       27.341 -16.998   4.297  0.00  0.00    +0.021 C 
BRANCH   2   3
ATOM      3  C   LIG    1       27.196 -15.912   3.220  0.00  0.00    +0.036 C 
BRANCH   3   8
ATOM      4 CL   LIG    1       23.504 -11.450   4.956  0.00  0.00    -0.084 Cl
ATOM      5  C   LIG    1       24.569 -12.704   4.451  0.00  0.00    +0.041 A 
ATOM      6  C   LIG    1       24.374 -13.327   3.221  0.00  0.00    +0.020 A 
ATOM      7  C   LIG    1       25.237 -14.351   2.813  0.00  0.00    +0.005 A 
ATOM      8  C   LIG    1       26.295 -14.764   3.636  0.00  0.00    -0.047 A 
ATOM      9  C   LIG    1       26.483 -14.119   4.869  0.00  0.00    +0.005 A 
ATOM     10  C   LIG    1       25.619 -13.098   5.278  0.00  0.00    +0.020 A 
ENDBRANCH   3   8
ENDBRANCH   2   3
ENDBRANCH   1   2
BRANCH   1  11
ATOM     11  S   LIG    1       25.277 -18.158   2.827  0.00  0.00    -0.117 S 
BRANCH  11  12
ATOM     12  C   LIG    1       23.941 -19.013   3.698  0.00  0.00    +0.045 A 
ATOM     13  C   LIG    1       23.813 -20.417   3.697  0.00  0.00    +0.056 A 
ATOM     14 CL   LIG    1       24.823 -21.443   2.736  0.00  0.00    -0.082 Cl
ATOM     15  C   LIG    1       22.817 -21.052   4.459  0.00  0.00    +0.021 A 
ATOM     16  C   LIG    1       21.941 -20.304   5.239  0.00  0.00    +0.003 A 
ATOM     17  C   LIG    1       21.992 -18.916   5.179  0.00  0.00    +0.021 A 
ATOM     18  C   LIG    1       22.946 -18.279   4.374  0.00  0.00    +0.056 A 
ATOM     19 CL   LIG    1       22.796 -16.558   4.220  0.00  0.00    -0.082 Cl
ENDBRANCH  11  12
ENDBRANCH   1  11
BRANCH   1  20
ATOM     20  C   LIG    1       26.465 -19.296   5.173  0.00  0.00    +0.137 C 
BRANCH  20  21
ATOM     21  N   LIG    1       27.595 -19.849   5.909  0.00  0.00    -0.336 N 
ATOM     22  C   LIG    1       27.650 -21.143   6.367  0.00  0.00    +0.199 A 
ATOM     23  N   LIG    1       28.767 -21.391   7.018  0.00  0.00    -0.244 NA
ATOM     24  C   LIG    1       29.475 -20.232   6.940  0.00  0.00    +0.130 A 
ATOM     25  C   LIG    1       28.794 -19.284   6.236  0.00  0.00    +0.107 A 
ENDBRANCH  20  21
ENDBRANCH   1  20
TORSDOF 7
ENDMDL
MODEL 3
REMARK VINA RESULT:      -0.9      2.568      4.870
REMARK  Name = *****
REMARK                            x       y       z     vdW  Elec       q    Type
REMARK                         _______ _______ _______ _____ _____    ______ ____
ROOT
ATOM      1  C   LIG    1       26.704 -18.415   3.886  0.00  0.00    +0.071 C 
ENDROOT
BRANCH   1   2
ATOM      2  C   LIG    1       27.356 -17.064   4.319  0.00  0.00    +0.021 C 
BRANCH   2   3
ATOM      3  C   LIG    1       27.383 -15.949   3.262  0.00  0.00    +0.036 C 
BRANCH   3   8
ATOM      4 CL   LIG    1       23.566 -11.447   4.575  0.00  0.00    -0.084 Cl
ATOM      5  C   LIG    1       24.670 -12.713   4.196  0.00  0.00    +0.041 A 
ATOM      6  C   LIG    1       24.748 -13.198   2.893  0.00  0.00    +0.020 A 
ATOM      7  C   LIG    1       25.642 -14.231   2.586  0.00  0.00    +0.005 A 
ATOM      8  C   LIG    1       26.456 -14.791   3.582  0.00  0.00    -0.047 A 
ATOM      9  C   LIG    1       26.371 -14.283   4.888  0.00  0.00    +0.005 A 
ATOM     10  C   LIG    1       25.477 -13.252   5.195  0.00  0.00    +0.020 A 
ENDBRANCH   3   8
ENDBRANCH   2   3
ENDBRANCH   1   2
BRANCH   1  11
ATOM     11  S   LIG    1       25.181 -18.013   2.858  0.00  0.00    -0.117 S 
BRANCH  11  12
ATOM     12  C   LIG    1       23.831 -18.814   3.757  0.00  0.00    +0.045 A 
ATOM     13  C   LIG    1       22.808 -18.085   4.395  0.00  0.00    +0.056 A 
ATOM     14 CL   LIG    1       22.832 -16.359   4.517  0.00  0.00    -0.082 Cl
ATOM     15  C   LIG    1       21.726 -18.742   5.006  0.00  0.00    +0.021 A 
ATOM     16  C   LIG    1       21.638 -20.130   4.983  0.00  0.00    +0.003 A 
ATOM     17  C   LIG    1       22.684 -20.869   4.441  0.00  0.00    +0.021 A 
ATOM     18  C   LIG    1       23.793 -20.218   3.884  0.00  0.00    +0.056 A 
ATOM     19 CL   LIG    1       25.122 -21.230   3.416  0.00  0.00    -0.082 Cl
ENDBRANCH  11  12
ENDBRANCH   1  11
BRANCH   1  20
ATOM     20  C   LIG    1       26.405 -19.380   5.059  0.00  0.00    +0.137 C 
BRANCH  20  21
ATOM     21  N   LIG    1       27.537 -19.915   5.804  0.00  0.00    -0.336 N 
ATOM     22  C   LIG    1       27.526 -21.131   6.443  0.00  0.00    +0.199 A 
ATOM     23  N   LIG    1       28.662 -21.376   7.060  0.00  0.00    -0.244 NA
ATOM     24  C   LIG    1       29.449 -20.305   6.773  0.00  0.00    +0.130 A 
ATOM     25  C   LIG    1       28.794 -19.413   5.976  0.00  0.00    +0.107 A 
ENDBRANCH  20  21
ENDBRANCH   1  20
TORSDOF 7
ENDMDL
MODEL 4
REMARK VINA RESULT:      -0.7      2.003      2.574
REMARK  Name = *****
REMARK                            x       y       z     vdW  Elec       q    Type
REMARK                         _______ _______ _______ _____ _____    ______ ____
ROOT
ATOM      1  C   LIG    1       23.643 -18.225   4.525  0.00  0.00    +0.071 C 
ENDROOT
BRANCH   1   2
ATOM      2  C   LIG    1       23.557 -17.018   3.538  0.00  0.00    +0.021 C 
BRANCH   2   3
ATOM      3  C   LIG    1       23.553 -15.618   4.170  0.00  0.00    +0.036 C 
BRANCH   3   8
ATOM      4 CL   LIG    1       28.906 -12.829   3.820  0.00  0.00    -0.084 Cl
ATOM      5  C   LIG    1       27.375 -13.611   3.900  0.00  0.00    +0.041 A 
ATOM      6  C   LIG    1       26.343 -13.042   4.642  0.00  0.00    +0.020 A 
ATOM      7  C   LIG    1       25.099 -13.681   4.712  0.00  0.00    +0.005 A 
ATOM      8  C   LIG    1       24.882 -14.897   4.048  0.00  0.00    -0.047 A 
ATOM      9  C   LIG    1       25.931 -15.452   3.296  0.00  0.00    +0.005 A 
ATOM     10  C   LIG    1       27.174 -14.815   3.228  0.00  0.00    +0.020 A 
ENDBRANCH   3   8
ENDBRANCH   2   3
ENDBRANCH   1   2
BRANCH   1  11
ATOM     11  S   LIG    1       24.705 -19.551   3.718  0.00  0.00    -0.117 S 
BRANCH  11  12
ATOM     12  C   LIG    1       25.748 -20.150   5.069  0.00  0.00    +0.045 A 
ATOM     13  C   LIG    1       25.281 -21.055   6.043  0.00  0.00    +0.056 A 
ATOM     14 CL   LIG    1       23.626 -21.553   6.133  0.00  0.00    -0.082 Cl
ATOM     15  C   LIG    1       26.145 -21.569   7.025  0.00  0.00    +0.021 A 
ATOM     16  C   LIG    1       27.487 -21.201   7.048  0.00  0.00    +0.003 A 
ATOM     17  C   LIG    1       27.943 -20.239   6.155  0.00  0.00    +0.021 A 
ATOM     18  C   LIG    1       27.070 -19.679   5.212  0.00  0.00    +0.056 A 
ATOM     19 CL   LIG    1       27.690 -18.354   4.281  0.00  0.00    -0.082 Cl
ENDBRANCH  11  12
ENDBRANCH   1  11
BRANCH   1  20
ATOM     20  C   LIG    1       22.269 -18.757   4.999  0.00  0.00    +0.137 C 
BRANCH  20  21
ATOM     21  N   LIG    1       21.139 -18.625   4.089  0.00  0.00    -0.336 N 
ATOM     22  C   LIG    1       20.293 -19.658   3.764  0.00  0.00    +0.199 A 
ATOM     23  N   LIG    1       19.365 -19.288   2.907  0.00  0.00    -0.244 NA
ATOM     24  C   LIG    1       19.592 -17.962   2.706  0.00  0.00    +0.130 A 
ATOM     25  C   LIG    1       20.651 -17.525   3.445  0.00  0.00    +0.107 A 
ENDBRANCH  20  21
ENDBRANCH   1  20
TORSDOF 7
ENDMDL
MODEL 5
REMARK VINA RESULT:      -0.1      2.515      5.245
REMARK  Name = *****
REMARK                            x       y       z     vdW  Elec       q    Type
REMARK                         _______ _______ _______ _____ _____    ______ ____
ROOT
ATOM      1  C   LIG    1       25.451 -19.422   4.167  0.00  0.00    +0.071 C 
ENDROOT
BRANCH   1   2
ATOM      2  C   LIG    1       26.078 -18.244   3.355  0.00  0.00    +0.021 C 
BRANCH   2   3
ATOM      3  C   LIG    1       25.254 -16.950   3.281  0.00  0.00    +0.036 C 
BRANCH   3   8
ATOM      4 CL   LIG    1       28.404 -12.049   4.897  0.00  0.00    -0.084 Cl
ATOM      5  C   LIG    1       27.508 -13.437   4.414  0.00  0.00    +0.041 A 
ATOM      6  C   LIG    1       26.116 -13.388   4.380  0.00  0.00    +0.020 A 
ATOM      7  C   LIG    1       25.388 -14.518   3.993  0.00  0.00    +0.005 A 
ATOM      8  C   LIG    1       26.045 -15.708   3.646  0.00  0.00    -0.047 A 
ATOM      9  C   LIG    1       27.448 -15.738   3.677  0.00  0.00    +0.005 A 
ATOM     10  C   LIG    1       28.177 -14.609   4.065  0.00  0.00    +0.020 A 
ENDBRANCH   3   8
ENDBRANCH   2   3
ENDBRANCH   1   2
BRANCH   1  11
ATOM     11  S   LIG    1       24.312 -18.679   5.466  0.00  0.00    -0.117 S 
BRANCH  11  12
ATOM     12  C   LIG    1       22.656 -18.934   4.785  0.00  0.00    +0.045 A 
ATOM     13  C   LIG    1       21.868 -17.874   4.293  0.00  0.00    +0.056 A 
ATOM     14 CL   LIG    1       22.342 -16.216   4.440  0.00  0.00    -0.082 Cl
ATOM     15  C   LIG    1       20.624 -18.120   3.687  0.00  0.00    +0.021 A 
ATOM     16  C   LIG    1       20.148 -19.420   3.553  0.00  0.00    +0.003 A 
ATOM     17  C   LIG    1       20.867 -20.469   4.115  0.00  0.00    +0.021 A 
ATOM     18  C   LIG    1       22.080 -20.221   4.773  0.00  0.00    +0.056 A 
ATOM     19 CL   LIG    1       22.793 -21.566   5.604  0.00  0.00    -0.082 Cl
ENDBRANCH  11  12
ENDBRANCH   1  11
BRANCH   1  20
ATOM     20  C   LIG    1       26.487 -20.406   4.761  0.00  0.00    +0.137 C 
BRANCH  20  21
ATOM     21  N   LIG    1       27.633 -19.842   5.465  0.00  0.00    -0.336 N 
ATOM     22  C   LIG    1       28.187 -20.398   6.593  0.00  0.00    +0.199 A 
ATOM     23  N   LIG    1       29.197 -19.689   7.049  0.00  0.00    -0.244 NA
ATOM     24  C   LIG    1       29.329 -18.667   6.162  0.00  0.00    +0.130 A 
ATOM     25  C   LIG    1       28.405 -18.758   5.163  0.00  0.00    +0.107 A 
ENDBRANCH  20  21
ENDBRANCH   1  20
TORSDOF 7
ENDMDL
MODEL 6
REMARK VINA RESULT:       0.1      2.160      4.223
REMARK  Name = *****
REMARK                            x       y       z     vdW  Elec       q    Type
REMARK                         _______ _______ _______ _____ _____    ______ ____
ROOT
ATOM      1  C   LIG    1       26.614 -18.220   3.600  0.00  0.00    +0.071 C 
ENDROOT
BRANCH   1   2
ATOM      2  C   LIG    1       25.309 -17.483   4.038  0.00  0.00    +0.021 C 
BRANCH   2   3
ATOM      3  C   LIG    1       25.013 -16.146   3.341  0.00  0.00    +0.036 C 
BRANCH   3   8
ATOM      4 CL   LIG    1       28.981 -11.862   4.909  0.00  0.00    -0.084 Cl
ATOM      5  C   LIG    1       27.838 -13.065   4.452  0.00  0.00    +0.041 A 
ATOM      6  C   LIG    1       26.776 -13.371   5.299  0.00  0.00    +0.020 A 
ATOM      7  C   LIG    1       25.850 -14.354   4.930  0.00  0.00    +0.005 A 
ATOM      8  C   LIG    1       25.983 -15.042   3.715  0.00  0.00    -0.047 A 
ATOM      9  C   LIG    1       27.055 -14.714   2.868  0.00  0.00    +0.005 A 
ATOM     10  C   LIG    1       27.982 -13.734   3.238  0.00  0.00    +0.020 A 
ENDBRANCH   3   8
ENDBRANCH   2   3
ENDBRANCH   1   2
BRANCH   1  11
ATOM     11  S   LIG    1       26.336 -20.065   3.830  0.00  0.00    -0.117 S 
BRANCH  11  12
ATOM     12  C   LIG    1       24.774 -20.156   4.738  0.00  0.00    +0.045 A 
ATOM     13  C   LIG    1       24.703 -20.556   6.087  0.00  0.00    +0.056 A 
ATOM     14 CL   LIG    1       26.078 -21.151   6.954  0.00  0.00    -0.082 Cl
ATOM     15  C   LIG    1       23.485 -20.527   6.787  0.00  0.00    +0.021 A 
ATOM     16  C   LIG    1       22.321 -20.091   6.161  0.00  0.00    +0.003 A 
ATOM     17  C   LIG    1       22.353 -19.782   4.806  0.00  0.00    +0.021 A 
ATOM     18  C   LIG    1       23.555 -19.867   4.090  0.00  0.00    +0.056 A 
ATOM     19 CL   LIG    1       23.444 -19.650   2.373  0.00  0.00    -0.082 Cl
ENDBRANCH  11  12
ENDBRANCH   1  11
BRANCH   1  20
ATOM     20  C   LIG    1       27.897 -17.709   4.301  0.00  0.00    +0.137 C 
BRANCH  20  21
ATOM     21  N   LIG    1       28.506 -18.566   5.311  0.00  0.00    -0.336 N 
ATOM     22  C   LIG    1       28.659 -19.924   5.171  0.00  0.00    +0.199 A 
ATOM     23  N   LIG    1       29.218 -20.471   6.229  0.00  0.00    -0.244 NA
ATOM     24  C   LIG    1       29.475 -19.427   7.061  0.00  0.00    +0.130 A 
ATOM     25  C   LIG    1       29.079 -18.245   6.507  0.00  0.00    +0.107 A 
ENDBRANCH  20  21
ENDBRANCH   1  20
TORSDOF 7
ENDMDL
MODEL 7
REMARK VINA RESULT:       0.1      2.812      4.820
REMARK  Name = *****
REMARK                            x       y       z     vdW  Elec       q    Type
REMARK                         _______ _______ _______ _____ _____    ______ ____
ROOT
ATOM      1  C   LIG    1       23.895 -17.005   4.123  0.00  0.00    +0.071 C 
ENDROOT
BRANCH   1   2
ATOM      2  C   LIG    1       25.449 -16.871   4.048  0.00  0.00    +0.021 C 
BRANCH   2   3
ATOM      3  C   LIG    1       26.003 -15.948   2.952  0.00  0.00    +0.036 C 
BRANCH   3   8
ATOM      4 CL   LIG    1       29.475 -11.478   5.078  0.00  0.00    -0.084 Cl
ATOM      5  C   LIG    1       28.505 -12.765   4.473  0.00  0.00    +0.041 A 
ATOM      6  C   LIG    1       28.375 -12.949   3.099  0.00  0.00    +0.020 A 
ATOM      7  C   LIG    1       27.581 -13.992   2.607  0.00  0.00    +0.005 A 
ATOM      8  C   LIG    1       26.908 -14.853   3.485  0.00  0.00    -0.047 A 
ATOM      9  C   LIG    1       27.058 -14.660   4.868  0.00  0.00    +0.005 A 
ATOM     10  C   LIG    1       27.849 -13.616   5.360  0.00  0.00    +0.020 A 
ENDBRANCH   3   8
ENDBRANCH   2   3
ENDBRANCH   1   2
BRANCH   1  11
ATOM     11  S   LIG    1       23.429 -18.680   3.407  0.00  0.00    -0.117 S 
BRANCH  11  12
ATOM     12  C   LIG    1       23.795 -19.839   4.746  0.00  0.00    +0.045 A 
ATOM     13  C   LIG    1       25.110 -20.105   5.180  0.00  0.00    +0.056 A 
ATOM     14 CL   LIG    1       26.503 -19.473   4.370  0.00  0.00    -0.082 Cl
ATOM     15  C   LIG    1       25.352 -20.941   6.283  0.00  0.00    +0.021 A 
ATOM     16  C   LIG    1       24.293 -21.518   6.978  0.00  0.00    +0.003 A 
ATOM     17  C   LIG    1       22.996 -21.343   6.508  0.00  0.00    +0.021 A 
ATOM     18  C   LIG    1       22.756 -20.557   5.372  0.00  0.00    +0.056 A 
ATOM     19 CL   LIG    1       21.133 -20.566   4.761  0.00  0.00    -0.082 Cl
ENDBRANCH  11  12
ENDBRANCH   1  11
BRANCH   1  20
ATOM     20  C   LIG    1       23.125 -15.832   3.468  0.00  0.00    +0.137 C 
BRANCH  20  21
ATOM     21  N   LIG    1       23.496 -14.477   3.855  0.00  0.00    -0.336 N 
ATOM     22  C   LIG    1       23.657 -13.444   2.962  0.00  0.00    +0.199 A 
ATOM     23  N   LIG    1       24.014 -12.326   3.559  0.00  0.00    -0.244 NA
ATOM     24  C   LIG    1       24.040 -12.635   4.883  0.00  0.00    +0.130 A 
ATOM     25  C   LIG    1       23.693 -13.937   5.092  0.00  0.00    +0.107 A 
ENDBRANCH  20  21
ENDBRANCH   1  20
TORSDOF 7
ENDMDL
