MODEL 1
REMARK VINA RESULT:      -7.8      0.000      0.000
REMARK  Name = *****
REMARK                            x       y       z     vdW  Elec       q    Type
REMARK                         _______ _______ _______ _____ _____    ______ ____
ROOT
ATOM      1  C   LIG    1       26.006 -21.281   6.476  0.00  0.00    +0.039 C 
ENDROOT
BRANCH   1   7
ATOM      2  C   LIG    1       30.130 -19.851   7.542  0.00  0.00    +0.213 C 
ATOM      3  C   LIG    1       29.295 -19.102   6.518  0.00  0.00    +0.227 C 
ATOM      4  O   LIG    1       29.636 -17.998   6.095  0.00  0.00    -0.284 OA
ATOM      5  C   LIG    1       28.048 -19.756   6.011  0.00  0.00    +0.007 C 
ATOM      6  C   LIG    1       27.671 -19.307   4.632  0.00  0.00    +0.048 C 
ATOM      7  C   LIG    1       27.389 -20.657   6.760  0.00  0.00    +0.010 C 
ATOM      8  C   LIG    1       28.058 -21.088   8.020  0.00  0.00    +0.228 C 
ATOM      9  O   LIG    1       27.413 -21.720   8.825  0.00  0.00    -0.284 OA
ATOM     10  C   LIG    1       29.526 -20.810   8.250  0.00  0.00    +0.213 C 
BRANCH   2  12
ATOM     11  C   LIG    1       31.928 -18.464   8.483  0.00  0.00    +0.277 C 
ATOM     12  O   LIG    1       31.444 -19.417   7.547  0.00  0.00    -0.488 OA
ENDBRANCH   2  12
BRANCH  10  13
ATOM     13  O   LIG    1       30.231 -21.550   9.190  0.00  0.00    -0.488 OA
ATOM     14  C   LIG    1       31.421 -22.207   8.797  0.00  0.00    +0.277 C 
ENDBRANCH  10  13
ENDBRANCH   1   7
BRANCH   1  15
ATOM     15  C   LIG    1       24.780 -20.604   7.147  0.00  0.00    +0.005 C 
BRANCH  15  16
ATOM     16  C   LIG    1       23.450 -20.534   6.384  0.00  0.00    +0.000 C 
BRANCH  16  17
ATOM     17  C   LIG    1       22.796 -21.854   5.960  0.00  0.00    +0.000 C 
BRANCH  17  18
ATOM     18  C   LIG    1       22.892 -22.955   7.025  0.00  0.00    -0.000 C 
BRANCH  18  19
ATOM     19  C   LIG    1       23.380 -24.354   6.557  0.00  0.00    -0.000 C 
BRANCH  19  20
ATOM     20  C   LIG    1       24.732 -24.393   5.805  0.00  0.00    -0.000 C 
BRANCH  20  21
ATOM     21  C   LIG    1       25.905 -25.052   6.594  0.00  0.00    -0.000 C 
BRANCH  21  22
ATOM     22  C   LIG    1       26.351 -26.404   5.982  0.00  0.00    +0.000 C 
BRANCH  22  23
ATOM     23  C   LIG    1       25.228 -27.320   5.438  0.00  0.00    +0.002 C 
BRANCH  23  24
ATOM     24  C   LIG    1       24.323 -28.037   6.452  0.00  0.00    +0.028 C 
BRANCH  24  25
ATOM     25  C   LIG    1       24.283 -29.555   6.310  0.00  0.00    +0.156 C 
BRANCH  25  26
ATOM     26  O   LIG    1       23.177 -29.952   5.518  0.00  0.00    -0.395 OA
ATOM     27  H   LIG    1       22.563 -30.436   6.093  0.00  0.00    +0.209 HD
ENDBRANCH  25  26
ENDBRANCH  24  25
ENDBRANCH  23  24
ENDBRANCH  22  23
ENDBRANCH  21  22
ENDBRANCH  20  21
ENDBRANCH  19  20
ENDBRANCH  18  19
ENDBRANCH  17  18
ENDBRANCH  16  17
ENDBRANCH  15  16
ENDBRANCH   1  15
TORSDOF 15
ENDMDL
MODEL 2
REMARK VINA RESULT:      -7.5      1.976      3.310
REMARK  Name = *****
REMARK                            x       y       z     vdW  Elec       q    Type
REMARK                         _______ _______ _______ _____ _____    ______ ____
ROOT
ATOM      1  C   LIG    1       23.635 -21.731   7.637  0.00  0.00    +0.039 C 
ENDROOT
BRANCH   1   7
ATOM      2  C   LIG    1       27.538 -20.021   6.209  0.00  0.00    +0.213 C 
ATOM      3  C   LIG    1       26.298 -19.948   5.335  0.00  0.00    +0.227 C 
ATOM      4  O   LIG    1       26.274 -19.268   4.310  0.00  0.00    -0.284 OA
ATOM      5  C   LIG    1       25.103 -20.752   5.739  0.00  0.00    +0.007 C 
ATOM      6  C   LIG    1       24.235 -21.133   4.578  0.00  0.00    +0.048 C 
ATOM      7  C   LIG    1       24.894 -21.077   7.026  0.00  0.00    +0.010 C 
ATOM      8  C   LIG    1       25.993 -20.753   7.979  0.00  0.00    +0.228 C 
ATOM      9  O   LIG    1       25.765 -20.823   9.165  0.00  0.00    -0.284 OA
ATOM     10  C   LIG    1       27.379 -20.419   7.476  0.00  0.00    +0.213 C 
BRANCH   2  12
ATOM     11  C   LIG    1       29.366 -18.452   5.719  0.00  0.00    +0.277 C 
ATOM     12  O   LIG    1       28.680 -19.679   5.507  0.00  0.00    -0.488 OA
ENDBRANCH   2  12
BRANCH  10  13
ATOM     13  O   LIG    1       28.470 -20.528   8.328  0.00  0.00    -0.488 OA
ATOM     14  C   LIG    1       29.428 -21.541   8.092  0.00  0.00    +0.277 C 
ENDBRANCH  10  13
ENDBRANCH   1   7
BRANCH   1  15
ATOM     15  C   LIG    1       22.925 -22.815   6.781  0.00  0.00    +0.005 C 
BRANCH  15  16
ATOM     16  C   LIG    1       23.515 -24.231   6.722  0.00  0.00    +0.000 C 
BRANCH  16  17
ATOM     17  C   LIG    1       24.820 -24.431   5.942  0.00  0.00    +0.000 C 
BRANCH  17  18
ATOM     18  C   LIG    1       25.901 -25.177   6.738  0.00  0.00    -0.000 C 
BRANCH  18  19
ATOM     19  C   LIG    1       26.308 -26.588   6.230  0.00  0.00    -0.000 C 
BRANCH  19  20
ATOM     20  C   LIG    1       25.489 -27.155   5.047  0.00  0.00    -0.000 C 
BRANCH  20  21
ATOM     21  C   LIG    1       24.389 -28.188   5.443  0.00  0.00    -0.000 C 
BRANCH  21  22
ATOM     22  C   LIG    1       24.974 -29.454   6.118  0.00  0.00    +0.000 C 
BRANCH  22  23
ATOM     23  C   LIG    1       24.435 -29.798   7.527  0.00  0.00    +0.002 C 
BRANCH  23  24
ATOM     24  C   LIG    1       25.256 -29.350   8.746  0.00  0.00    +0.028 C 
BRANCH  24  25
ATOM     25  C   LIG    1       26.372 -30.307   9.150  0.00  0.00    +0.156 C 
BRANCH  25  26
ATOM     26  O   LIG    1       27.531 -29.588   9.534  0.00  0.00    -0.395 OA
ATOM     27  H   LIG    1       28.119 -30.204   9.999  0.00  0.00    +0.209 HD
ENDBRANCH  25  26
ENDBRANCH  24  25
ENDBRANCH  23  24
ENDBRANCH  22  23
ENDBRANCH  21  22
ENDBRANCH  20  21
ENDBRANCH  19  20
ENDBRANCH  18  19
ENDBRANCH  17  18
ENDBRANCH  16  17
ENDBRANCH  15  16
ENDBRANCH   1  15
TORSDOF 15
ENDMDL
MODEL 3
REMARK VINA RESULT:      -7.4      1.813      3.284
REMARK  Name = *****
REMARK                            x       y       z     vdW  Elec       q    Type
REMARK                         _______ _______ _______ _____ _____    ______ ____
ROOT
ATOM      1  C   LIG    1       23.441 -21.716   7.468  0.00  0.00    +0.039 C 
ENDROOT
BRANCH   1   7
ATOM      2  C   LIG    1       27.409 -20.069   6.154  0.00  0.00    +0.213 C 
ATOM      3  C   LIG    1       26.202 -19.995   5.236  0.00  0.00    +0.227 C 
ATOM      4  O   LIG    1       26.222 -19.330   4.201  0.00  0.00    -0.284 OA
ATOM      5  C   LIG    1       24.984 -20.780   5.610  0.00  0.00    +0.007 C 
ATOM      6  C   LIG    1       24.153 -21.169   4.425  0.00  0.00    +0.048 C 
ATOM      7  C   LIG    1       24.727 -21.084   6.893  0.00  0.00    +0.010 C 
ATOM      8  C   LIG    1       25.796 -20.758   7.879  0.00  0.00    +0.228 C 
ATOM      9  O   LIG    1       25.526 -20.808   9.057  0.00  0.00    -0.284 OA
ATOM     10  C   LIG    1       27.203 -20.446   7.420  0.00  0.00    +0.213 C 
BRANCH   2  12
ATOM     11  C   LIG    1       29.261 -18.519   5.692  0.00  0.00    +0.277 C 
ATOM     12  O   LIG    1       28.580 -19.750   5.488  0.00  0.00    -0.488 OA
ENDBRANCH   2  12
BRANCH  10  13
ATOM     13  O   LIG    1       28.261 -20.555   8.311  0.00  0.00    -0.488 OA
ATOM     14  C   LIG    1       29.297 -21.478   8.039  0.00  0.00    +0.277 C 
ENDBRANCH  10  13
ENDBRANCH   1   7
BRANCH   1  15
ATOM     15  C   LIG    1       22.831 -22.905   6.678  0.00  0.00    +0.005 C 
BRANCH  15  16
ATOM     16  C   LIG    1       23.523 -24.275   6.732  0.00  0.00    +0.000 C 
BRANCH  16  17
ATOM     17  C   LIG    1       24.832 -24.448   5.953  0.00  0.00    +0.000 C 
BRANCH  17  18
ATOM     18  C   LIG    1       25.892 -25.259   6.711  0.00  0.00    -0.000 C 
BRANCH  18  19
ATOM     19  C   LIG    1       26.496 -26.492   5.983  0.00  0.00    -0.000 C 
BRANCH  19  20
ATOM     20  C   LIG    1       25.583 -27.194   4.951  0.00  0.00    -0.000 C 
BRANCH  20  21
ATOM     21  C   LIG    1       24.340 -27.917   5.556  0.00  0.00    -0.000 C 
BRANCH  21  22
ATOM     22  C   LIG    1       24.677 -28.703   6.849  0.00  0.00    +0.000 C 
BRANCH  22  23
ATOM     23  C   LIG    1       24.774 -30.242   6.716  0.00  0.00    +0.002 C 
BRANCH  23  24
ATOM     24  C   LIG    1       25.482 -30.819   5.480  0.00  0.00    +0.028 C 
BRANCH  24  25
ATOM     25  C   LIG    1       26.237 -32.121   5.727  0.00  0.00    +0.156 C 
BRANCH  25  26
ATOM     26  O   LIG    1       27.145 -31.973   6.804  0.00  0.00    -0.395 OA
ATOM     27  H   LIG    1       26.627 -31.765   7.599  0.00  0.00    +0.209 HD
ENDBRANCH  25  26
ENDBRANCH  24  25
ENDBRANCH  23  24
ENDBRANCH  22  23
ENDBRANCH  21  22
ENDBRANCH  20  21
ENDBRANCH  19  20
ENDBRANCH  18  19
ENDBRANCH  17  18
ENDBRANCH  16  17
ENDBRANCH  15  16
ENDBRANCH   1  15
TORSDOF 15
ENDMDL
MODEL 4
REMARK VINA RESULT:      -7.3      1.742      2.628
REMARK  Name = *****
REMARK                            x       y       z     vdW  Elec       q    Type
REMARK                         _______ _______ _______ _____ _____    ______ ____
ROOT
ATOM      1  C   LIG    1       27.495 -20.707   5.395  0.00  0.00    +0.039 C 
ENDROOT
BRANCH   1   7
ATOM      2  C   LIG    1       30.531 -19.577   8.509  0.00  0.00    +0.213 C 
ATOM      3  C   LIG    1       30.025 -18.546   7.516  0.00  0.00    +0.227 C 
ATOM      4  O   LIG    1       30.281 -17.349   7.646  0.00  0.00    -0.284 OA
ATOM      5  C   LIG    1       29.221 -19.027   6.349  0.00  0.00    +0.007 C 
ATOM      6  C   LIG    1       29.323 -18.124   5.157  0.00  0.00    +0.048 C 
ATOM      7  C   LIG    1       28.513 -20.167   6.422  0.00  0.00    +0.010 C 
ATOM      8  C   LIG    1       28.718 -20.997   7.643  0.00  0.00    +0.228 C 
ATOM      9  O   LIG    1       27.949 -21.906   7.855  0.00  0.00    -0.284 OA
ATOM     10  C   LIG    1       29.901 -20.755   8.553  0.00  0.00    +0.213 C 
BRANCH   2  12
ATOM     11  C   LIG    1       31.520 -18.178  10.272  0.00  0.00    +0.277 C 
ATOM     12  O   LIG    1       31.632 -19.116   9.210  0.00  0.00    -0.488 OA
ENDBRANCH   2  12
BRANCH  10  13
ATOM     13  O   LIG    1       30.320 -21.753   9.422  0.00  0.00    -0.488 OA
ATOM     14  C   LIG    1       31.516 -22.453   9.140  0.00  0.00    +0.277 C 
ENDBRANCH  10  13
ENDBRANCH   1   7
BRANCH   1  15
ATOM     15  C   LIG    1       26.135 -19.964   5.299  0.00  0.00    +0.005 C 
BRANCH  15  16
ATOM     16  C   LIG    1       25.182 -20.290   4.141  0.00  0.00    +0.000 C 
BRANCH  16  17
ATOM     17  C   LIG    1       23.919 -19.434   3.989  0.00  0.00    +0.000 C 
BRANCH  17  18
ATOM     18  C   LIG    1       22.921 -19.604   5.144  0.00  0.00    -0.000 C 
BRANCH  18  19
ATOM     19  C   LIG    1       22.820 -21.013   5.791  0.00  0.00    -0.000 C 
BRANCH  19  20
ATOM     20  C   LIG    1       23.236 -21.117   7.278  0.00  0.00    -0.000 C 
BRANCH  20  21
ATOM     21  C   LIG    1       24.387 -22.128   7.570  0.00  0.00    -0.000 C 
BRANCH  21  22
ATOM     22  C   LIG    1       24.266 -23.429   6.736  0.00  0.00    +0.000 C 
BRANCH  22  23
ATOM     23  C   LIG    1       25.567 -24.241   6.529  0.00  0.00    +0.002 C 
BRANCH  23  24
ATOM     24  C   LIG    1       25.542 -25.406   5.526  0.00  0.00    +0.028 C 
BRANCH  24  25
ATOM     25  C   LIG    1       26.200 -26.689   6.022  0.00  0.00    +0.156 C 
BRANCH  25  26
ATOM     26  O   LIG    1       27.504 -26.820   5.483  0.00  0.00    -0.395 OA
ATOM     27  H   LIG    1       28.092 -26.239   5.992  0.00  0.00    +0.209 HD
ENDBRANCH  25  26
ENDBRANCH  24  25
ENDBRANCH  23  24
ENDBRANCH  22  23
ENDBRANCH  21  22
ENDBRANCH  20  21
ENDBRANCH  19  20
ENDBRANCH  18  19
ENDBRANCH  17  18
ENDBRANCH  16  17
ENDBRANCH  15  16
ENDBRANCH   1  15
TORSDOF 15
ENDMDL
MODEL 5
REMARK VINA RESULT:      -7.3      1.736      3.247
REMARK  Name = *****
REMARK                            x       y       z     vdW  Elec       q    Type
REMARK                         _______ _______ _______ _____ _____    ______ ____
ROOT
ATOM      1  C   LIG    1       27.648 -19.887   5.381  0.00  0.00    +0.039 C 
ENDROOT
BRANCH   1   7
ATOM      2  C   LIG    1       30.439 -19.383   8.867  0.00  0.00    +0.213 C 
ATOM      3  C   LIG    1       29.737 -20.708   8.626  0.00  0.00    +0.227 C 
ATOM      4  O   LIG    1       30.046 -21.722   9.252  0.00  0.00    -0.284 OA
ATOM      5  C   LIG    1       28.632 -20.748   7.618  0.00  0.00    +0.007 C 
ATOM      6  C   LIG    1       27.625 -21.822   7.897  0.00  0.00    +0.048 C 
ATOM      7  C   LIG    1       28.597 -19.872   6.599  0.00  0.00    +0.010 C 
ATOM      8  C   LIG    1       29.602 -18.772   6.636  0.00  0.00    +0.228 C 
ATOM      9  O   LIG    1       29.752 -18.098   5.642  0.00  0.00    -0.284 OA
ATOM     10  C   LIG    1       30.357 -18.457   7.907  0.00  0.00    +0.213 C 
BRANCH   2  12
ATOM     11  C   LIG    1       30.727 -18.354  11.080  0.00  0.00    +0.277 C 
ATOM     12  O   LIG    1       31.044 -19.343  10.110  0.00  0.00    -0.488 OA
ENDBRANCH   2  12
BRANCH  10  13
ATOM     13  O   LIG    1       30.957 -17.215   8.065  0.00  0.00    -0.488 OA
ATOM     14  C   LIG    1       32.287 -17.149   8.543  0.00  0.00    +0.277 C 
ENDBRANCH  10  13
ENDBRANCH   1   7
BRANCH   1  15
ATOM     15  C   LIG    1       26.174 -20.297   5.647  0.00  0.00    +0.005 C 
BRANCH  15  16
ATOM     16  C   LIG    1       25.227 -20.505   4.457  0.00  0.00    +0.000 C 
BRANCH  16  17
ATOM     17  C   LIG    1       23.739 -20.725   4.755  0.00  0.00    +0.000 C 
BRANCH  17  18
ATOM     18  C   LIG    1       23.354 -20.417   6.209  0.00  0.00    -0.000 C 
BRANCH  18  19
ATOM     19  C   LIG    1       23.252 -21.621   7.185  0.00  0.00    -0.000 C 
BRANCH  19  20
ATOM     20  C   LIG    1       22.549 -22.888   6.642  0.00  0.00    -0.000 C 
BRANCH  20  21
ATOM     21  C   LIG    1       23.403 -24.192   6.702  0.00  0.00    -0.000 C 
BRANCH  21  22
ATOM     22  C   LIG    1       24.915 -23.907   6.888  0.00  0.00    +0.000 C 
BRANCH  22  23
ATOM     23  C   LIG    1       25.891 -24.803   6.088  0.00  0.00    +0.002 C 
BRANCH  23  24
ATOM     24  C   LIG    1       25.326 -25.622   4.916  0.00  0.00    +0.028 C 
BRANCH  24  25
ATOM     25  C   LIG    1       25.820 -27.064   4.850  0.00  0.00    +0.156 C 
BRANCH  25  26
ATOM     26  O   LIG    1       27.210 -27.126   5.114  0.00  0.00    -0.395 OA
ATOM     27  H   LIG    1       27.464 -28.063   5.134  0.00  0.00    +0.209 HD
ENDBRANCH  25  26
ENDBRANCH  24  25
ENDBRANCH  23  24
ENDBRANCH  22  23
ENDBRANCH  21  22
ENDBRANCH  20  21
ENDBRANCH  19  20
ENDBRANCH  18  19
ENDBRANCH  17  18
ENDBRANCH  16  17
ENDBRANCH  15  16
ENDBRANCH   1  15
TORSDOF 15
ENDMDL
MODEL 6
REMARK VINA RESULT:      -7.2      2.640      3.859
REMARK  Name = *****
REMARK                            x       y       z     vdW  Elec       q    Type
REMARK                         _______ _______ _______ _____ _____    ______ ____
ROOT
ATOM      1  C   LIG    1       23.354 -21.698   7.352  0.00  0.00    +0.039 C 
ENDROOT
BRANCH   1   7
ATOM      2  C   LIG    1       27.308 -20.014   6.042  0.00  0.00    +0.213 C 
ATOM      3  C   LIG    1       26.102 -19.951   5.123  0.00  0.00    +0.227 C 
ATOM      4  O   LIG    1       26.116 -19.286   4.088  0.00  0.00    -0.284 OA
ATOM      5  C   LIG    1       24.891 -20.748   5.495  0.00  0.00    +0.007 C 
ATOM      6  C   LIG    1       24.064 -21.143   4.309  0.00  0.00    +0.048 C 
ATOM      7  C   LIG    1       24.635 -21.054   6.778  0.00  0.00    +0.010 C 
ATOM      8  C   LIG    1       25.700 -20.718   7.765  0.00  0.00    +0.228 C 
ATOM      9  O   LIG    1       25.429 -20.771   8.943  0.00  0.00    -0.284 OA
ATOM     10  C   LIG    1       27.104 -20.394   7.307  0.00  0.00    +0.213 C 
BRANCH   2  12
ATOM     11  C   LIG    1       29.211 -18.503   5.668  0.00  0.00    +0.277 C 
ATOM     12  O   LIG    1       28.476 -19.684   5.377  0.00  0.00    -0.488 OA
ENDBRANCH   2  12
BRANCH  10  13
ATOM     13  O   LIG    1       28.163 -20.493   8.199  0.00  0.00    -0.488 OA
ATOM     14  C   LIG    1       29.153 -21.480   7.985  0.00  0.00    +0.277 C 
ENDBRANCH  10  13
ENDBRANCH   1   7
BRANCH   1  15
ATOM     15  C   LIG    1       23.062 -23.166   6.939  0.00  0.00    +0.005 C 
BRANCH  15  16
ATOM     16  C   LIG    1       24.235 -24.105   6.627  0.00  0.00    +0.000 C 
BRANCH  16  17
ATOM     17  C   LIG    1       23.988 -25.262   5.651  0.00  0.00    +0.000 C 
BRANCH  17  18
ATOM     18  C   LIG    1       25.266 -26.015   5.257  0.00  0.00    -0.000 C 
BRANCH  18  19
ATOM     19  C   LIG    1       26.317 -26.261   6.375  0.00  0.00    -0.000 C 
BRANCH  19  20
ATOM     20  C   LIG    1       25.972 -27.355   7.413  0.00  0.00    -0.000 C 
BRANCH  20  21
ATOM     21  C   LIG    1       25.044 -28.493   6.886  0.00  0.00    -0.000 C 
BRANCH  21  22
ATOM     22  C   LIG    1       24.918 -29.671   7.886  0.00  0.00    +0.000 C 
BRANCH  22  23
ATOM     23  C   LIG    1       25.458 -29.425   9.315  0.00  0.00    +0.002 C 
BRANCH  23  24
ATOM     24  C   LIG    1       26.850 -29.973   9.668  0.00  0.00    +0.028 C 
BRANCH  24  25
ATOM     25  C   LIG    1       27.299 -29.698  11.100  0.00  0.00    +0.156 C 
BRANCH  25  26
ATOM     26  O   LIG    1       28.713 -29.708  11.189  0.00  0.00    -0.395 OA
ATOM     27  H   LIG    1       29.057 -29.161  10.464  0.00  0.00    +0.209 HD
ENDBRANCH  25  26
ENDBRANCH  24  25
ENDBRANCH  23  24
ENDBRANCH  22  23
ENDBRANCH  21  22
ENDBRANCH  20  21
ENDBRANCH  19  20
ENDBRANCH  18  19
ENDBRANCH  17  18
ENDBRANCH  16  17
ENDBRANCH  15  16
ENDBRANCH   1  15
TORSDOF 15
ENDMDL
MODEL 7
REMARK VINA RESULT:      -6.9      2.932      9.766
REMARK  Name = *****
REMARK                            x       y       z     vdW  Elec       q    Type
REMARK                         _______ _______ _______ _____ _____    ______ ____
ROOT
ATOM      1  C   LIG    1       24.356 -27.850   6.687  0.00  0.00    +0.039 C 
ENDROOT
BRANCH   1   7
ATOM      2  C   LIG    1       25.598 -31.953   8.036  0.00  0.00    +0.213 C 
ATOM      3  C   LIG    1       25.796 -30.751   8.942  0.00  0.00    +0.227 C 
ATOM      4  O   LIG    1       26.122 -30.882  10.121  0.00  0.00    -0.284 OA
ATOM      5  C   LIG    1       25.610 -29.387   8.355  0.00  0.00    +0.007 C 
ATOM      6  C   LIG    1       26.410 -28.334   9.058  0.00  0.00    +0.048 C 
ATOM      7  C   LIG    1       24.804 -29.197   7.296  0.00  0.00    +0.010 C 
ATOM      8  C   LIG    1       24.263 -30.424   6.646  0.00  0.00    +0.228 C 
ATOM      9  O   LIG    1       23.369 -30.300   5.840  0.00  0.00    -0.284 OA
ATOM     10  C   LIG    1       24.867 -31.780   6.930  0.00  0.00    +0.213 C 
BRANCH   2  12
ATOM     11  C   LIG    1       27.554 -33.442   8.044  0.00  0.00    +0.277 C 
ATOM     12  O   LIG    1       26.265 -33.068   8.511  0.00  0.00    -0.488 OA
ENDBRANCH   2  12
BRANCH  10  13
ATOM     13  O   LIG    1       24.660 -32.829   6.044  0.00  0.00    -0.488 OA
ATOM     14  C   LIG    1       25.496 -32.947   4.910  0.00  0.00    +0.277 C 
ENDBRANCH  10  13
ENDBRANCH   1   7
BRANCH   1  15
ATOM     15  C   LIG    1       25.431 -27.041   5.911  0.00  0.00    +0.005 C 
BRANCH  15  16
ATOM     16  C   LIG    1       25.937 -25.714   6.494  0.00  0.00    +0.000 C 
BRANCH  16  17
ATOM     17  C   LIG    1       25.116 -24.449   6.216  0.00  0.00    +0.000 C 
BRANCH  17  18
ATOM     18  C   LIG    1       23.648 -24.564   6.651  0.00  0.00    -0.000 C 
BRANCH  18  19
ATOM     19  C   LIG    1       22.816 -23.252   6.689  0.00  0.00    -0.000 C 
BRANCH  19  20
ATOM     20  C   LIG    1       23.474 -22.042   7.394  0.00  0.00    -0.000 C 
BRANCH  20  21
ATOM     21  C   LIG    1       23.258 -20.669   6.686  0.00  0.00    -0.000 C 
BRANCH  21  22
ATOM     22  C   LIG    1       23.059 -20.813   5.155  0.00  0.00    +0.000 C 
BRANCH  22  23
ATOM     23  C   LIG    1       24.334 -21.060   4.313  0.00  0.00    +0.002 C 
BRANCH  23  24
ATOM     24  C   LIG    1       25.480 -20.041   4.417  0.00  0.00    +0.028 C 
BRANCH  24  25
ATOM     25  C   LIG    1       26.499 -20.337   5.512  0.00  0.00    +0.156 C 
BRANCH  25  26
ATOM     26  O   LIG    1       27.806 -20.005   5.078  0.00  0.00    -0.395 OA
ATOM     27  H   LIG    1       28.235 -20.824   4.783  0.00  0.00    +0.209 HD
ENDBRANCH  25  26
ENDBRANCH  24  25
ENDBRANCH  23  24
ENDBRANCH  22  23
ENDBRANCH  21  22
ENDBRANCH  20  21
ENDBRANCH  19  20
ENDBRANCH  18  19
ENDBRANCH  17  18
ENDBRANCH  16  17
ENDBRANCH  15  16
ENDBRANCH   1  15
TORSDOF 15
ENDMDL
MODEL 8
REMARK VINA RESULT:      -6.9      2.317      9.820
REMARK  Name = *****
REMARK                            x       y       z     vdW  Elec       q    Type
REMARK                         _______ _______ _______ _____ _____    ______ ____
ROOT
ATOM      1  C   LIG    1       26.006 -27.220   6.774  0.00  0.00    +0.039 C 
ENDROOT
BRANCH   1   7
ATOM      2  C   LIG    1       24.188 -31.003   8.380  0.00  0.00    +0.213 C 
ATOM      3  C   LIG    1       24.818 -29.991   9.320  0.00  0.00    +0.227 C 
ATOM      4  O   LIG    1       24.688 -30.080  10.540  0.00  0.00    -0.284 OA
ATOM      5  C   LIG    1       25.631 -28.885   8.723  0.00  0.00    +0.007 C 
ATOM      6  C   LIG    1       26.686 -28.368   9.653  0.00  0.00    +0.048 C 
ATOM      7  C   LIG    1       25.398 -28.456   7.471  0.00  0.00    +0.010 C 
ATOM      8  C   LIG    1       24.425 -29.251   6.669  0.00  0.00    +0.228 C 
ATOM      9  O   LIG    1       24.021 -28.783   5.629  0.00  0.00    -0.284 OA
ATOM     10  C   LIG    1       24.014 -30.639   7.105  0.00  0.00    +0.213 C 
BRANCH   2  12
ATOM     11  C   LIG    1       22.597 -32.606   9.349  0.00  0.00    +0.277 C 
ATOM     12  O   LIG    1       23.918 -32.199   9.021  0.00  0.00    -0.488 OA
ENDBRANCH   2  12
BRANCH  10  13
ATOM     13  O   LIG    1       23.463 -31.519   6.184  0.00  0.00    -0.488 OA
ATOM     14  C   LIG    1       24.300 -32.466   5.551  0.00  0.00    +0.277 C 
ENDBRANCH  10  13
ENDBRANCH   1   7
BRANCH   1  15
ATOM     15  C   LIG    1       25.065 -26.004   6.556  0.00  0.00    +0.005 C 
BRANCH  15  16
ATOM     16  C   LIG    1       25.653 -24.586   6.580  0.00  0.00    +0.000 C 
BRANCH  16  17
ATOM     17  C   LIG    1       24.811 -23.451   5.988  0.00  0.00    +0.000 C 
BRANCH  17  18
ATOM     18  C   LIG    1       23.564 -23.117   6.819  0.00  0.00    -0.000 C 
BRANCH  18  19
ATOM     19  C   LIG    1       23.484 -21.693   7.437  0.00  0.00    -0.000 C 
BRANCH  19  20
ATOM     20  C   LIG    1       24.762 -20.828   7.334  0.00  0.00    -0.000 C 
BRANCH  20  21
ATOM     21  C   LIG    1       25.753 -20.972   8.531  0.00  0.00    -0.000 C 
BRANCH  21  22
ATOM     22  C   LIG    1       27.202 -21.277   8.073  0.00  0.00    +0.000 C 
BRANCH  22  23
ATOM     23  C   LIG    1       27.945 -20.141   7.330  0.00  0.00    +0.002 C 
BRANCH  23  24
ATOM     24  C   LIG    1       29.295 -20.468   6.671  0.00  0.00    +0.028 C 
BRANCH  24  25
ATOM     25  C   LIG    1       30.348 -19.371   6.796  0.00  0.00    +0.156 C 
BRANCH  25  26
ATOM     26  O   LIG    1       31.599 -19.923   7.168  0.00  0.00    -0.395 OA
ATOM     27  H   LIG    1       31.766 -20.687   6.593  0.00  0.00    +0.209 HD
ENDBRANCH  25  26
ENDBRANCH  24  25
ENDBRANCH  23  24
ENDBRANCH  22  23
ENDBRANCH  21  22
ENDBRANCH  20  21
ENDBRANCH  19  20
ENDBRANCH  18  19
ENDBRANCH  17  18
ENDBRANCH  16  17
ENDBRANCH  15  16
ENDBRANCH   1  15
TORSDOF 15
ENDMDL
MODEL 9
REMARK VINA RESULT:      -6.8      2.540      9.259
REMARK  Name = *****
REMARK                            x       y       z     vdW  Elec       q    Type
REMARK                         _______ _______ _______ _____ _____    ______ ____
ROOT
ATOM      1  C   LIG    1       26.384 -26.952   6.845  0.00  0.00    +0.039 C 
ENDROOT
BRANCH   1   7
ATOM      2  C   LIG    1       24.124 -30.396   8.638  0.00  0.00    +0.213 C 
ATOM      3  C   LIG    1       24.078 -30.140   7.143  0.00  0.00    +0.227 C 
ATOM      4  O   LIG    1       23.585 -30.957   6.366  0.00  0.00    -0.284 OA
ATOM      5  C   LIG    1       24.627 -28.845   6.633  0.00  0.00    +0.007 C 
ATOM      6  C   LIG    1       23.992 -28.405   5.349  0.00  0.00    +0.048 C 
ATOM      7  C   LIG    1       25.583 -28.186   7.312  0.00  0.00    +0.010 C 
ATOM      8  C   LIG    1       25.923 -28.719   8.662  0.00  0.00    +0.228 C 
ATOM      9  O   LIG    1       26.916 -28.300   9.210  0.00  0.00    -0.284 OA
ATOM     10  C   LIG    1       25.008 -29.699   9.359  0.00  0.00    +0.213 C 
BRANCH   2  12
ATOM     11  C   LIG    1       22.161 -31.030   9.976  0.00  0.00    +0.277 C 
ATOM     12  O   LIG    1       23.177 -31.327   9.028  0.00  0.00    -0.488 OA
ENDBRANCH   2  12
BRANCH  10  13
ATOM     13  O   LIG    1       25.093 -29.867  10.735  0.00  0.00    -0.488 OA
ATOM     14  C   LIG    1       25.808 -30.974  11.250  0.00  0.00    +0.277 C 
ENDBRANCH  10  13
ENDBRANCH   1   7
BRANCH   1  15
ATOM     15  C   LIG    1       25.653 -25.583   6.894  0.00  0.00    +0.005 C 
BRANCH  15  16
ATOM     16  C   LIG    1       25.467 -24.785   5.595  0.00  0.00    +0.000 C 
BRANCH  16  17
ATOM     17  C   LIG    1       24.859 -23.381   5.697  0.00  0.00    +0.000 C 
BRANCH  17  18
ATOM     18  C   LIG    1       23.916 -23.208   6.896  0.00  0.00    -0.000 C 
BRANCH  18  19
ATOM     19  C   LIG    1       23.541 -21.755   7.299  0.00  0.00    -0.000 C 
BRANCH  19  20
ATOM     20  C   LIG    1       24.689 -20.719   7.276  0.00  0.00    -0.000 C 
BRANCH  20  21
ATOM     21  C   LIG    1       25.736 -20.870   8.421  0.00  0.00    -0.000 C 
BRANCH  21  22
ATOM     22  C   LIG    1       27.151 -21.224   7.894  0.00  0.00    +0.000 C 
BRANCH  22  23
ATOM     23  C   LIG    1       27.648 -20.427   6.663  0.00  0.00    +0.002 C 
BRANCH  23  24
ATOM     24  C   LIG    1       29.101 -19.927   6.664  0.00  0.00    +0.028 C 
BRANCH  24  25
ATOM     25  C   LIG    1       29.994 -20.563   7.724  0.00  0.00    +0.156 C 
BRANCH  25  26
ATOM     26  O   LIG    1       31.358 -20.283   7.459  0.00  0.00    -0.395 OA
ATOM     27  H   LIG    1       31.407 -19.391   7.081  0.00  0.00    +0.209 HD
ENDBRANCH  25  26
ENDBRANCH  24  25
ENDBRANCH  23  24
ENDBRANCH  22  23
ENDBRANCH  21  22
ENDBRANCH  20  21
ENDBRANCH  19  20
ENDBRANCH  18  19
ENDBRANCH  17  18
ENDBRANCH  16  17
ENDBRANCH  15  16
ENDBRANCH   1  15
TORSDOF 15
ENDMDL
