MODEL 1
REMARK VINA RESULT:     -10.1      0.000      0.000
REMARK  Name = *****
REMARK                            x       y       z     vdW  Elec       q    Type
REMARK                         _______ _______ _______ _____ _____    ______ ____
ROOT
ATOM      1  C   LIG    1       27.828 -21.837   7.321  0.00  0.00    +0.267 C 
ENDROOT
BRANCH   1   2
ATOM      2  C   LIG    1       28.647 -20.642   6.899  0.00  0.00    -0.007 A 
ATOM      3  C   LIG    1       29.790 -20.280   7.619  0.00  0.00    +0.053 A 
ATOM      4  C   LIG    1       30.547 -19.162   7.251  0.00  0.00    +0.129 A 
ATOM      5  C   LIG    1       30.180 -18.419   6.130  0.00  0.00    +0.046 A 
ATOM      6  C   LIG    1       29.019 -18.749   5.425  0.00  0.00    +0.004 A 
ATOM      7  C   LIG    1       28.256 -19.854   5.808  0.00  0.00    +0.007 A 
BRANCH   4   8
ATOM      8  O   LIG    1       31.672 -18.965   8.012  0.00  0.00    -0.456 OA
BRANCH   8   9
ATOM      9  C   LIG    1       31.691 -18.077   9.060  0.00  0.00    +0.128 A 
ATOM     10  C   LIG    1       30.723 -18.310  10.043  0.00  0.00    +0.046 A 
ATOM     11  C   LIG    1       30.602 -17.451  11.134  0.00  0.00    +0.004 A 
ATOM     12  C   LIG    1       31.447 -16.349  11.244  0.00  0.00    +0.000 A 
ATOM     13  C   LIG    1       32.395 -16.094  10.252  0.00  0.00    +0.004 A 
ATOM     14  C   LIG    1       32.503 -16.946   9.148  0.00  0.00    +0.046 A 
ENDBRANCH   8   9
ENDBRANCH   4   8
ENDBRANCH   1   2
BRANCH   1  15
ATOM     15  O   LIG    1       27.183 -21.518   8.554  0.00  0.00    -0.460 OA
BRANCH  15  16
ATOM     16  C   LIG    1       25.838 -21.690   8.557  0.00  0.00    +0.312 C 
ATOM     17  O   LIG    1       25.142 -22.001   9.512  0.00  0.00    -0.251 OA
BRANCH  16  21
ATOM     18  C   LIG    1       24.088 -23.684   6.928  0.00  0.00    +0.012 C 
ATOM     19  C   LIG    1       24.504 -22.339   6.379  0.00  0.00    -0.014 C 
ATOM     20  C   LIG    1       23.816 -21.130   7.000  0.00  0.00    +0.035 C 
ATOM     21  C   LIG    1       25.292 -21.353   7.221  0.00  0.00    +0.111 C 
ATOM     22  C   LIG    1       24.903 -22.392   4.924  0.00  0.00    +0.012 C 
BRANCH  20  23
ATOM     23  C   LIG    1       23.384 -19.990   6.174  0.00  0.00    +0.010 C 
ATOM     24  C   LIG    1       22.420 -19.976   5.239  0.00  0.00    +0.103 C 
ATOM     25 CL   LIG    1       22.080 -18.527   4.365  0.00  0.00    -0.071 Cl
ATOM     26 CL   LIG    1       21.487 -21.378   4.857  0.00  0.00    -0.071 Cl
ENDBRANCH  20  23
ENDBRANCH  16  21
ENDBRANCH  15  16
ENDBRANCH   1  15
TORSDOF 7
ENDMDL
MODEL 2
REMARK VINA RESULT:      -9.9      2.452      3.259
REMARK  Name = *****
REMARK                            x       y       z     vdW  Elec       q    Type
REMARK                         _______ _______ _______ _____ _____    ______ ____
ROOT
ATOM      1  C   LIG    1       28.112 -21.833   7.967  0.00  0.00    +0.267 C 
ENDROOT
BRANCH   1   2
ATOM      2  C   LIG    1       28.624 -20.622   7.226  0.00  0.00    -0.007 A 
ATOM      3  C   LIG    1       29.722 -19.906   7.716  0.00  0.00    +0.053 A 
ATOM      4  C   LIG    1       30.194 -18.770   7.050  0.00  0.00    +0.129 A 
ATOM      5  C   LIG    1       29.588 -18.366   5.862  0.00  0.00    +0.046 A 
ATOM      6  C   LIG    1       28.468 -19.050   5.383  0.00  0.00    +0.004 A 
ATOM      7  C   LIG    1       27.988 -20.172   6.061  0.00  0.00    +0.007 A 
BRANCH   4   8
ATOM      8  O   LIG    1       31.311 -18.207   7.614  0.00  0.00    -0.456 OA
BRANCH   8   9
ATOM      9  C   LIG    1       31.277 -17.615   8.853  0.00  0.00    +0.128 A 
ATOM     10  C   LIG    1       32.416 -16.871   9.178  0.00  0.00    +0.046 A 
ATOM     11  C   LIG    1       32.531 -16.262  10.427  0.00  0.00    +0.004 A 
ATOM     12  C   LIG    1       31.506 -16.400  11.361  0.00  0.00    +0.000 A 
ATOM     13  C   LIG    1       30.380 -17.166  11.053  0.00  0.00    +0.004 A 
ATOM     14  C   LIG    1       30.275 -17.792   9.808  0.00  0.00    +0.046 A 
ENDBRANCH   8   9
ENDBRANCH   4   8
ENDBRANCH   1   2
BRANCH   1  15
ATOM     15  O   LIG    1       26.879 -22.229   7.366  0.00  0.00    -0.460 OA
BRANCH  15  16
ATOM     16  C   LIG    1       25.788 -22.107   8.163  0.00  0.00    +0.312 C 
ATOM     17  O   LIG    1       25.679 -21.394   9.149  0.00  0.00    -0.251 OA
BRANCH  16  21
ATOM     18  C   LIG    1       24.314 -21.327   5.535  0.00  0.00    +0.012 C 
ATOM     19  C   LIG    1       23.894 -22.510   6.376  0.00  0.00    -0.014 C 
ATOM     20  C   LIG    1       24.828 -23.713   6.339  0.00  0.00    +0.035 C 
ATOM     21  C   LIG    1       24.676 -22.916   7.611  0.00  0.00    +0.111 C 
ATOM     22  C   LIG    1       22.395 -22.646   6.501  0.00  0.00    +0.012 C 
BRANCH  20  23
ATOM     23  C   LIG    1       24.302 -25.087   6.292  0.00  0.00    +0.010 C 
ATOM     24  C   LIG    1       25.001 -26.227   6.162  0.00  0.00    +0.103 C 
ATOM     25 CL   LIG    1       24.182 -27.746   6.110  0.00  0.00    -0.071 Cl
ATOM     26 CL   LIG    1       26.723 -26.242   6.035  0.00  0.00    -0.071 Cl
ENDBRANCH  20  23
ENDBRANCH  16  21
ENDBRANCH  15  16
ENDBRANCH   1  15
TORSDOF 7
ENDMDL
MODEL 3
REMARK VINA RESULT:      -9.5      2.392      3.406
REMARK  Name = *****
REMARK                            x       y       z     vdW  Elec       q    Type
REMARK                         _______ _______ _______ _____ _____    ______ ____
ROOT
ATOM      1  C   LIG    1       28.116 -19.697   5.350  0.00  0.00    +0.267 C 
ENDROOT
BRANCH   1   2
ATOM      2  C   LIG    1       29.108 -19.945   6.459  0.00  0.00    -0.007 A 
ATOM      3  C   LIG    1       30.068 -18.978   6.778  0.00  0.00    +0.053 A 
ATOM      4  C   LIG    1       31.007 -19.204   7.790  0.00  0.00    +0.129 A 
ATOM      5  C   LIG    1       30.964 -20.393   8.517  0.00  0.00    +0.046 A 
ATOM      6  C   LIG    1       30.035 -21.381   8.184  0.00  0.00    +0.004 A 
ATOM      7  C   LIG    1       29.112 -21.159   7.160  0.00  0.00    +0.007 A 
BRANCH   4   8
ATOM      8  O   LIG    1       31.846 -18.145   8.030  0.00  0.00    -0.456 OA
BRANCH   8   9
ATOM      9  C   LIG    1       31.861 -17.492   9.238  0.00  0.00    +0.128 A 
ATOM     10  C   LIG    1       30.739 -17.720  10.042  0.00  0.00    +0.046 A 
ATOM     11  C   LIG    1       30.606 -17.076  11.271  0.00  0.00    +0.004 A 
ATOM     12  C   LIG    1       31.594 -16.193  11.700  0.00  0.00    +0.000 A 
ATOM     13  C   LIG    1       32.703 -15.939  10.890  0.00  0.00    +0.004 A 
ATOM     14  C   LIG    1       32.825 -16.571   9.649  0.00  0.00    +0.046 A 
ENDBRANCH   8   9
ENDBRANCH   4   8
ENDBRANCH   1   2
BRANCH   1  15
ATOM     15  O   LIG    1       26.811 -19.643   5.929  0.00  0.00    -0.460 OA
BRANCH  15  16
ATOM     16  C   LIG    1       25.871 -20.380   5.287  0.00  0.00    +0.312 C 
ATOM     17  O   LIG    1       25.547 -20.291   4.112  0.00  0.00    -0.251 OA
BRANCH  16  21
ATOM     18  C   LIG    1       22.872 -21.216   5.259  0.00  0.00    +0.012 C 
ATOM     19  C   LIG    1       23.855 -21.767   6.266  0.00  0.00    -0.014 C 
ATOM     20  C   LIG    1       24.876 -22.757   5.719  0.00  0.00    +0.035 C 
ATOM     21  C   LIG    1       25.327 -21.404   6.210  0.00  0.00    +0.111 C 
ATOM     22  C   LIG    1       23.279 -21.875   7.657  0.00  0.00    +0.012 C 
BRANCH  20  23
ATOM     23  C   LIG    1       25.261 -23.956   6.482  0.00  0.00    +0.010 C 
ATOM     24  C   LIG    1       25.415 -25.207   6.016  0.00  0.00    +0.103 C 
ATOM     25 CL   LIG    1       25.857 -26.484   7.090  0.00  0.00    -0.071 Cl
ATOM     26 CL   LIG    1       25.179 -25.606   4.353  0.00  0.00    -0.071 Cl
ENDBRANCH  20  23
ENDBRANCH  16  21
ENDBRANCH  15  16
ENDBRANCH   1  15
TORSDOF 7
ENDMDL
MODEL 4
REMARK VINA RESULT:      -9.5      4.619      8.952
REMARK  Name = *****
REMARK                            x       y       z     vdW  Elec       q    Type
REMARK                         _______ _______ _______ _____ _____    ______ ____
ROOT
ATOM      1  C   LIG    1       22.502 -23.414   6.825  0.00  0.00    +0.267 C 
ENDROOT
BRANCH   1   2
ATOM      2  C   LIG    1       23.768 -24.208   6.621  0.00  0.00    -0.007 A 
ATOM      3  C   LIG    1       23.714 -25.499   6.083  0.00  0.00    +0.053 A 
ATOM      4  C   LIG    1       24.879 -26.254   5.907  0.00  0.00    +0.129 A 
ATOM      5  C   LIG    1       26.115 -25.701   6.237  0.00  0.00    +0.046 A 
ATOM      6  C   LIG    1       26.179 -24.428   6.810  0.00  0.00    +0.004 A 
ATOM      7  C   LIG    1       25.012 -23.686   7.001  0.00  0.00    +0.007 A 
BRANCH   4   8
ATOM      8  O   LIG    1       24.677 -27.475   5.315  0.00  0.00    -0.456 OA
BRANCH   8   9
ATOM      9  C   LIG    1       24.893 -28.652   5.990  0.00  0.00    +0.128 A 
ATOM     10  C   LIG    1       25.367 -29.703   5.198  0.00  0.00    +0.046 A 
ATOM     11  C   LIG    1       25.577 -30.966   5.750  0.00  0.00    +0.004 A 
ATOM     12  C   LIG    1       25.310 -31.184   7.100  0.00  0.00    +0.000 A 
ATOM     13  C   LIG    1       24.810 -30.147   7.889  0.00  0.00    +0.004 A 
ATOM     14  C   LIG    1       24.581 -28.886   7.330  0.00  0.00    +0.046 A 
ENDBRANCH   8   9
ENDBRANCH   4   8
ENDBRANCH   1   2
BRANCH   1  15
ATOM     15  O   LIG    1       22.819 -22.030   6.670  0.00  0.00    -0.460 OA
BRANCH  15  16
ATOM     16  C   LIG    1       22.603 -21.531   5.428  0.00  0.00    +0.312 C 
ATOM     17  O   LIG    1       21.524 -21.384   4.875  0.00  0.00    -0.251 OA
BRANCH  16  21
ATOM     18  C   LIG    1       23.028 -18.642   4.346  0.00  0.00    +0.012 C 
ATOM     19  C   LIG    1       24.091 -19.711   4.236  0.00  0.00    -0.014 C 
ATOM     20  C   LIG    1       24.782 -20.093   5.540  0.00  0.00    +0.035 C 
ATOM     21  C   LIG    1       23.890 -21.088   4.840  0.00  0.00    +0.111 C 
ATOM     22  C   LIG    1       24.808 -19.698   2.908  0.00  0.00    +0.012 C 
BRANCH  20  23
ATOM     23  C   LIG    1       26.232 -20.347   5.589  0.00  0.00    +0.010 C 
ATOM     24  C   LIG    1       26.994 -20.525   6.681  0.00  0.00    +0.103 C 
ATOM     25 CL   LIG    1       28.691 -20.795   6.519  0.00  0.00    -0.071 Cl
ATOM     26 CL   LIG    1       26.339 -20.488   8.278  0.00  0.00    -0.071 Cl
ENDBRANCH  20  23
ENDBRANCH  16  21
ENDBRANCH  15  16
ENDBRANCH   1  15
TORSDOF 7
ENDMDL
MODEL 5
REMARK VINA RESULT:      -9.3      3.948      8.843
REMARK  Name = *****
REMARK                            x       y       z     vdW  Elec       q    Type
REMARK                         _______ _______ _______ _____ _____    ______ ____
ROOT
ATOM      1  C   LIG    1       26.664 -21.678   8.370  0.00  0.00    +0.267 C 
ENDROOT
BRANCH   1   2
ATOM      2  C   LIG    1       25.322 -21.887   7.712  0.00  0.00    -0.007 A 
ATOM      3  C   LIG    1       24.879 -23.179   7.407  0.00  0.00    +0.053 A 
ATOM      4  C   LIG    1       23.646 -23.386   6.779  0.00  0.00    +0.129 A 
ATOM      5  C   LIG    1       22.830 -22.295   6.486  0.00  0.00    +0.046 A 
ATOM      6  C   LIG    1       23.277 -20.999   6.752  0.00  0.00    +0.004 A 
ATOM      7  C   LIG    1       24.517 -20.795   7.362  0.00  0.00    +0.007 A 
BRANCH   4   8
ATOM      8  O   LIG    1       23.319 -24.706   6.596  0.00  0.00    -0.456 OA
BRANCH   8   9
ATOM      9  C   LIG    1       24.179 -25.589   5.990  0.00  0.00    +0.128 A 
ATOM     10  C   LIG    1       24.368 -26.791   6.680  0.00  0.00    +0.046 A 
ATOM     11  C   LIG    1       25.257 -27.751   6.198  0.00  0.00    +0.004 A 
ATOM     12  C   LIG    1       25.967 -27.510   5.024  0.00  0.00    +0.000 A 
ATOM     13  C   LIG    1       25.805 -26.300   4.347  0.00  0.00    +0.004 A 
ATOM     14  C   LIG    1       24.928 -25.330   4.841  0.00  0.00    +0.046 A 
ENDBRANCH   8   9
ENDBRANCH   4   8
ENDBRANCH   1   2
BRANCH   1  15
ATOM     15  O   LIG    1       26.951 -20.279   8.353  0.00  0.00    -0.460 OA
BRANCH  15  16
ATOM     16  C   LIG    1       28.043 -19.928   7.629  0.00  0.00    +0.312 C 
ATOM     17  O   LIG    1       28.108 -19.800   6.416  0.00  0.00    -0.251 OA
BRANCH  16  21
ATOM     18  C   LIG    1       30.914 -19.323   6.588  0.00  0.00    +0.012 C 
ATOM     19  C   LIG    1       30.590 -19.405   8.062  0.00  0.00    -0.014 C 
ATOM     20  C   LIG    1       29.776 -18.247   8.626  0.00  0.00    +0.035 C 
ATOM     21  C   LIG    1       29.168 -19.624   8.545  0.00  0.00    +0.111 C 
ATOM     22  C   LIG    1       31.650 -20.122   8.863  0.00  0.00    +0.012 C 
BRANCH  20  23
ATOM     23  C   LIG    1       30.077 -17.677   9.950  0.00  0.00    +0.010 C 
ATOM     24  C   LIG    1       31.094 -16.863  10.279  0.00  0.00    +0.103 C 
ATOM     25 CL   LIG    1       31.276 -16.317  11.907  0.00  0.00    -0.071 Cl
ATOM     26 CL   LIG    1       32.258 -16.330   9.121  0.00  0.00    -0.071 Cl
ENDBRANCH  20  23
ENDBRANCH  16  21
ENDBRANCH  15  16
ENDBRANCH   1  15
TORSDOF 7
ENDMDL
MODEL 6
REMARK VINA RESULT:      -9.0      3.683      8.229
REMARK  Name = *****
REMARK                            x       y       z     vdW  Elec       q    Type
REMARK                         _______ _______ _______ _____ _____    ______ ____
ROOT
ATOM      1  C   LIG    1       27.069 -21.774   8.320  0.00  0.00    +0.267 C 
ENDROOT
BRANCH   1   2
ATOM      2  C   LIG    1       25.954 -22.521   7.631  0.00  0.00    -0.007 A 
ATOM      3  C   LIG    1       24.815 -21.839   7.188  0.00  0.00    +0.053 A 
ATOM      4  C   LIG    1       23.765 -22.523   6.567  0.00  0.00    +0.129 A 
ATOM      5  C   LIG    1       23.869 -23.897   6.351  0.00  0.00    +0.046 A 
ATOM      6  C   LIG    1       24.984 -24.594   6.821  0.00  0.00    +0.004 A 
ATOM      7  C   LIG    1       26.021 -23.910   7.459  0.00  0.00    +0.007 A 
BRANCH   4   8
ATOM      8  O   LIG    1       22.742 -21.717   6.134  0.00  0.00    -0.456 OA
BRANCH   8   9
ATOM      9  C   LIG    1       22.957 -20.682   5.257  0.00  0.00    +0.128 A 
ATOM     10  C   LIG    1       23.980 -20.904   4.328  0.00  0.00    +0.046 A 
ATOM     11  C   LIG    1       24.334 -19.912   3.415  0.00  0.00    +0.004 A 
ATOM     12  C   LIG    1       23.668 -18.688   3.431  0.00  0.00    +0.000 A 
ATOM     13  C   LIG    1       22.667 -18.450   4.374  0.00  0.00    +0.004 A 
ATOM     14  C   LIG    1       22.326 -19.439   5.302  0.00  0.00    +0.046 A 
ENDBRANCH   8   9
ENDBRANCH   4   8
ENDBRANCH   1   2
BRANCH   1  15
ATOM     15  O   LIG    1       26.973 -20.398   7.951  0.00  0.00    -0.460 OA
BRANCH  15  16
ATOM     16  C   LIG    1       28.063 -19.898   7.318  0.00  0.00    +0.312 C 
ATOM     17  O   LIG    1       28.159 -19.621   6.131  0.00  0.00    -0.251 OA
BRANCH  16  21
ATOM     18  C   LIG    1       31.013 -19.381   6.469  0.00  0.00    +0.012 C 
ATOM     19  C   LIG    1       30.592 -19.465   7.918  0.00  0.00    -0.014 C 
ATOM     20  C   LIG    1       29.784 -18.284   8.440  0.00  0.00    +0.035 C 
ATOM     21  C   LIG    1       29.136 -19.640   8.306  0.00  0.00    +0.111 C 
ATOM     22  C   LIG    1       31.575 -20.223   8.777  0.00  0.00    +0.012 C 
BRANCH  20  23
ATOM     23  C   LIG    1       30.017 -17.735   9.787  0.00  0.00    +0.010 C 
ATOM     24  C   LIG    1       31.032 -16.951  10.186  0.00  0.00    +0.103 C 
ATOM     25 CL   LIG    1       31.129 -16.427  11.828  0.00  0.00    -0.071 Cl
ATOM     26 CL   LIG    1       32.278 -16.437   9.107  0.00  0.00    -0.071 Cl
ENDBRANCH  20  23
ENDBRANCH  16  21
ENDBRANCH  15  16
ENDBRANCH   1  15
TORSDOF 7
ENDMDL
MODEL 7
REMARK VINA RESULT:      -9.0      4.055      8.316
REMARK  Name = *****
REMARK                            x       y       z     vdW  Elec       q    Type
REMARK                         _______ _______ _______ _____ _____    ______ ____
ROOT
ATOM      1  C   LIG    1       23.251 -24.143   6.727  0.00  0.00    +0.267 C 
ENDROOT
BRANCH   1   2
ATOM      2  C   LIG    1       24.103 -25.211   6.085  0.00  0.00    -0.007 A 
ATOM      3  C   LIG    1       24.129 -26.506   6.615  0.00  0.00    +0.053 A 
ATOM      4  C   LIG    1       24.929 -27.500   6.042  0.00  0.00    +0.129 A 
ATOM      5  C   LIG    1       25.683 -27.209   4.906  0.00  0.00    +0.046 A 
ATOM      6  C   LIG    1       25.694 -25.911   4.390  0.00  0.00    +0.004 A 
ATOM      7  C   LIG    1       24.908 -24.916   4.976  0.00  0.00    +0.007 A 
BRANCH   4   8
ATOM      8  O   LIG    1       24.808 -28.733   6.631  0.00  0.00    -0.456 OA
BRANCH   8   9
ATOM      9  C   LIG    1       25.235 -28.968   7.915  0.00  0.00    +0.128 A 
ATOM     10  C   LIG    1       24.432 -29.848   8.648  0.00  0.00    +0.046 A 
ATOM     11  C   LIG    1       24.726 -30.130   9.981  0.00  0.00    +0.004 A 
ATOM     12  C   LIG    1       25.824 -29.528  10.591  0.00  0.00    +0.000 A 
ATOM     13  C   LIG    1       26.612 -28.626   9.873  0.00  0.00    +0.004 A 
ATOM     14  C   LIG    1       26.305 -28.329   8.542  0.00  0.00    +0.046 A 
ENDBRANCH   8   9
ENDBRANCH   4   8
ENDBRANCH   1   2
BRANCH   1  15
ATOM     15  O   LIG    1       23.683 -22.876   6.229  0.00  0.00    -0.460 OA
BRANCH  15  16
ATOM     16  C   LIG    1       23.672 -21.870   7.139  0.00  0.00    +0.312 C 
ATOM     17  O   LIG    1       22.915 -21.753   8.091  0.00  0.00    -0.251 OA
BRANCH  16  21
ATOM     18  C   LIG    1       26.648 -22.739   7.421  0.00  0.00    +0.012 C 
ATOM     19  C   LIG    1       26.248 -21.322   7.076  0.00  0.00    -0.014 C 
ATOM     20  C   LIG    1       25.696 -21.114   5.671  0.00  0.00    +0.035 C 
ATOM     21  C   LIG    1       24.795 -20.942   6.868  0.00  0.00    +0.111 C 
ATOM     22  C   LIG    1       27.082 -20.283   7.786  0.00  0.00    +0.012 C 
BRANCH  20  23
ATOM     23  C   LIG    1       26.060 -19.929   4.876  0.00  0.00    +0.010 C 
ATOM     24  C   LIG    1       25.272 -19.231   4.041  0.00  0.00    +0.103 C 
ATOM     25 CL   LIG    1       25.905 -17.872   3.185  0.00  0.00    -0.071 Cl
ATOM     26 CL   LIG    1       23.617 -19.645   3.775  0.00  0.00    -0.071 Cl
ENDBRANCH  20  23
ENDBRANCH  16  21
ENDBRANCH  15  16
ENDBRANCH   1  15
TORSDOF 7
ENDMDL
MODEL 8
REMARK VINA RESULT:      -8.9      5.335      7.937
REMARK  Name = *****
REMARK                            x       y       z     vdW  Elec       q    Type
REMARK                         _______ _______ _______ _____ _____    ______ ____
ROOT
ATOM      1  C   LIG    1       25.954 -26.286   6.005  0.00  0.00    +0.267 C 
ENDROOT
BRANCH   1   2
ATOM      2  C   LIG    1       25.218 -25.045   6.446  0.00  0.00    -0.007 A 
ATOM      3  C   LIG    1       25.904 -24.008   7.088  0.00  0.00    +0.053 A 
ATOM      4  C   LIG    1       25.230 -22.860   7.521  0.00  0.00    +0.129 A 
ATOM      5  C   LIG    1       23.864 -22.729   7.276  0.00  0.00    +0.046 A 
ATOM      6  C   LIG    1       23.162 -23.773   6.668  0.00  0.00    +0.004 A 
ATOM      7  C   LIG    1       23.835 -24.925   6.256  0.00  0.00    +0.007 A 
BRANCH   4   8
ATOM      8  O   LIG    1       26.041 -21.905   8.080  0.00  0.00    -0.456 OA
BRANCH   8   9
ATOM      9  C   LIG    1       26.974 -21.222   7.339  0.00  0.00    +0.128 A 
ATOM     10  C   LIG    1       28.275 -21.267   7.850  0.00  0.00    +0.046 A 
ATOM     11  C   LIG    1       29.307 -20.571   7.221  0.00  0.00    +0.004 A 
ATOM     12  C   LIG    1       29.039 -19.821   6.078  0.00  0.00    +0.000 A 
ATOM     13  C   LIG    1       27.737 -19.749   5.579  0.00  0.00    +0.004 A 
ATOM     14  C   LIG    1       26.700 -20.431   6.222  0.00  0.00    +0.046 A 
ENDBRANCH   8   9
ENDBRANCH   4   8
ENDBRANCH   1   2
BRANCH   1  15
ATOM     15  O   LIG    1       25.588 -27.351   6.882  0.00  0.00    -0.460 OA
BRANCH  15  16
ATOM     16  C   LIG    1       24.755 -28.276   6.343  0.00  0.00    +0.312 C 
ATOM     17  O   LIG    1       24.373 -28.329   5.183  0.00  0.00    -0.251 OA
BRANCH  16  21
ATOM     18  C   LIG    1       25.828 -31.193   6.168  0.00  0.00    +0.012 C 
ATOM     19  C   LIG    1       24.873 -30.747   7.251  0.00  0.00    -0.014 C 
ATOM     20  C   LIG    1       25.463 -29.833   8.318  0.00  0.00    +0.035 C 
ATOM     21  C   LIG    1       24.426 -29.301   7.360  0.00  0.00    +0.111 C 
ATOM     22  C   LIG    1       23.803 -31.768   7.554  0.00  0.00    +0.012 C 
BRANCH  20  23
ATOM     23  C   LIG    1       25.109 -29.990   9.738  0.00  0.00    +0.010 C 
ATOM     24  C   LIG    1       25.601 -29.306  10.785  0.00  0.00    +0.103 C 
ATOM     25 CL   LIG    1       25.058 -29.660  12.385  0.00  0.00    -0.071 Cl
ATOM     26 CL   LIG    1       26.784 -28.063  10.598  0.00  0.00    -0.071 Cl
ENDBRANCH  20  23
ENDBRANCH  16  21
ENDBRANCH  15  16
ENDBRANCH   1  15
TORSDOF 7
ENDMDL
MODEL 9
REMARK VINA RESULT:      -8.9      2.379      7.488
REMARK  Name = *****
REMARK                            x       y       z     vdW  Elec       q    Type
REMARK                         _______ _______ _______ _____ _____    ______ ____
ROOT
ATOM      1  C   LIG    1       26.921 -21.801   8.374  0.00  0.00    +0.267 C 
ENDROOT
BRANCH   1   2
ATOM      2  C   LIG    1       25.872 -22.582   7.622  0.00  0.00    -0.007 A 
ATOM      3  C   LIG    1       24.727 -21.940   7.136  0.00  0.00    +0.053 A 
ATOM      4  C   LIG    1       23.737 -22.657   6.454  0.00  0.00    +0.129 A 
ATOM      5  C   LIG    1       23.909 -24.020   6.221  0.00  0.00    +0.046 A 
ATOM      6  C   LIG    1       25.030 -24.678   6.733  0.00  0.00    +0.004 A 
ATOM      7  C   LIG    1       26.007 -23.964   7.429  0.00  0.00    +0.007 A 
BRANCH   4   8
ATOM      8  O   LIG    1       22.702 -21.886   5.987  0.00  0.00    -0.456 OA
BRANCH   8   9
ATOM      9  C   LIG    1       22.918 -20.795   5.182  0.00  0.00    +0.128 A 
ATOM     10  C   LIG    1       23.886 -20.980   4.190  0.00  0.00    +0.046 A 
ATOM     11  C   LIG    1       24.238 -19.933   3.339  0.00  0.00    +0.004 A 
ATOM     12  C   LIG    1       23.624 -18.690   3.481  0.00  0.00    +0.000 A 
ATOM     13  C   LIG    1       22.677 -18.490   4.488  0.00  0.00    +0.004 A 
ATOM     14  C   LIG    1       22.340 -19.536   5.353  0.00  0.00    +0.046 A 
ENDBRANCH   8   9
ENDBRANCH   4   8
ENDBRANCH   1   2
BRANCH   1  15
ATOM     15  O   LIG    1       28.140 -21.872   7.634  0.00  0.00    -0.460 OA
BRANCH  15  16
ATOM     16  C   LIG    1       29.201 -21.263   8.220  0.00  0.00    +0.312 C 
ATOM     17  O   LIG    1       30.072 -21.794   8.891  0.00  0.00    -0.251 OA
BRANCH  16  21
ATOM     18  C   LIG    1       31.710 -19.466   8.629  0.00  0.00    +0.012 C 
ATOM     19  C   LIG    1       30.398 -18.917   8.118  0.00  0.00    -0.014 C 
ATOM     20  C   LIG    1       30.027 -19.310   6.693  0.00  0.00    +0.035 C 
ATOM     21  C   LIG    1       29.213 -19.827   7.853  0.00  0.00    +0.111 C 
ATOM     22  C   LIG    1       30.047 -17.573   8.709  0.00  0.00    +0.012 C 
BRANCH  20  23
ATOM     23  C   LIG    1       29.415 -18.341   5.769  0.00  0.00    +0.010 C 
ATOM     24  C   LIG    1       28.248 -18.460   5.113  0.00  0.00    +0.103 C 
ATOM     25 CL   LIG    1       27.717 -17.205   4.054  0.00  0.00    -0.071 Cl
ATOM     26 CL   LIG    1       27.236 -19.848   5.279  0.00  0.00    -0.071 Cl
ENDBRANCH  20  23
ENDBRANCH  16  21
ENDBRANCH  15  16
ENDBRANCH   1  15
TORSDOF 7
ENDMDL
