MODEL 1
REMARK VINA RESULT:       2.6      0.000      0.000
REMARK  Name = *****
REMARK                            x       y       z     vdW  Elec       q    Type
REMARK                         _______ _______ _______ _____ _____    ______ ____
ROOT
ATOM      1  C   LIG    1       23.208 -13.817   4.097  0.00  0.00    +0.048 C 
ATOM      2  C   LIG    1       23.930 -15.135   4.135  0.00  0.00    -0.001 C 
ATOM      3  C   LIG    1       25.337 -15.246   4.055  0.00  0.00    +0.052 C 
ATOM      4  C   LIG    1       26.221 -14.040   3.946  0.00  0.00    +0.204 C 
ATOM      5  C   LIG    1       27.687 -14.228   3.889  0.00  0.00    +0.122 C 
ATOM      6  C   LIG    1       28.148 -15.486   3.936  0.00  0.00    +0.105 C 
ATOM      7  N   LIG    1       27.377 -16.622   4.061  0.00  0.00    -0.343 NA
ATOM      8  O   LIG    1       25.780 -12.895   3.892  0.00  0.00    -0.286 OA
ATOM      9  C   LIG    1       25.956 -16.516   4.080  0.00  0.00    +0.055 C 
ATOM     10  C   LIG    1       25.136 -17.656   4.142  0.00  0.00    +0.052 C 
ATOM     11  C   LIG    1       23.738 -17.592   4.236  0.00  0.00    +0.068 C 
ATOM     12  C   LIG    1       23.165 -16.311   4.248  0.00  0.00    +0.148 C 
ATOM     13  F   LIG    1       21.830 -16.189   4.340  0.00  0.00    -0.203 F 
ENDROOT
BRANCH  11  14
ATOM     14  N   LIG    1       23.032 -18.796   4.351  0.00  0.00    -0.325 NA
ATOM     15  C   LIG    1       23.858 -20.018   4.224  0.00  0.00    +0.123 C 
ATOM     16  C   LIG    1       23.089 -21.255   4.774  0.00  0.00    +0.068 C 
ATOM     17  C   LIG    1       23.046 -21.236   6.306  0.00  0.00    +0.025 C 
ATOM     18  N   LIG    1       21.729 -21.417   4.203  0.00  0.00    -0.310 NA
ATOM     19  H   LIG    1       21.834 -21.643   3.214  0.00  0.00    +0.122 HD
ATOM     20  C   LIG    1       20.972 -20.148   4.288  0.00  0.00    +0.100 C 
ATOM     21  C   LIG    1       21.720 -18.930   3.694  0.00  0.00    +0.120 C 
ENDBRANCH  11  14
BRANCH   7  22
ATOM     22  C   LIG    1       28.074 -17.923   4.136  0.00  0.00    +0.087 C 
ATOM     23  C   LIG    1       29.068 -18.231   5.233  0.00  0.00    +0.027 C 
ATOM     24  C   LIG    1       27.754 -18.939   5.208  0.00  0.00    +0.027 C 
ENDBRANCH   7  22
BRANCH   5  25
ATOM     25  C   LIG    1       28.662 -13.120   3.793  0.00  0.00    +0.342 C 
ATOM     26  O   LIG    1       29.471 -13.010   2.882  0.00  0.00    -0.245 OA
BRANCH  25  27
ATOM     27  O   LIG    1       28.605 -12.235   4.814  0.00  0.00    -0.477 OA
ATOM     28  H   LIG    1       29.241 -11.483   4.728  0.00  0.00    +0.295 HD
ENDBRANCH  25  27
ENDBRANCH   5  25
TORSDOF 4
ENDMDL
MODEL 2
REMARK VINA RESULT:       4.3      1.901      3.782
REMARK  Name = *****
REMARK                            x       y       z     vdW  Elec       q    Type
REMARK                         _______ _______ _______ _____ _____    ______ ____
ROOT
ATOM      1  C   LIG    1       28.995 -17.822   4.809  0.00  0.00    +0.048 C 
ATOM      2  C   LIG    1       27.611 -17.411   4.385  0.00  0.00    -0.001 C 
ATOM      3  C   LIG    1       27.255 -16.072   4.109  0.00  0.00    +0.052 C 
ATOM      4  C   LIG    1       28.250 -14.954   4.200  0.00  0.00    +0.204 C 
ATOM      5  C   LIG    1       27.814 -13.578   3.875  0.00  0.00    +0.122 C 
ATOM      6  C   LIG    1       26.535 -13.407   3.515  0.00  0.00    +0.105 C 
ATOM      7  N   LIG    1       25.592 -14.406   3.392  0.00  0.00    -0.343 NA
ATOM      8  O   LIG    1       29.416 -15.127   4.544  0.00  0.00    -0.286 OA
ATOM      9  C   LIG    1       25.933 -15.748   3.729  0.00  0.00    +0.055 C 
ATOM     10  C   LIG    1       24.983 -16.782   3.678  0.00  0.00    +0.052 C 
ATOM     11  C   LIG    1       25.295 -18.126   3.931  0.00  0.00    +0.068 C 
ATOM     12  C   LIG    1       26.627 -18.411   4.266  0.00  0.00    +0.148 C 
ATOM     13  F   LIG    1       26.985 -19.682   4.515  0.00  0.00    -0.203 F 
ENDROOT
BRANCH  11  14
ATOM     14  N   LIG    1       24.275 -19.074   3.792  0.00  0.00    -0.325 NA
ATOM     15  C   LIG    1       23.357 -19.179   4.949  0.00  0.00    +0.123 C 
ATOM     16  C   LIG    1       22.051 -19.922   4.543  0.00  0.00    +0.068 C 
ATOM     17  C   LIG    1       21.150 -19.021   3.691  0.00  0.00    +0.025 C 
ATOM     18  N   LIG    1       22.286 -21.226   3.876  0.00  0.00    -0.310 NA
ATOM     19  H   LIG    1       22.695 -21.857   4.565  0.00  0.00    +0.122 HD
ATOM     20  C   LIG    1       23.265 -21.081   2.775  0.00  0.00    +0.100 C 
ATOM     21  C   LIG    1       24.583 -20.386   3.196  0.00  0.00    +0.120 C 
ENDBRANCH  11  14
BRANCH   7  22
ATOM     22  C   LIG    1       24.238 -14.024   2.942  0.00  0.00    +0.087 C 
ATOM     23  C   LIG    1       23.475 -12.888   3.586  0.00  0.00    +0.027 C 
ATOM     24  C   LIG    1       23.979 -12.741   2.188  0.00  0.00    +0.027 C 
ENDBRANCH   7  22
BRANCH   5  25
ATOM     25  C   LIG    1       28.702 -12.396   3.917  0.00  0.00    +0.342 C 
ATOM     26  O   LIG    1       29.079 -11.800   2.917  0.00  0.00    -0.245 OA
BRANCH  25  27
ATOM     27  O   LIG    1       29.088 -12.029   5.160  0.00  0.00    -0.477 OA
ATOM     28  H   LIG    1       28.794 -12.651   5.871  0.00  0.00    +0.295 HD
ENDBRANCH  25  27
ENDBRANCH   5  25
TORSDOF 4
ENDMDL
MODEL 3
REMARK VINA RESULT:       5.1      3.746      7.547
REMARK  Name = *****
REMARK                            x       y       z     vdW  Elec       q    Type
REMARK                         _______ _______ _______ _____ _____    ______ ____
ROOT
ATOM      1  C   LIG    1       26.914 -19.642   3.546  0.00  0.00    +0.048 C 
ATOM      2  C   LIG    1       26.082 -18.405   3.745  0.00  0.00    -0.001 C 
ATOM      3  C   LIG    1       24.709 -18.444   4.074  0.00  0.00    +0.052 C 
ATOM      4  C   LIG    1       23.979 -19.739   4.272  0.00  0.00    +0.204 C 
ATOM      5  C   LIG    1       22.545 -19.707   4.638  0.00  0.00    +0.122 C 
ATOM      6  C   LIG    1       21.973 -18.503   4.771  0.00  0.00    +0.105 C 
ATOM      7  N   LIG    1       22.607 -17.288   4.624  0.00  0.00    -0.343 NA
ATOM      8  O   LIG    1       24.518 -20.834   4.133  0.00  0.00    -0.286 OA
ATOM      9  C   LIG    1       23.977 -17.246   4.233  0.00  0.00    +0.055 C 
ATOM     10  C   LIG    1       24.640 -16.027   4.012  0.00  0.00    +0.052 C 
ATOM     11  C   LIG    1       26.005 -15.941   3.696  0.00  0.00    +0.068 C 
ATOM     12  C   LIG    1       26.704 -17.152   3.588  0.00  0.00    +0.148 C 
ATOM     13  F   LIG    1       28.014 -17.130   3.291  0.00  0.00    -0.203 F 
ENDROOT
BRANCH  11  14
ATOM     14  N   LIG    1       26.566 -14.666   3.557  0.00  0.00    -0.325 NA
ATOM     15  C   LIG    1       26.478 -14.090   2.196  0.00  0.00    +0.123 C 
ATOM     16  C   LIG    1       26.733 -12.555   2.236  0.00  0.00    +0.068 C 
ATOM     17  C   LIG    1       25.522 -11.813   2.813  0.00  0.00    +0.025 C 
ATOM     18  N   LIG    1       27.980 -12.173   2.943  0.00  0.00    -0.310 NA
ATOM     19  H   LIG    1       28.767 -12.513   2.389  0.00  0.00    +0.122 HD
ATOM     20  C   LIG    1       28.053 -12.832   4.266  0.00  0.00    +0.100 C 
ATOM     21  C   LIG    1       27.850 -14.365   4.215  0.00  0.00    +0.120 C 
ENDBRANCH  11  14
BRANCH   7  22
ATOM     22  C   LIG    1       21.813 -16.063   4.852  0.00  0.00    +0.087 C 
ATOM     23  C   LIG    1       21.622 -15.483   6.235  0.00  0.00    +0.027 C 
ATOM     24  C   LIG    1       22.459 -14.753   5.237  0.00  0.00    +0.027 C 
ENDBRANCH   7  22
BRANCH   5  25
ATOM     25  C   LIG    1       21.722 -20.913   4.870  0.00  0.00    +0.342 C 
ATOM     26  O   LIG    1       20.842 -21.286   4.107  0.00  0.00    -0.245 OA
BRANCH  25  27
ATOM     27  O   LIG    1       22.006 -21.572   6.017  0.00  0.00    -0.477 OA
ATOM     28  H   LIG    1       21.358 -22.284   6.240  0.00  0.00    +0.295 HD
ENDBRANCH  25  27
ENDBRANCH   5  25
TORSDOF 4
ENDMDL
