MODEL 1
REMARK VINA RESULT:       2.7      0.000      0.000
REMARK  Name = *****
REMARK                            x       y       z     vdW  Elec       q    Type
REMARK                         _______ _______ _______ _____ _____    ______ ____
ROOT
ATOM      1  C   LIG    1       25.857 -17.745   3.683  0.00  0.00    -0.017 C 
ATOM      2  C   LIG    1       25.927 -19.030   4.104  0.00  0.00    -0.013 C 
ATOM      3  C   LIG    1       26.984 -19.506   5.029  0.00  0.00    -0.004 A 
ATOM      4  C   LIG    1       26.729 -20.097   6.284  0.00  0.00    +0.016 A 
ATOM      5  C   LIG    1       27.832 -20.512   7.062  0.00  0.00    +0.015 A 
ATOM      6  C   LIG    1       29.145 -20.376   6.608  0.00  0.00    +0.001 A 
ATOM      7  C   LIG    1       29.387 -19.833   5.356  0.00  0.00    +0.001 A 
ATOM      8  S   LIG    1       25.144 -20.461   7.062  0.00  0.00    -0.120 S 
ATOM      9  C   LIG    1       23.893 -19.656   6.018  0.00  0.00    +0.110 C 
ATOM     10  C   LIG    1       23.818 -20.223   4.625  0.00  0.00    -0.029 A 
ATOM     11  C   LIG    1       22.767 -21.068   4.241  0.00  0.00    +0.005 A 
ATOM     12  C   LIG    1       22.705 -21.572   2.941  0.00  0.00    +0.000 A 
ATOM     13  C   LIG    1       23.693 -21.245   2.013  0.00  0.00    +0.001 A 
ATOM     14  C   LIG    1       24.749 -20.414   2.386  0.00  0.00    +0.009 A 
ATOM     15  C   LIG    1       28.316 -19.411   4.573  0.00  0.00    +0.009 A 
ATOM     16  C   LIG    1       24.814 -19.902   3.688  0.00  0.00    -0.014 A 
ENDROOT
BRANCH   1  17
ATOM     17  C   LIG    1       26.742 -16.587   4.072  0.00  0.00    +0.043 C 
BRANCH  17  18
ATOM     18  C   LIG    1       26.334 -15.288   3.352  0.00  0.00    +0.088 C 
BRANCH  18  20
ATOM     19  C   LIG    1       26.046 -13.649   5.091  0.00  0.00    +0.104 C 
ATOM     20  N   LIG    1       25.352 -14.478   4.100  0.00  0.00    -0.308 NA
ATOM     21  C   LIG    1       24.552 -13.623   3.220  0.00  0.00    +0.104 C 
ENDBRANCH  18  20
ENDBRANCH  17  18
ENDBRANCH   1  17
TORSDOF 3
ENDMDL
MODEL 2
REMARK VINA RESULT:       2.8      2.355      5.167
REMARK  Name = *****
REMARK                            x       y       z     vdW  Elec       q    Type
REMARK                         _______ _______ _______ _____ _____    ______ ____
ROOT
ATOM      1  C   LIG    1       24.104 -19.174   3.125  0.00  0.00    -0.017 C 
ATOM      2  C   LIG    1       24.786 -18.467   4.056  0.00  0.00    -0.013 C 
ATOM      3  C   LIG    1       25.854 -19.073   4.887  0.00  0.00    -0.004 A 
ATOM      4  C   LIG    1       27.186 -18.610   4.924  0.00  0.00    +0.016 A 
ATOM      5  C   LIG    1       28.100 -19.277   5.768  0.00  0.00    +0.015 A 
ATOM      6  C   LIG    1       27.711 -20.350   6.573  0.00  0.00    +0.001 A 
ATOM      7  C   LIG    1       26.391 -20.773   6.563  0.00  0.00    +0.001 A 
ATOM      8  S   LIG    1       27.921 -17.210   4.058  0.00  0.00    -0.120 S 
ATOM      9  C   LIG    1       26.657 -16.648   2.881  0.00  0.00    +0.110 C 
ATOM     10  C   LIG    1       25.410 -16.124   3.543  0.00  0.00    -0.029 A 
ATOM     11  C   LIG    1       25.144 -14.748   3.608  0.00  0.00    +0.005 A 
ATOM     12  C   LIG    1       23.976 -14.282   4.211  0.00  0.00    +0.000 A 
ATOM     13  C   LIG    1       23.064 -15.180   4.765  0.00  0.00    +0.001 A 
ATOM     14  C   LIG    1       23.322 -16.550   4.717  0.00  0.00    +0.009 A 
ATOM     15  C   LIG    1       25.472 -20.135   5.735  0.00  0.00    +0.009 A 
ATOM     16  C   LIG    1       24.490 -17.024   4.108  0.00  0.00    -0.014 A 
ENDROOT
BRANCH   1  17
ATOM     17  C   LIG    1       24.298 -20.614   2.719  0.00  0.00    +0.043 C 
BRANCH  17  18
ATOM     18  C   LIG    1       23.464 -21.571   3.590  0.00  0.00    +0.088 C 
BRANCH  18  20
ATOM     19  C   LIG    1       21.265 -20.814   4.211  0.00  0.00    +0.104 C 
ATOM     20  N   LIG    1       22.668 -20.888   4.630  0.00  0.00    -0.308 NA
ATOM     21  C   LIG    1       22.758 -21.561   5.928  0.00  0.00    +0.104 C 
ENDBRANCH  18  20
ENDBRANCH  17  18
ENDBRANCH   1  17
TORSDOF 3
ENDMDL
MODEL 3
REMARK VINA RESULT:       2.8      2.326      5.863
REMARK  Name = *****
REMARK                            x       y       z     vdW  Elec       q    Type
REMARK                         _______ _______ _______ _____ _____    ______ ____
ROOT
ATOM      1  C   LIG    1       27.211 -15.537   4.534  0.00  0.00    -0.017 C 
ATOM      2  C   LIG    1       26.047 -15.626   3.850  0.00  0.00    -0.013 C 
ATOM      3  C   LIG    1       25.316 -16.906   3.690  0.00  0.00    -0.004 A 
ATOM      4  C   LIG    1       23.988 -17.118   4.118  0.00  0.00    +0.016 A 
ATOM      5  C   LIG    1       23.411 -18.387   3.897  0.00  0.00    +0.015 A 
ATOM      6  C   LIG    1       24.106 -19.409   3.247  0.00  0.00    +0.001 A 
ATOM      7  C   LIG    1       25.395 -19.181   2.791  0.00  0.00    +0.001 A 
ATOM      8  S   LIG    1       22.853 -15.955   4.898  0.00  0.00    -0.120 S 
ATOM      9  C   LIG    1       23.851 -14.488   5.290  0.00  0.00    +0.110 C 
ATOM     10  C   LIG    1       24.396 -13.790   4.073  0.00  0.00    -0.029 A 
ATOM     11  C   LIG    1       23.842 -12.585   3.616  0.00  0.00    +0.005 A 
ATOM     12  C   LIG    1       24.371 -11.945   2.495  0.00  0.00    +0.000 A 
ATOM     13  C   LIG    1       25.452 -12.501   1.812  0.00  0.00    +0.001 A 
ATOM     14  C   LIG    1       26.005 -13.703   2.250  0.00  0.00    +0.009 A 
ATOM     15  C   LIG    1       25.988 -17.940   3.003  0.00  0.00    +0.009 A 
ATOM     16  C   LIG    1       25.482 -14.349   3.377  0.00  0.00    -0.014 A 
ENDROOT
BRANCH   1  17
ATOM     17  C   LIG    1       27.942 -16.628   5.275  0.00  0.00    +0.043 C 
BRANCH  17  18
ATOM     18  C   LIG    1       28.041 -17.920   4.443  0.00  0.00    +0.088 C 
BRANCH  18  20
ATOM     19  C   LIG    1       29.469 -18.577   6.266  0.00  0.00    +0.104 C 
ATOM     20  N   LIG    1       28.604 -19.064   5.188  0.00  0.00    -0.308 NA
ATOM     21  C   LIG    1       27.562 -19.928   5.747  0.00  0.00    +0.104 C 
ENDBRANCH  18  20
ENDBRANCH  17  18
ENDBRANCH   1  17
TORSDOF 3
ENDMDL
MODEL 4
REMARK VINA RESULT:       5.4      2.472      5.313
REMARK  Name = *****
REMARK                            x       y       z     vdW  Elec       q    Type
REMARK                         _______ _______ _______ _____ _____    ______ ____
ROOT
ATOM      1  C   LIG    1       24.423 -18.495   2.997  0.00  0.00    -0.017 C 
ATOM      2  C   LIG    1       25.097 -17.702   3.861  0.00  0.00    -0.013 C 
ATOM      3  C   LIG    1       26.399 -18.097   4.452  0.00  0.00    -0.004 A 
ATOM      4  C   LIG    1       27.590 -17.354   4.310  0.00  0.00    +0.016 A 
ATOM      5  C   LIG    1       28.759 -17.844   4.932  0.00  0.00    +0.015 A 
ATOM      6  C   LIG    1       28.752 -19.013   5.695  0.00  0.00    +0.001 A 
ATOM      7  C   LIG    1       27.569 -19.716   5.865  0.00  0.00    +0.001 A 
ATOM      8  S   LIG    1       27.850 -15.787   3.458  0.00  0.00    -0.120 S 
ATOM      9  C   LIG    1       26.308 -15.460   2.556  0.00  0.00    +0.110 C 
ATOM     10  C   LIG    1       25.118 -15.256   3.456  0.00  0.00    -0.029 A 
ATOM     11  C   LIG    1       24.586 -13.978   3.681  0.00  0.00    +0.005 A 
ATOM     12  C   LIG    1       23.474 -13.811   4.505  0.00  0.00    +0.000 A 
ATOM     13  C   LIG    1       22.883 -14.913   5.122  0.00  0.00    +0.001 A 
ATOM     14  C   LIG    1       23.408 -16.188   4.915  0.00  0.00    +0.009 A 
ATOM     15  C   LIG    1       26.405 -19.256   5.257  0.00  0.00    +0.009 A 
ATOM     16  C   LIG    1       24.522 -16.363   4.084  0.00  0.00    -0.014 A 
ENDROOT
BRANCH   1  17
ATOM     17  C   LIG    1       24.838 -19.836   2.443  0.00  0.00    +0.043 C 
BRANCH  17  18
ATOM     18  C   LIG    1       23.985 -20.982   3.018  0.00  0.00    +0.088 C 
BRANCH  18  20
ATOM     19  C   LIG    1       22.253 -21.220   4.672  0.00  0.00    +0.104 C 
ATOM     20  N   LIG    1       23.642 -20.809   4.444  0.00  0.00    -0.308 NA
ATOM     21  C   LIG    1       24.529 -21.572   5.324  0.00  0.00    +0.104 C 
ENDBRANCH  18  20
ENDBRANCH  17  18
ENDBRANCH   1  17
TORSDOF 3
ENDMDL
