MODEL 1
REMARK VINA RESULT:      -7.1      0.000      0.000
REMARK  Name = *****
REMARK                            x       y       z     vdW  Elec       q    Type
REMARK                         _______ _______ _______ _____ _____    ______ ____
ROOT
ATOM      1  C   LIG    1       27.051 -32.320   6.082  0.00  0.00    +0.025 C 
ATOM      2  C   LIG    1       25.546 -32.488   6.343  0.00  0.00    +0.042 C 
ATOM      3  C   LIG    1       25.292 -32.611   7.860  0.00  0.00    +0.201 C 
ATOM      4  N   LIG    1       24.958 -31.293   8.364  0.00  0.00    -0.271 N 
ATOM      5  C   LIG    1       24.235 -30.390   7.460  0.00  0.00    +0.165 C 
ATOM      6  C   LIG    1       25.054 -29.236   8.077  0.00  0.00    +0.190 C 
ATOM      7  C   LIG    1       25.908 -30.375   8.692  0.00  0.00    +0.240 C 
ATOM      8  O   LIG    1       27.018 -30.533   9.141  0.00  0.00    -0.273 OA
ATOM      9  S   LIG    1       24.692 -30.942   5.765  0.00  0.00    -0.127 S 
ATOM     10  C   LIG    1       25.036 -33.654   5.488  0.00  0.00    +0.025 C 
ENDROOT
BRANCH   6  11
ATOM     11  N   LIG    1       25.727 -28.310   7.137  0.00  0.00    -0.300 N 
ATOM     12  H   LIG    1       26.742 -28.271   7.070  0.00  0.00    +0.150 HD
ATOM     13  C   LIG    1       24.996 -27.355   6.456  0.00  0.00    +0.235 C 
ATOM     14  O   LIG    1       23.776 -27.278   6.581  0.00  0.00    -0.274 OA
BRANCH  13  15
ATOM     15  C   LIG    1       25.840 -26.443   5.533  0.00  0.00    +0.168 C 
BRANCH  15  16
ATOM     16  C   LIG    1       25.625 -24.960   5.788  0.00  0.00    -0.022 A 
ATOM     17  C   LIG    1       26.102 -24.333   6.953  0.00  0.00    +0.006 A 
ATOM     18  C   LIG    1       25.861 -22.977   7.185  0.00  0.00    +0.000 A 
ATOM     19  C   LIG    1       25.149 -22.224   6.254  0.00  0.00    +0.000 A 
ATOM     20  C   LIG    1       24.681 -22.825   5.089  0.00  0.00    +0.000 A 
ATOM     21  C   LIG    1       24.916 -24.183   4.856  0.00  0.00    +0.006 A 
ENDBRANCH  15  16
BRANCH  15  22
ATOM     22  N   LIG    1       27.266 -26.821   5.660  0.00  0.00    -0.316 NA
ATOM     23  H   LIG    1       27.822 -25.972   5.549  0.00  0.00    +0.119 HD
ATOM     24  H   LIG    1       27.422 -27.113   6.626  0.00  0.00    +0.119 HD
ENDBRANCH  15  22
ENDBRANCH  13  15
ENDBRANCH   6  11
BRANCH   3  25
ATOM     25  C   LIG    1       24.110 -33.475   8.276  0.00  0.00    +0.332 C 
ATOM     26  O   LIG    1       23.197 -33.825   7.537  0.00  0.00    -0.249 OA
BRANCH  25  27
ATOM     27  O   LIG    1       24.190 -33.767   9.597  0.00  0.00    -0.426 OA
BRANCH  27  28
ATOM     28  C   LIG    1       23.019 -33.429  10.342  0.00  0.00    +0.473 C 
BRANCH  28  29
ATOM     29  O   LIG    1       23.268 -32.275  11.144  0.00  0.00    -0.426 OA
BRANCH  29  30
ATOM     30  C   LIG    1       22.556 -31.188  10.762  0.00  0.00    +0.333 C 
ATOM     31  O   LIG    1       21.631 -31.200   9.959  0.00  0.00    -0.249 OA
BRANCH  30  32
ATOM     32  C   LIG    1       23.116 -29.920  11.392  0.00  0.00    +0.213 C 
ATOM     33  C   LIG    1       22.255 -29.433  12.574  0.00  0.00    +0.113 C 
ATOM     34  C   LIG    1       22.510 -27.945  12.858  0.00  0.00    +0.037 C 
ATOM     35  C   LIG    1       20.737 -29.600  12.405  0.00  0.00    +0.037 C 
ATOM     36  S   LIG    1       22.849 -30.479  13.951  0.00  0.00    -0.004 S 
ATOM     37  O   LIG    1       21.971 -31.630  14.052  0.00  0.00    -0.172 OA
ATOM     38  O   LIG    1       23.073 -29.640  15.113  0.00  0.00    -0.172 OA
ATOM     39  C   LIG    1       24.432 -31.003  13.254  0.00  0.00    +0.228 C 
ATOM     40  C   LIG    1       25.697 -30.205  13.577  0.00  0.00    +0.142 C 
ATOM     41  C   LIG    1       25.397 -29.443  12.278  0.00  0.00    +0.221 C 
ATOM     42  O   LIG    1       25.705 -28.376  11.780  0.00  0.00    -0.275 OA
ATOM     43  N   LIG    1       24.419 -30.316  11.935  0.00  0.00    -0.263 N 
ENDBRANCH  30  32
ENDBRANCH  29  30
ENDBRANCH  28  29
ENDBRANCH  27  28
ENDBRANCH  25  27
ENDBRANCH   3  25
TORSDOF 10
ENDMDL
MODEL 2
REMARK VINA RESULT:      -6.6      5.153      8.590
REMARK  Name = *****
REMARK                            x       y       z     vdW  Elec       q    Type
REMARK                         _______ _______ _______ _____ _____    ______ ____
ROOT
ATOM      1  C   LIG    1       25.511 -20.700   4.957  0.00  0.00    +0.025 C 
ATOM      2  C   LIG    1       24.852 -21.494   6.096  0.00  0.00    +0.042 C 
ATOM      3  C   LIG    1       25.555 -22.859   6.253  0.00  0.00    +0.201 C 
ATOM      4  N   LIG    1       26.560 -22.725   7.291  0.00  0.00    -0.271 N 
ATOM      5  C   LIG    1       26.274 -21.794   8.388  0.00  0.00    +0.165 C 
ATOM      6  C   LIG    1       27.779 -21.448   8.389  0.00  0.00    +0.190 C 
ATOM      7  C   LIG    1       27.800 -22.220   7.044  0.00  0.00    +0.240 C 
ATOM      8  O   LIG    1       28.483 -22.289   6.050  0.00  0.00    -0.273 OA
ATOM      9  S   LIG    1       25.119 -20.552   7.675  0.00  0.00    -0.127 S 
ATOM     10  C   LIG    1       23.343 -21.553   5.832  0.00  0.00    +0.025 C 
ENDROOT
BRANCH   6  11
ATOM     11  N   LIG    1       28.139 -20.012   8.358  0.00  0.00    -0.300 N 
ATOM     12  H   LIG    1       27.463 -19.304   8.078  0.00  0.00    +0.150 HD
ATOM     13  C   LIG    1       29.452 -19.619   8.539  0.00  0.00    +0.235 C 
ATOM     14  O   LIG    1       30.336 -20.440   8.769  0.00  0.00    -0.274 OA
BRANCH  13  15
ATOM     15  C   LIG    1       29.678 -18.090   8.449  0.00  0.00    +0.168 C 
BRANCH  15  16
ATOM     16  C   LIG    1       30.669 -17.565   9.475  0.00  0.00    -0.022 A 
ATOM     17  C   LIG    1       30.368 -17.536  10.848  0.00  0.00    +0.006 A 
ATOM     18  C   LIG    1       31.278 -17.015  11.770  0.00  0.00    +0.000 A 
ATOM     19  C   LIG    1       32.508 -16.524  11.337  0.00  0.00    +0.000 A 
ATOM     20  C   LIG    1       32.829 -16.558   9.982  0.00  0.00    +0.000 A 
ATOM     21  C   LIG    1       31.918 -17.073   9.057  0.00  0.00    +0.006 A 
ENDBRANCH  15  16
BRANCH  15  22
ATOM     22  N   LIG    1       30.083 -17.745   7.068  0.00  0.00    -0.316 NA
ATOM     23  H   LIG    1       31.103 -17.717   7.043  0.00  0.00    +0.119 HD
ATOM     24  H   LIG    1       29.825 -18.530   6.466  0.00  0.00    +0.119 HD
ENDBRANCH  15  22
ENDBRANCH  13  15
ENDBRANCH   6  11
BRANCH   3  25
ATOM     25  C   LIG    1       24.684 -24.013   6.730  0.00  0.00    +0.332 C 
ATOM     26  O   LIG    1       23.481 -23.944   6.952  0.00  0.00    -0.249 OA
BRANCH  25  27
ATOM     27  O   LIG    1       25.443 -25.120   6.917  0.00  0.00    -0.426 OA
BRANCH  27  28
ATOM     28  C   LIG    1       24.854 -26.323   6.418  0.00  0.00    +0.473 C 
BRANCH  28  29
ATOM     29  O   LIG    1       25.485 -27.456   7.011  0.00  0.00    -0.426 OA
BRANCH  29  30
ATOM     30  C   LIG    1       24.824 -28.618   6.792  0.00  0.00    +0.333 C 
ATOM     31  O   LIG    1       23.651 -28.707   6.453  0.00  0.00    -0.249 OA
BRANCH  30  32
ATOM     32  C   LIG    1       25.707 -29.817   7.116  0.00  0.00    +0.213 C 
ATOM     33  C   LIG    1       25.613 -30.218   8.601  0.00  0.00    +0.113 C 
ATOM     34  C   LIG    1       26.836 -31.048   9.020  0.00  0.00    +0.037 C 
ATOM     35  C   LIG    1       25.500 -29.055   9.599  0.00  0.00    +0.037 C 
ATOM     36  S   LIG    1       24.087 -31.226   8.640  0.00  0.00    -0.004 S 
ATOM     37  O   LIG    1       22.987 -30.358   9.017  0.00  0.00    -0.172 OA
ATOM     38  O   LIG    1       24.345 -32.434   9.399  0.00  0.00    -0.172 OA
ATOM     39  C   LIG    1       23.955 -31.618   6.881  0.00  0.00    +0.228 C 
ATOM     40  C   LIG    1       24.563 -32.919   6.353  0.00  0.00    +0.142 C 
ATOM     41  C   LIG    1       25.806 -32.069   6.052  0.00  0.00    +0.221 C 
ATOM     42  O   LIG    1       26.990 -32.263   5.849  0.00  0.00    -0.275 OA
ATOM     43  N   LIG    1       25.145 -30.919   6.329  0.00  0.00    -0.263 N 
ENDBRANCH  30  32
ENDBRANCH  29  30
ENDBRANCH  28  29
ENDBRANCH  27  28
ENDBRANCH  25  27
ENDBRANCH   3  25
TORSDOF 10
ENDMDL
MODEL 3
REMARK VINA RESULT:      -6.4      2.300      3.847
REMARK  Name = *****
REMARK                            x       y       z     vdW  Elec       q    Type
REMARK                         _______ _______ _______ _____ _____    ______ ____
ROOT
ATOM      1  C   LIG    1       25.605 -28.355  11.284  0.00  0.00    +0.025 C 
ATOM      2  C   LIG    1       26.174 -29.776  11.146  0.00  0.00    +0.042 C 
ATOM      3  C   LIG    1       25.025 -30.773  10.883  0.00  0.00    +0.201 C 
ATOM      4  N   LIG    1       24.923 -30.966   9.449  0.00  0.00    -0.271 N 
ATOM      5  C   LIG    1       26.163 -30.886   8.669  0.00  0.00    +0.165 C 
ATOM      6  C   LIG    1       25.331 -30.220   7.552  0.00  0.00    +0.190 C 
ATOM      7  C   LIG    1       24.237 -30.107   8.645  0.00  0.00    +0.240 C 
ATOM      8  O   LIG    1       23.250 -29.450   8.874  0.00  0.00    -0.273 OA
ATOM      9  S   LIG    1       27.280 -29.804   9.653  0.00  0.00    -0.127 S 
ATOM     10  C   LIG    1       27.039 -30.071  12.378  0.00  0.00    +0.025 C 
ENDROOT
BRANCH   6  11
ATOM     11  N   LIG    1       25.858 -28.959   6.981  0.00  0.00    -0.300 N 
ATOM     12  H   LIG    1       26.617 -28.452   7.431  0.00  0.00    +0.150 HD
ATOM     13  C   LIG    1       25.212 -28.352   5.921  0.00  0.00    +0.235 C 
ATOM     14  O   LIG    1       24.219 -28.859   5.404  0.00  0.00    -0.274 OA
BRANCH  13  15
ATOM     15  C   LIG    1       25.862 -27.026   5.453  0.00  0.00    +0.168 C 
BRANCH  15  16
ATOM     16  C   LIG    1       25.219 -25.791   6.060  0.00  0.00    -0.022 A 
ATOM     17  C   LIG    1       23.827 -25.595   6.038  0.00  0.00    +0.006 A 
ATOM     18  C   LIG    1       23.259 -24.434   6.570  0.00  0.00    +0.000 A 
ATOM     19  C   LIG    1       24.071 -23.456   7.139  0.00  0.00    +0.000 A 
ATOM     20  C   LIG    1       25.451 -23.639   7.181  0.00  0.00    +0.000 A 
ATOM     21  C   LIG    1       26.022 -24.797   6.646  0.00  0.00    +0.006 A 
ENDBRANCH  15  16
BRANCH  15  22
ATOM     22  N   LIG    1       27.315 -27.081   5.730  0.00  0.00    -0.316 NA
ATOM     23  H   LIG    1       27.627 -28.038   5.555  0.00  0.00    +0.119 HD
ATOM     24  H   LIG    1       27.786 -26.517   5.020  0.00  0.00    +0.119 HD
ENDBRANCH  15  22
ENDBRANCH  13  15
ENDBRANCH   6  11
BRANCH   3  25
ATOM     25  C   LIG    1       25.217 -32.180  11.432  0.00  0.00    +0.332 C 
ATOM     26  O   LIG    1       25.859 -33.069  10.885  0.00  0.00    -0.249 OA
BRANCH  25  27
ATOM     27  O   LIG    1       24.537 -32.320  12.596  0.00  0.00    -0.426 OA
BRANCH  27  28
ATOM     28  C   LIG    1       23.830 -33.556  12.713  0.00  0.00    +0.473 C 
BRANCH  28  29
ATOM     29  O   LIG    1       22.424 -33.320  12.660  0.00  0.00    -0.426 OA
BRANCH  29  30
ATOM     30  C   LIG    1       21.916 -32.827  13.815  0.00  0.00    +0.333 C 
ATOM     31  O   LIG    1       22.399 -33.000  14.927  0.00  0.00    -0.249 OA
BRANCH  30  32
ATOM     32  C   LIG    1       20.599 -32.102  13.566  0.00  0.00    +0.213 C 
ATOM     33  C   LIG    1       20.606 -30.676  14.152  0.00  0.00    +0.113 C 
ATOM     34  C   LIG    1       19.172 -30.163  14.353  0.00  0.00    +0.037 C 
ATOM     35  C   LIG    1       21.330 -30.513  15.497  0.00  0.00    +0.037 C 
ATOM     36  S   LIG    1       21.473 -29.722  12.855  0.00  0.00    -0.004 S 
ATOM     37  O   LIG    1       22.878 -29.654  13.212  0.00  0.00    -0.172 OA
ATOM     38  O   LIG    1       20.735 -28.500  12.601  0.00  0.00    -0.172 OA
ATOM     39  C   LIG    1       21.270 -30.865  11.471  0.00  0.00    +0.228 C 
ATOM     40  C   LIG    1       20.082 -30.693  10.522  0.00  0.00    +0.142 C 
ATOM     41  C   LIG    1       19.369 -31.701  11.435  0.00  0.00    +0.221 C 
ATOM     42  O   LIG    1       18.221 -32.029  11.675  0.00  0.00    -0.275 OA
ATOM     43  N   LIG    1       20.513 -31.975  12.107  0.00  0.00    -0.263 N 
ENDBRANCH  30  32
ENDBRANCH  29  30
ENDBRANCH  28  29
ENDBRANCH  27  28
ENDBRANCH  25  27
ENDBRANCH   3  25
TORSDOF 10
ENDMDL
MODEL 4
REMARK VINA RESULT:      -6.3      1.102      2.347
REMARK  Name = *****
REMARK                            x       y       z     vdW  Elec       q    Type
REMARK                         _______ _______ _______ _____ _____    ______ ____
ROOT
ATOM      1  C   LIG    1       27.179 -32.145   6.244  0.00  0.00    +0.025 C 
ATOM      2  C   LIG    1       25.704 -32.347   6.628  0.00  0.00    +0.042 C 
ATOM      3  C   LIG    1       25.569 -32.399   8.165  0.00  0.00    +0.201 C 
ATOM      4  N   LIG    1       25.227 -31.068   8.627  0.00  0.00    -0.271 N 
ATOM      5  C   LIG    1       24.408 -30.236   7.738  0.00  0.00    +0.165 C 
ATOM      6  C   LIG    1       25.229 -29.026   8.233  0.00  0.00    +0.190 C 
ATOM      7  C   LIG    1       26.167 -30.105   8.836  0.00  0.00    +0.240 C 
ATOM      8  O   LIG    1       27.313 -30.204   9.205  0.00  0.00    -0.273 OA
ATOM      9  S   LIG    1       24.755 -30.860   6.043  0.00  0.00    -0.127 S 
ATOM     10  C   LIG    1       25.173 -33.571   5.874  0.00  0.00    +0.025 C 
ENDROOT
BRANCH   6  11
ATOM     11  N   LIG    1       25.796 -28.130   7.200  0.00  0.00    -0.300 N 
ATOM     12  H   LIG    1       26.802 -28.016   7.093  0.00  0.00    +0.150 HD
ATOM     13  C   LIG    1       24.970 -27.295   6.472  0.00  0.00    +0.235 C 
ATOM     14  O   LIG    1       23.752 -27.305   6.634  0.00  0.00    -0.274 OA
BRANCH  13  15
ATOM     15  C   LIG    1       25.709 -26.396   5.451  0.00  0.00    +0.168 C 
BRANCH  15  16
ATOM     16  C   LIG    1       25.570 -24.911   5.740  0.00  0.00    -0.022 A 
ATOM     17  C   LIG    1       26.118 -24.327   6.896  0.00  0.00    +0.006 A 
ATOM     18  C   LIG    1       25.947 -22.967   7.161  0.00  0.00    +0.000 A 
ATOM     19  C   LIG    1       25.233 -22.166   6.273  0.00  0.00    +0.000 A 
ATOM     20  C   LIG    1       24.694 -22.724   5.116  0.00  0.00    +0.000 A 
ATOM     21  C   LIG    1       24.860 -24.086   4.851  0.00  0.00    +0.006 A 
ENDBRANCH  15  16
BRANCH  15  22
ATOM     22  N   LIG    1       27.129 -26.812   5.386  0.00  0.00    -0.316 NA
ATOM     23  H   LIG    1       27.415 -27.082   6.328  0.00  0.00    +0.119 HD
ATOM     24  H   LIG    1       27.173 -27.674   4.839  0.00  0.00    +0.119 HD
ENDBRANCH  15  22
ENDBRANCH  13  15
ENDBRANCH   6  11
BRANCH   3  25
ATOM     25  C   LIG    1       24.453 -33.278   8.712  0.00  0.00    +0.332 C 
ATOM     26  O   LIG    1       23.359 -33.438   8.185  0.00  0.00    -0.249 OA
BRANCH  25  27
ATOM     27  O   LIG    1       24.831 -33.825   9.893  0.00  0.00    -0.426 OA
BRANCH  27  28
ATOM     28  C   LIG    1       23.940 -33.549  10.976  0.00  0.00    +0.473 C 
BRANCH  28  29
ATOM     29  O   LIG    1       24.090 -32.194  11.396  0.00  0.00    -0.426 OA
BRANCH  29  30
ATOM     30  C   LIG    1       24.656 -32.069  12.621  0.00  0.00    +0.333 C 
ATOM     31  O   LIG    1       25.710 -32.588  12.965  0.00  0.00    -0.249 OA
BRANCH  30  32
ATOM     32  C   LIG    1       23.758 -31.269  13.557  0.00  0.00    +0.213 C 
ATOM     33  C   LIG    1       24.447 -29.987  14.063  0.00  0.00    +0.113 C 
ATOM     34  C   LIG    1       23.779 -29.480  15.350  0.00  0.00    +0.037 C 
ATOM     35  C   LIG    1       25.950 -30.112  14.360  0.00  0.00    +0.037 C 
ATOM     36  S   LIG    1       24.180 -28.824  12.677  0.00  0.00    -0.004 S 
ATOM     37  O   LIG    1       25.350 -28.870  11.821  0.00  0.00    -0.172 OA
ATOM     38  O   LIG    1       23.729 -27.554  13.213  0.00  0.00    -0.172 OA
ATOM     39  C   LIG    1       22.811 -29.667  11.853  0.00  0.00    +0.228 C 
ATOM     40  C   LIG    1       21.371 -29.277  12.197  0.00  0.00    +0.142 C 
ATOM     41  C   LIG    1       21.438 -30.422  13.217  0.00  0.00    +0.221 C 
ATOM     42  O   LIG    1       20.837 -30.756  14.222  0.00  0.00    -0.275 OA
ATOM     43  N   LIG    1       22.624 -30.856  12.725  0.00  0.00    -0.263 N 
ENDBRANCH  30  32
ENDBRANCH  29  30
ENDBRANCH  28  29
ENDBRANCH  27  28
ENDBRANCH  25  27
ENDBRANCH   3  25
TORSDOF 10
ENDMDL
MODEL 5
REMARK VINA RESULT:      -6.3      2.584      4.004
REMARK  Name = *****
REMARK                            x       y       z     vdW  Elec       q    Type
REMARK                         _______ _______ _______ _____ _____    ______ ____
ROOT
ATOM      1  C   LIG    1       25.541 -28.556  11.184  0.00  0.00    +0.025 C 
ATOM      2  C   LIG    1       26.098 -29.976  11.000  0.00  0.00    +0.042 C 
ATOM      3  C   LIG    1       24.943 -30.951  10.683  0.00  0.00    +0.201 C 
ATOM      4  N   LIG    1       24.859 -31.087   9.242  0.00  0.00    -0.271 N 
ATOM      5  C   LIG    1       26.111 -30.991   8.482  0.00  0.00    +0.165 C 
ATOM      6  C   LIG    1       25.301 -30.274   7.380  0.00  0.00    +0.190 C 
ATOM      7  C   LIG    1       24.192 -30.192   8.462  0.00  0.00    +0.240 C 
ATOM      8  O   LIG    1       23.209 -29.534   8.702  0.00  0.00    -0.273 OA
ATOM      9  S   LIG    1       27.224 -29.959   9.522  0.00  0.00    -0.127 S 
ATOM     10  C   LIG    1       26.942 -30.326  12.230  0.00  0.00    +0.025 C 
ENDROOT
BRANCH   6  11
ATOM     11  N   LIG    1       25.847 -28.998   6.865  0.00  0.00    -0.300 N 
ATOM     12  H   LIG    1       26.606 -28.517   7.344  0.00  0.00    +0.150 HD
ATOM     13  C   LIG    1       25.222 -28.344   5.821  0.00  0.00    +0.235 C 
ATOM     14  O   LIG    1       24.231 -28.820   5.272  0.00  0.00    -0.274 OA
BRANCH  13  15
ATOM     15  C   LIG    1       25.891 -27.008   5.412  0.00  0.00    +0.168 C 
BRANCH  15  16
ATOM     16  C   LIG    1       25.237 -25.788   6.039  0.00  0.00    -0.022 A 
ATOM     17  C   LIG    1       23.845 -25.597   6.008  0.00  0.00    +0.006 A 
ATOM     18  C   LIG    1       23.267 -24.450   6.558  0.00  0.00    +0.000 A 
ATOM     19  C   LIG    1       24.069 -23.482   7.155  0.00  0.00    +0.000 A 
ATOM     20  C   LIG    1       25.449 -23.660   7.208  0.00  0.00    +0.000 A 
ATOM     21  C   LIG    1       26.031 -24.804   6.654  0.00  0.00    +0.006 A 
ENDBRANCH  15  16
BRANCH  15  22
ATOM     22  N   LIG    1       27.336 -27.080   5.728  0.00  0.00    -0.316 NA
ATOM     23  H   LIG    1       27.688 -26.123   5.784  0.00  0.00    +0.119 HD
ATOM     24  H   LIG    1       27.426 -27.450   6.676  0.00  0.00    +0.119 HD
ENDBRANCH  15  22
ENDBRANCH  13  15
ENDBRANCH   6  11
BRANCH   3  25
ATOM     25  C   LIG    1       25.114 -32.379  11.180  0.00  0.00    +0.332 C 
ATOM     26  O   LIG    1       25.951 -33.174  10.769  0.00  0.00    -0.249 OA
BRANCH  25  27
ATOM     27  O   LIG    1       24.175 -32.660  12.116  0.00  0.00    -0.426 OA
BRANCH  27  28
ATOM     28  C   LIG    1       22.852 -32.797  11.593  0.00  0.00    +0.473 C 
BRANCH  28  29
ATOM     29  O   LIG    1       22.124 -33.758  12.356  0.00  0.00    -0.426 OA
BRANCH  29  30
ATOM     30  C   LIG    1       21.004 -33.256  12.928  0.00  0.00    +0.333 C 
ATOM     31  O   LIG    1       20.356 -33.809  13.808  0.00  0.00    -0.249 OA
BRANCH  30  32
ATOM     32  C   LIG    1       20.592 -31.948  12.265  0.00  0.00    +0.213 C 
ATOM     33  C   LIG    1       19.380 -32.131  11.331  0.00  0.00    +0.113 C 
ATOM     34  C   LIG    1       19.298 -30.984  10.312  0.00  0.00    +0.037 C 
ATOM     35  C   LIG    1       19.349 -33.441  10.528  0.00  0.00    +0.037 C 
ATOM     36  S   LIG    1       17.972 -32.080  12.497  0.00  0.00    -0.004 S 
ATOM     37  O   LIG    1       17.640 -33.445  12.859  0.00  0.00    -0.172 OA
ATOM     38  O   LIG    1       16.948 -31.208  11.956  0.00  0.00    -0.172 OA
ATOM     39  C   LIG    1       18.787 -31.280  13.897  0.00  0.00    +0.228 C 
ATOM     40  C   LIG    1       18.707 -29.758  14.045  0.00  0.00    +0.142 C 
ATOM     41  C   LIG    1       20.039 -29.740  13.283  0.00  0.00    +0.221 C 
ATOM     42  O   LIG    1       20.687 -28.934  12.641  0.00  0.00    -0.275 OA
ATOM     43  N   LIG    1       20.164 -31.087  13.372  0.00  0.00    -0.263 N 
ENDBRANCH  30  32
ENDBRANCH  29  30
ENDBRANCH  28  29
ENDBRANCH  27  28
ENDBRANCH  25  27
ENDBRANCH   3  25
TORSDOF 10
ENDMDL
MODEL 6
REMARK VINA RESULT:      -6.2      4.915      8.256
REMARK  Name = *****
REMARK                            x       y       z     vdW  Elec       q    Type
REMARK                         _______ _______ _______ _____ _____    ______ ____
ROOT
ATOM      1  C   LIG    1       25.234 -21.016   4.812  0.00  0.00    +0.025 C 
ATOM      2  C   LIG    1       24.506 -21.720   5.968  0.00  0.00    +0.042 C 
ATOM      3  C   LIG    1       25.152 -23.098   6.227  0.00  0.00    +0.201 C 
ATOM      4  N   LIG    1       26.124 -22.940   7.292  0.00  0.00    -0.271 N 
ATOM      5  C   LIG    1       25.834 -21.939   8.325  0.00  0.00    +0.165 C 
ATOM      6  C   LIG    1       27.350 -21.646   8.363  0.00  0.00    +0.190 C 
ATOM      7  C   LIG    1       27.390 -22.493   7.064  0.00  0.00    +0.240 C 
ATOM      8  O   LIG    1       28.105 -22.643   6.102  0.00  0.00    -0.273 OA
ATOM      9  S   LIG    1       24.752 -20.700   7.501  0.00  0.00    -0.127 S 
ATOM     10  C   LIG    1       23.006 -21.741   5.652  0.00  0.00    +0.025 C 
ENDROOT
BRANCH   6  11
ATOM     11  N   LIG    1       27.764 -20.228   8.265  0.00  0.00    -0.300 N 
ATOM     12  H   LIG    1       27.088 -19.493   8.064  0.00  0.00    +0.150 HD
ATOM     13  C   LIG    1       29.104 -19.891   8.269  0.00  0.00    +0.235 C 
ATOM     14  O   LIG    1       29.976 -20.748   8.394  0.00  0.00    -0.274 OA
BRANCH  13  15
ATOM     15  C   LIG    1       29.382 -18.374   8.129  0.00  0.00    +0.168 C 
BRANCH  15  16
ATOM     16  C   LIG    1       30.369 -17.844   9.156  0.00  0.00    -0.022 A 
ATOM     17  C   LIG    1       30.021 -17.699  10.511  0.00  0.00    +0.006 A 
ATOM     18  C   LIG    1       30.931 -17.175  11.431  0.00  0.00    +0.000 A 
ATOM     19  C   LIG    1       32.206 -16.797  11.016  0.00  0.00    +0.000 A 
ATOM     20  C   LIG    1       32.573 -16.946   9.682  0.00  0.00    +0.000 A 
ATOM     21  C   LIG    1       31.662 -17.465   8.757  0.00  0.00    +0.006 A 
ENDBRANCH  15  16
BRANCH  15  22
ATOM     22  N   LIG    1       29.826 -18.093   6.745  0.00  0.00    -0.316 NA
ATOM     23  H   LIG    1       30.232 -18.952   6.371  0.00  0.00    +0.119 HD
ATOM     24  H   LIG    1       28.990 -17.929   6.181  0.00  0.00    +0.119 HD
ENDBRANCH  15  22
ENDBRANCH  13  15
ENDBRANCH   6  11
BRANCH   3  25
ATOM     25  C   LIG    1       24.223 -24.192   6.735  0.00  0.00    +0.332 C 
ATOM     26  O   LIG    1       23.007 -24.089   6.845  0.00  0.00    -0.249 OA
BRANCH  25  27
ATOM     27  O   LIG    1       24.943 -25.284   7.089  0.00  0.00    -0.426 OA
BRANCH  27  28
ATOM     28  C   LIG    1       24.569 -26.478   6.400  0.00  0.00    +0.473 C 
BRANCH  28  29
ATOM     29  O   LIG    1       25.226 -27.603   6.983  0.00  0.00    -0.426 OA
BRANCH  29  30
ATOM     30  C   LIG    1       24.688 -28.791   6.617  0.00  0.00    +0.333 C 
ATOM     31  O   LIG    1       24.467 -29.138   5.464  0.00  0.00    -0.249 OA
BRANCH  30  32
ATOM     32  C   LIG    1       24.302 -29.614   7.840  0.00  0.00    +0.213 C 
ATOM     33  C   LIG    1       24.250 -31.122   7.528  0.00  0.00    +0.113 C 
ATOM     34  C   LIG    1       23.394 -31.865   8.564  0.00  0.00    +0.037 C 
ATOM     35  C   LIG    1       23.698 -31.497   6.143  0.00  0.00    +0.037 C 
ATOM     36  S   LIG    1       26.008 -31.610   7.651  0.00  0.00    -0.004 S 
ATOM     37  O   LIG    1       26.582 -31.563   6.319  0.00  0.00    -0.172 OA
ATOM     38  O   LIG    1       26.101 -32.828   8.433  0.00  0.00    -0.172 OA
ATOM     39  C   LIG    1       26.629 -30.212   8.612  0.00  0.00    +0.228 C 
ATOM     40  C   LIG    1       26.698 -30.319  10.137  0.00  0.00    +0.142 C 
ATOM     41  C   LIG    1       25.308 -29.667  10.120  0.00  0.00    +0.221 C 
ATOM     42  O   LIG    1       24.360 -29.570  10.878  0.00  0.00    -0.275 OA
ATOM     43  N   LIG    1       25.395 -29.403   8.794  0.00  0.00    -0.263 N 
ENDBRANCH  30  32
ENDBRANCH  29  30
ENDBRANCH  28  29
ENDBRANCH  27  28
ENDBRANCH  25  27
ENDBRANCH   3  25
TORSDOF 10
ENDMDL
MODEL 7
REMARK VINA RESULT:      -5.9      1.762      2.561
REMARK  Name = *****
REMARK                            x       y       z     vdW  Elec       q    Type
REMARK                         _______ _______ _______ _____ _____    ______ ____
ROOT
ATOM      1  C   LIG    1       27.106 -32.198   6.612  0.00  0.00    +0.025 C 
ATOM      2  C   LIG    1       25.627 -32.346   7.001  0.00  0.00    +0.042 C 
ATOM      3  C   LIG    1       25.487 -32.310   8.538  0.00  0.00    +0.201 C 
ATOM      4  N   LIG    1       25.173 -30.947   8.924  0.00  0.00    -0.271 N 
ATOM      5  C   LIG    1       24.374 -30.149   7.987  0.00  0.00    +0.165 C 
ATOM      6  C   LIG    1       25.220 -28.932   8.416  0.00  0.00    +0.190 C 
ATOM      7  C   LIG    1       26.133 -29.994   9.082  0.00  0.00    +0.240 C 
ATOM      8  O   LIG    1       27.275 -30.098   9.460  0.00  0.00    -0.273 OA
ATOM      9  S   LIG    1       24.712 -30.875   6.330  0.00  0.00    -0.127 S 
ATOM     10  C   LIG    1       25.071 -33.599   6.314  0.00  0.00    +0.025 C 
ENDROOT
BRANCH   6  11
ATOM     11  N   LIG    1       25.809 -28.107   7.336  0.00  0.00    -0.300 N 
ATOM     12  H   LIG    1       26.817 -28.032   7.218  0.00  0.00    +0.150 HD
ATOM     13  C   LIG    1       25.005 -27.281   6.573  0.00  0.00    +0.235 C 
ATOM     14  O   LIG    1       23.788 -27.242   6.743  0.00  0.00    -0.274 OA
BRANCH  13  15
ATOM     15  C   LIG    1       25.766 -26.459   5.504  0.00  0.00    +0.168 C 
BRANCH  15  16
ATOM     16  C   LIG    1       25.595 -24.957   5.662  0.00  0.00    -0.022 A 
ATOM     17  C   LIG    1       26.139 -24.261   6.754  0.00  0.00    +0.006 A 
ATOM     18  C   LIG    1       25.939 -22.886   6.899  0.00  0.00    +0.000 A 
ATOM     19  C   LIG    1       25.200 -22.184   5.950  0.00  0.00    +0.000 A 
ATOM     20  C   LIG    1       24.664 -22.855   4.854  0.00  0.00    +0.000 A 
ATOM     21  C   LIG    1       24.859 -24.231   4.709  0.00  0.00    +0.006 A 
ENDBRANCH  15  16
BRANCH  15  22
ATOM     22  N   LIG    1       27.193 -26.854   5.523  0.00  0.00    -0.316 NA
ATOM     23  H   LIG    1       27.670 -26.322   4.794  0.00  0.00    +0.119 HD
ATOM     24  H   LIG    1       27.594 -26.518   6.400  0.00  0.00    +0.119 HD
ENDBRANCH  15  22
ENDBRANCH  13  15
ENDBRANCH   6  11
BRANCH   3  25
ATOM     25  C   LIG    1       24.351 -33.132   9.129  0.00  0.00    +0.332 C 
ATOM     26  O   LIG    1       23.197 -33.139   8.718  0.00  0.00    -0.249 OA
BRANCH  25  27
ATOM     27  O   LIG    1       24.793 -33.825  10.207  0.00  0.00    -0.426 OA
BRANCH  27  28
ATOM     28  C   LIG    1       24.344 -33.304  11.459  0.00  0.00    +0.473 C 
BRANCH  28  29
ATOM     29  O   LIG    1       22.940 -33.509  11.597  0.00  0.00    -0.426 OA
BRANCH  29  30
ATOM     30  C   LIG    1       22.379 -32.764  12.580  0.00  0.00    +0.333 C 
ATOM     31  O   LIG    1       22.407 -33.040  13.773  0.00  0.00    -0.249 OA
BRANCH  30  32
ATOM     32  C   LIG    1       21.620 -31.577  12.000  0.00  0.00    +0.213 C 
ATOM     33  C   LIG    1       20.262 -31.996  11.404  0.00  0.00    +0.113 C 
ATOM     34  C   LIG    1       19.758 -30.946  10.402  0.00  0.00    +0.037 C 
ATOM     35  C   LIG    1       20.244 -33.350  10.676  0.00  0.00    +0.037 C 
ATOM     36  S   LIG    1       19.188 -32.068  12.882  0.00  0.00    -0.004 S 
ATOM     37  O   LIG    1       19.170 -33.439  13.358  0.00  0.00    -0.172 OA
ATOM     38  O   LIG    1       17.940 -31.392  12.586  0.00  0.00    -0.172 OA
ATOM     39  C   LIG    1       20.181 -31.064  14.009  0.00  0.00    +0.228 C 
ATOM     40  C   LIG    1       19.903 -29.563  14.124  0.00  0.00    +0.142 C 
ATOM     41  C   LIG    1       20.992 -29.407  13.053  0.00  0.00    +0.221 C 
ATOM     42  O   LIG    1       21.332 -28.562  12.246  0.00  0.00    -0.275 OA
ATOM     43  N   LIG    1       21.343 -30.712  13.151  0.00  0.00    -0.263 N 
ENDBRANCH  30  32
ENDBRANCH  29  30
ENDBRANCH  28  29
ENDBRANCH  27  28
ENDBRANCH  25  27
ENDBRANCH   3  25
TORSDOF 10
ENDMDL
MODEL 8
REMARK VINA RESULT:      -5.8      3.319      9.086
REMARK  Name = *****
REMARK                            x       y       z     vdW  Elec       q    Type
REMARK                         _______ _______ _______ _____ _____    ______ ____
ROOT
ATOM      1  C   LIG    1       23.814 -32.307   6.785  0.00  0.00    +0.025 C 
ATOM      2  C   LIG    1       24.940 -31.317   6.451  0.00  0.00    +0.042 C 
ATOM      3  C   LIG    1       24.439 -29.871   6.653  0.00  0.00    +0.201 C 
ATOM      4  N   LIG    1       24.828 -29.448   7.985  0.00  0.00    -0.271 N 
ATOM      5  C   LIG    1       26.082 -29.987   8.523  0.00  0.00    +0.165 C 
ATOM      6  C   LIG    1       25.392 -30.014   9.904  0.00  0.00    +0.190 C 
ATOM      7  C   LIG    1       24.097 -29.757   9.091  0.00  0.00    +0.240 C 
ATOM      8  O   LIG    1       22.904 -29.899   9.219  0.00  0.00    -0.273 OA
ATOM      9  S   LIG    1       26.321 -31.595   7.663  0.00  0.00    -0.127 S 
ATOM     10  C   LIG    1       25.471 -31.644   5.050  0.00  0.00    +0.025 C 
ENDROOT
BRANCH   6  11
ATOM     11  N   LIG    1       25.476 -31.276  10.673  0.00  0.00    -0.300 N 
ATOM     12  H   LIG    1       25.627 -32.170  10.208  0.00  0.00    +0.150 HD
ATOM     13  C   LIG    1       25.176 -31.292  12.022  0.00  0.00    +0.235 C 
ATOM     14  O   LIG    1       24.875 -30.261  12.620  0.00  0.00    -0.274 OA
BRANCH  13  15
ATOM     15  C   LIG    1       25.279 -32.689  12.683  0.00  0.00    +0.168 C 
BRANCH  15  16
ATOM     16  C   LIG    1       24.013 -33.107  13.412  0.00  0.00    -0.022 A 
ATOM     17  C   LIG    1       22.791 -33.273  12.738  0.00  0.00    +0.006 A 
ATOM     18  C   LIG    1       21.631 -33.622  13.433  0.00  0.00    +0.000 A 
ATOM     19  C   LIG    1       21.675 -33.820  14.811  0.00  0.00    +0.000 A 
ATOM     20  C   LIG    1       22.879 -33.673  15.494  0.00  0.00    +0.000 A 
ATOM     21  C   LIG    1       24.040 -33.318  14.802  0.00  0.00    +0.006 A 
ENDBRANCH  15  16
BRANCH  15  22
ATOM     22  N   LIG    1       25.672 -33.678  11.655  0.00  0.00    -0.316 NA
ATOM     23  H   LIG    1       25.865 -34.559  12.132  0.00  0.00    +0.119 HD
ATOM     24  H   LIG    1       24.851 -33.865  11.077  0.00  0.00    +0.119 HD
ENDBRANCH  15  22
ENDBRANCH  13  15
ENDBRANCH   6  11
BRANCH   3  25
ATOM     25  C   LIG    1       25.044 -28.815   5.739  0.00  0.00    +0.332 C 
ATOM     26  O   LIG    1       25.861 -29.034   4.853  0.00  0.00    -0.249 OA
BRANCH  25  27
ATOM     27  O   LIG    1       24.580 -27.588   6.078  0.00  0.00    -0.426 OA
BRANCH  27  28
ATOM     28  C   LIG    1       25.390 -26.508   5.611  0.00  0.00    +0.473 C 
BRANCH  28  29
ATOM     29  O   LIG    1       24.577 -25.364   5.355  0.00  0.00    -0.426 OA
BRANCH  29  30
ATOM     30  C   LIG    1       25.158 -24.196   5.721  0.00  0.00    +0.333 C 
ATOM     31  O   LIG    1       26.137 -24.096   6.450  0.00  0.00    -0.249 OA
BRANCH  30  32
ATOM     32  C   LIG    1       24.374 -23.005   5.183  0.00  0.00    +0.213 C 
ATOM     33  C   LIG    1       23.314 -22.511   6.187  0.00  0.00    +0.113 C 
ATOM     34  C   LIG    1       22.227 -21.693   5.475  0.00  0.00    +0.037 C 
ATOM     35  C   LIG    1       22.594 -23.607   6.989  0.00  0.00    +0.037 C 
ATOM     36  S   LIG    1       24.300 -21.460   7.314  0.00  0.00    -0.004 S 
ATOM     37  O   LIG    1       24.701 -22.270   8.449  0.00  0.00    -0.172 OA
ATOM     38  O   LIG    1       23.590 -20.215   7.532  0.00  0.00    -0.172 OA
ATOM     39  C   LIG    1       25.737 -21.173   6.257  0.00  0.00    +0.228 C 
ATOM     40  C   LIG    1       25.783 -19.924   5.373  0.00  0.00    +0.142 C 
ATOM     41  C   LIG    1       25.185 -20.827   4.284  0.00  0.00    +0.221 C 
ATOM     42  O   LIG    1       24.579 -20.679   3.239  0.00  0.00    -0.275 OA
ATOM     43  N   LIG    1       25.369 -21.938   5.037  0.00  0.00    -0.263 N 
ENDBRANCH  30  32
ENDBRANCH  29  30
ENDBRANCH  28  29
ENDBRANCH  27  28
ENDBRANCH  25  27
ENDBRANCH   3  25
TORSDOF 10
ENDMDL
MODEL 9
REMARK VINA RESULT:      -5.7      2.585      4.687
REMARK  Name = *****
REMARK                            x       y       z     vdW  Elec       q    Type
REMARK                         _______ _______ _______ _____ _____    ______ ____
ROOT
ATOM      1  C   LIG    1       26.410 -28.126  10.937  0.00  0.00    +0.025 C 
ATOM      2  C   LIG    1       26.812 -29.503  11.487  0.00  0.00    +0.042 C 
ATOM      3  C   LIG    1       25.576 -30.202  12.094  0.00  0.00    +0.201 C 
ATOM      4  N   LIG    1       25.013 -31.071  11.078  0.00  0.00    -0.271 N 
ATOM      5  C   LIG    1       25.945 -31.687  10.127  0.00  0.00    +0.165 C 
ATOM      6  C   LIG    1       24.849 -31.517   9.054  0.00  0.00    +0.190 C 
ATOM      7  C   LIG    1       24.166 -30.615  10.115  0.00  0.00    +0.240 C 
ATOM      8  O   LIG    1       23.347 -29.727  10.157  0.00  0.00    -0.273 OA
ATOM      9  S   LIG    1       27.385 -30.543  10.058  0.00  0.00    -0.127 S 
ATOM     10  C   LIG    1       28.000 -29.316  12.438  0.00  0.00    +0.025 C 
ENDROOT
BRANCH   6  11
ATOM     11  N   LIG    1       25.249 -30.885   7.777  0.00  0.00    -0.300 N 
ATOM     12  H   LIG    1       26.087 -30.310   7.711  0.00  0.00    +0.150 HD
ATOM     13  C   LIG    1       24.400 -30.917   6.687  0.00  0.00    +0.235 C 
ATOM     14  O   LIG    1       23.320 -31.500   6.738  0.00  0.00    -0.274 OA
BRANCH  13  15
ATOM     15  C   LIG    1       24.943 -30.188   5.433  0.00  0.00    +0.168 C 
BRANCH  15  16
ATOM     16  C   LIG    1       25.128 -28.694   5.635  0.00  0.00    -0.022 A 
ATOM     17  C   LIG    1       24.169 -27.913   6.304  0.00  0.00    +0.006 A 
ATOM     18  C   LIG    1       24.341 -26.535   6.447  0.00  0.00    +0.000 A 
ATOM     19  C   LIG    1       25.477 -25.915   5.932  0.00  0.00    +0.000 A 
ATOM     20  C   LIG    1       26.445 -26.674   5.279  0.00  0.00    +0.000 A 
ATOM     21  C   LIG    1       26.273 -28.053   5.130  0.00  0.00    +0.006 A 
ENDBRANCH  15  16
BRANCH  15  22
ATOM     22  N   LIG    1       26.200 -30.844   5.004  0.00  0.00    -0.316 NA
ATOM     23  H   LIG    1       26.790 -30.130   4.575  0.00  0.00    +0.119 HD
ATOM     24  H   LIG    1       26.701 -31.129   5.847  0.00  0.00    +0.119 HD
ENDBRANCH  15  22
ENDBRANCH  13  15
ENDBRANCH   6  11
BRANCH   3  25
ATOM     25  C   LIG    1       25.838 -31.131  13.271  0.00  0.00    +0.332 C 
ATOM     26  O   LIG    1       26.320 -32.254  13.189  0.00  0.00    -0.249 OA
BRANCH  25  27
ATOM     27  O   LIG    1       25.421 -30.550  14.422  0.00  0.00    -0.426 OA
BRANCH  27  28
ATOM     28  C   LIG    1       24.017 -30.286  14.467  0.00  0.00    +0.473 C 
BRANCH  28  29
ATOM     29  O   LIG    1       23.291 -31.514  14.454  0.00  0.00    -0.426 OA
BRANCH  29  30
ATOM     30  C   LIG    1       21.957 -31.354  14.626  0.00  0.00    +0.333 C 
ATOM     31  O   LIG    1       21.289 -31.901  15.495  0.00  0.00    -0.249 OA
BRANCH  30  32
ATOM     32  C   LIG    1       21.368 -30.471  13.533  0.00  0.00    +0.213 C 
ATOM     33  C   LIG    1       20.419 -31.256  12.606  0.00  0.00    +0.113 C 
ATOM     34  C   LIG    1       20.247 -30.532  11.262  0.00  0.00    +0.037 C 
ATOM     35  C   LIG    1       20.845 -32.697  12.284  0.00  0.00    +0.037 C 
ATOM     36  S   LIG    1       18.857 -31.264  13.557  0.00  0.00    -0.004 S 
ATOM     37  O   LIG    1       18.802 -32.498  14.319  0.00  0.00    -0.172 OA
ATOM     38  O   LIG    1       17.766 -30.918  12.667  0.00  0.00    -0.172 OA
ATOM     39  C   LIG    1       19.197 -29.891  14.681  0.00  0.00    +0.228 C 
ATOM     40  C   LIG    1       18.731 -28.481  14.308  0.00  0.00    +0.142 C 
ATOM     41  C   LIG    1       20.133 -28.312  13.707  0.00  0.00    +0.221 C 
ATOM     42  O   LIG    1       20.673 -27.582  12.897  0.00  0.00    -0.275 OA
ATOM     43  N   LIG    1       20.558 -29.480  14.248  0.00  0.00    -0.263 N 
ENDBRANCH  30  32
ENDBRANCH  29  30
ENDBRANCH  28  29
ENDBRANCH  27  28
ENDBRANCH  25  27
ENDBRANCH   3  25
TORSDOF 10
ENDMDL
