MODEL 1
REMARK VINA RESULT:      -5.7      0.000      0.000
REMARK  Name = *****
REMARK                            x       y       z     vdW  Elec       q    Type
REMARK                         _______ _______ _______ _____ _____    ______ ____
ROOT
ATOM      1  C   LIG    1       24.167 -25.156   6.237  0.00  0.00    +0.121 A 
ATOM      2  C   LIG    1       25.530 -24.931   6.448  0.00  0.00    +0.045 A 
ATOM      3  C   LIG    1       25.977 -23.723   6.987  0.00  0.00    +0.004 A 
ATOM      4  C   LIG    1       25.059 -22.728   7.321  0.00  0.00    +0.000 A 
ATOM      5  C   LIG    1       23.700 -22.942   7.111  0.00  0.00    +0.004 A 
ATOM      6  C   LIG    1       23.255 -24.152   6.571  0.00  0.00    +0.045 A 
ENDROOT
BRANCH   1   7
ATOM      7  O   LIG    1       23.853 -26.380   5.709  0.00  0.00    -0.490 OA
BRANCH   7   8
ATOM      8  C   LIG    1       24.483 -27.510   6.312  0.00  0.00    +0.257 C 
BRANCH   8   9
ATOM      9  C   LIG    1       24.480 -28.675   5.330  0.00  0.00    +0.197 C 
BRANCH   9  10
ATOM     10  O   LIG    1       23.253 -29.390   5.431  0.00  0.00    -0.392 OA
ATOM     11  H   LIG    1       22.651 -28.847   5.968  0.00  0.00    +0.209 HD
ENDBRANCH   9  10
ENDBRANCH   8   9
ENDBRANCH   7   8
ENDBRANCH   1   7
TORSDOF 4
ENDMDL
MODEL 2
REMARK VINA RESULT:      -5.7      4.714      6.160
REMARK  Name = *****
REMARK                            x       y       z     vdW  Elec       q    Type
REMARK                         _______ _______ _______ _____ _____    ______ ____
ROOT
ATOM      1  C   LIG    1       24.337 -20.819   5.530  0.00  0.00    +0.121 A 
ATOM      2  C   LIG    1       24.996 -20.259   4.432  0.00  0.00    +0.045 A 
ATOM      3  C   LIG    1       24.385 -19.263   3.667  0.00  0.00    +0.004 A 
ATOM      4  C   LIG    1       23.105 -18.818   3.997  0.00  0.00    +0.000 A 
ATOM      5  C   LIG    1       22.441 -19.374   5.086  0.00  0.00    +0.004 A 
ATOM      6  C   LIG    1       23.054 -20.370   5.851  0.00  0.00    +0.045 A 
ENDROOT
BRANCH   1   7
ATOM      7  O   LIG    1       25.041 -21.781   6.204  0.00  0.00    -0.490 OA
BRANCH   7   8
ATOM      8  C   LIG    1       25.033 -21.689   7.628  0.00  0.00    +0.257 C 
BRANCH   8   9
ATOM      9  C   LIG    1       26.028 -20.623   8.073  0.00  0.00    +0.197 C 
BRANCH   9  10
ATOM     10  O   LIG    1       25.960 -20.457   9.485  0.00  0.00    -0.392 OA
ATOM     11  H   LIG    1       26.311 -19.573   9.685  0.00  0.00    +0.209 HD
ENDBRANCH   9  10
ENDBRANCH   8   9
ENDBRANCH   7   8
ENDBRANCH   1   7
TORSDOF 4
ENDMDL
MODEL 3
REMARK VINA RESULT:      -5.7      3.602      4.761
REMARK  Name = *****
REMARK                            x       y       z     vdW  Elec       q    Type
REMARK                         _______ _______ _______ _____ _____    ______ ____
ROOT
ATOM      1  C   LIG    1       24.077 -20.957   5.631  0.00  0.00    +0.121 A 
ATOM      2  C   LIG    1       24.912 -20.577   4.577  0.00  0.00    +0.045 A 
ATOM      3  C   LIG    1       24.539 -19.547   3.710  0.00  0.00    +0.004 A 
ATOM      4  C   LIG    1       23.324 -18.888   3.894  0.00  0.00    +0.000 A 
ATOM      5  C   LIG    1       22.486 -19.263   4.940  0.00  0.00    +0.004 A 
ATOM      6  C   LIG    1       22.860 -20.294   5.806  0.00  0.00    +0.045 A 
ENDROOT
BRANCH   1   7
ATOM      7  O   LIG    1       24.555 -21.974   6.415  0.00  0.00    -0.490 OA
BRANCH   7   8
ATOM      8  C   LIG    1       24.720 -23.240   5.778  0.00  0.00    +0.257 C 
BRANCH   8   9
ATOM      9  C   LIG    1       23.970 -24.306   6.567  0.00  0.00    +0.197 C 
BRANCH   9  10
ATOM     10  O   LIG    1       22.580 -23.998   6.596  0.00  0.00    -0.392 OA
ATOM     11  H   LIG    1       22.504 -23.030   6.652  0.00  0.00    +0.209 HD
ENDBRANCH   9  10
ENDBRANCH   8   9
ENDBRANCH   7   8
ENDBRANCH   1   7
TORSDOF 4
ENDMDL
MODEL 4
REMARK VINA RESULT:      -5.7      4.734      6.293
REMARK  Name = *****
REMARK                            x       y       z     vdW  Elec       q    Type
REMARK                         _______ _______ _______ _____ _____    ______ ____
ROOT
ATOM      1  C   LIG    1       24.397 -20.825   5.465  0.00  0.00    +0.121 A 
ATOM      2  C   LIG    1       23.119 -20.418   5.856  0.00  0.00    +0.045 A 
ATOM      3  C   LIG    1       22.443 -19.421   5.148  0.00  0.00    +0.004 A 
ATOM      4  C   LIG    1       23.044 -18.825   4.040  0.00  0.00    +0.000 A 
ATOM      5  C   LIG    1       24.318 -19.222   3.648  0.00  0.00    +0.004 A 
ATOM      6  C   LIG    1       24.994 -20.218   4.357  0.00  0.00    +0.045 A 
ENDROOT
BRANCH   1   7
ATOM      7  O   LIG    1       24.955 -21.813   6.233  0.00  0.00    -0.490 OA
BRANCH   7   8
ATOM      8  C   LIG    1       24.901 -21.622   7.646  0.00  0.00    +0.257 C 
BRANCH   8   9
ATOM      9  C   LIG    1       26.033 -20.698   8.077  0.00  0.00    +0.197 C 
BRANCH   9  10
ATOM     10  O   LIG    1       25.954 -20.455   9.477  0.00  0.00    -0.392 OA
ATOM     11  H   LIG    1       25.625 -21.273   9.890  0.00  0.00    +0.209 HD
ENDBRANCH   9  10
ENDBRANCH   8   9
ENDBRANCH   7   8
ENDBRANCH   1   7
TORSDOF 4
ENDMDL
MODEL 5
REMARK VINA RESULT:      -5.5      0.842      1.782
REMARK  Name = *****
REMARK                            x       y       z     vdW  Elec       q    Type
REMARK                         _______ _______ _______ _____ _____    ______ ____
ROOT
ATOM      1  C   LIG    1       24.034 -24.458   6.610  0.00  0.00    +0.121 A 
ATOM      2  C   LIG    1       23.065 -23.468   6.788  0.00  0.00    +0.045 A 
ATOM      3  C   LIG    1       23.418 -22.203   7.263  0.00  0.00    +0.004 A 
ATOM      4  C   LIG    1       24.750 -21.919   7.563  0.00  0.00    +0.000 A 
ATOM      5  C   LIG    1       25.721 -22.901   7.392  0.00  0.00    +0.004 A 
ATOM      6  C   LIG    1       25.366 -24.167   6.917  0.00  0.00    +0.045 A 
ENDROOT
BRANCH   1   7
ATOM      7  O   LIG    1       23.566 -25.655   6.134  0.00  0.00    -0.490 OA
BRANCH   7   8
ATOM      8  C   LIG    1       24.526 -26.508   5.513  0.00  0.00    +0.257 C 
BRANCH   8   9
ATOM      9  C   LIG    1       24.385 -27.920   6.068  0.00  0.00    +0.197 C 
BRANCH   9  10
ATOM     10  O   LIG    1       23.716 -28.746   5.121  0.00  0.00    -0.392 OA
ATOM     11  H   LIG    1       24.314 -29.484   4.914  0.00  0.00    +0.209 HD
ENDBRANCH   9  10
ENDBRANCH   8   9
ENDBRANCH   7   8
ENDBRANCH   1   7
TORSDOF 4
ENDMDL
MODEL 6
REMARK VINA RESULT:      -5.5      7.985     10.140
REMARK  Name = *****
REMARK                            x       y       z     vdW  Elec       q    Type
REMARK                         _______ _______ _______ _____ _____    ______ ____
ROOT
ATOM      1  C   LIG    1       30.461 -19.185   7.249  0.00  0.00    +0.121 A 
ATOM      2  C   LIG    1       29.704 -18.719   6.172  0.00  0.00    +0.045 A 
ATOM      3  C   LIG    1       28.566 -19.409   5.750  0.00  0.00    +0.004 A 
ATOM      4  C   LIG    1       28.175 -20.575   6.408  0.00  0.00    +0.000 A 
ATOM      5  C   LIG    1       28.927 -21.048   7.479  0.00  0.00    +0.004 A 
ATOM      6  C   LIG    1       30.065 -20.356   7.900  0.00  0.00    +0.045 A 
ENDROOT
BRANCH   1   7
ATOM      7  O   LIG    1       31.551 -18.419   7.572  0.00  0.00    -0.490 OA
BRANCH   7   8
ATOM      8  C   LIG    1       31.837 -18.281   8.963  0.00  0.00    +0.257 C 
BRANCH   8   9
ATOM      9  C   LIG    1       31.698 -16.819   9.367  0.00  0.00    +0.197 C 
BRANCH   9  10
ATOM     10  O   LIG    1       32.727 -16.048   8.756  0.00  0.00    -0.392 OA
ATOM     11  H   LIG    1       32.647 -15.141   9.100  0.00  0.00    +0.209 HD
ENDBRANCH   9  10
ENDBRANCH   8   9
ENDBRANCH   7   8
ENDBRANCH   1   7
TORSDOF 4
ENDMDL
MODEL 7
REMARK VINA RESULT:      -5.5      8.816     10.560
REMARK  Name = *****
REMARK                            x       y       z     vdW  Elec       q    Type
REMARK                         _______ _______ _______ _____ _____    ______ ____
ROOT
ATOM      1  C   LIG    1       30.804 -18.191   9.556  0.00  0.00    +0.121 A 
ATOM      2  C   LIG    1       30.399 -17.702  10.800  0.00  0.00    +0.045 A 
ATOM      3  C   LIG    1       31.085 -16.647  11.408  0.00  0.00    +0.004 A 
ATOM      4  C   LIG    1       32.185 -16.074  10.770  0.00  0.00    +0.000 A 
ATOM      5  C   LIG    1       32.597 -16.559   9.533  0.00  0.00    +0.004 A 
ATOM      6  C   LIG    1       31.910 -17.614   8.927  0.00  0.00    +0.045 A 
ENDROOT
BRANCH   1   7
ATOM      7  O   LIG    1       30.049 -19.222   9.061  0.00  0.00    -0.490 OA
BRANCH   7   8
ATOM      8  C   LIG    1       30.718 -20.136   8.193  0.00  0.00    +0.257 C 
BRANCH   8   9
ATOM      9  C   LIG    1       30.951 -21.452   8.924  0.00  0.00    +0.197 C 
BRANCH   9  10
ATOM     10  O   LIG    1       32.254 -21.464   9.496  0.00  0.00    -0.392 OA
ATOM     11  H   LIG    1       32.202 -20.975  10.335  0.00  0.00    +0.209 HD
ENDBRANCH   9  10
ENDBRANCH   8   9
ENDBRANCH   7   8
ENDBRANCH   1   7
TORSDOF 4
ENDMDL
MODEL 8
REMARK VINA RESULT:      -5.4      6.254      7.801
REMARK  Name = *****
REMARK                            x       y       z     vdW  Elec       q    Type
REMARK                         _______ _______ _______ _____ _____    ______ ____
ROOT
ATOM      1  C   LIG    1       27.779 -20.357   7.690  0.00  0.00    +0.121 A 
ATOM      2  C   LIG    1       26.610 -20.597   8.416  0.00  0.00    +0.045 A 
ATOM      3  C   LIG    1       25.379 -20.714   7.766  0.00  0.00    +0.004 A 
ATOM      4  C   LIG    1       25.311 -20.592   6.378  0.00  0.00    +0.000 A 
ATOM      5  C   LIG    1       26.470 -20.349   5.648  0.00  0.00    +0.004 A 
ATOM      6  C   LIG    1       27.701 -20.232   6.301  0.00  0.00    +0.045 A 
ENDROOT
BRANCH   1   7
ATOM      7  O   LIG    1       28.923 -20.269   8.438  0.00  0.00    -0.490 OA
BRANCH   7   8
ATOM      8  C   LIG    1       30.131 -20.018   7.721  0.00  0.00    +0.257 C 
BRANCH   8   9
ATOM      9  C   LIG    1       31.111 -19.276   8.622  0.00  0.00    +0.197 C 
BRANCH   9  10
ATOM     10  O   LIG    1       32.017 -20.200   9.214  0.00  0.00    -0.392 OA
ATOM     11  H   LIG    1       32.369 -20.755   8.497  0.00  0.00    +0.209 HD
ENDBRANCH   9  10
ENDBRANCH   8   9
ENDBRANCH   7   8
ENDBRANCH   1   7
TORSDOF 4
ENDMDL
MODEL 9
REMARK VINA RESULT:      -5.4      2.025      2.538
REMARK  Name = *****
REMARK                            x       y       z     vdW  Elec       q    Type
REMARK                         _______ _______ _______ _____ _____    ______ ____
ROOT
ATOM      1  C   LIG    1       25.261 -24.343   6.750  0.00  0.00    +0.121 A 
ATOM      2  C   LIG    1       23.933 -24.651   6.446  0.00  0.00    +0.045 A 
ATOM      3  C   LIG    1       22.918 -23.718   6.666  0.00  0.00    +0.004 A 
ATOM      4  C   LIG    1       23.227 -22.464   7.193  0.00  0.00    +0.000 A 
ATOM      5  C   LIG    1       24.547 -22.151   7.503  0.00  0.00    +0.004 A 
ATOM      6  C   LIG    1       25.562 -23.086   7.282  0.00  0.00    +0.045 A 
ENDROOT
BRANCH   1   7
ATOM      7  O   LIG    1       26.166 -25.337   6.484  0.00  0.00    -0.490 OA
BRANCH   7   8
ATOM      8  C   LIG    1       25.626 -26.631   6.224  0.00  0.00    +0.257 C 
BRANCH   8   9
ATOM      9  C   LIG    1       26.137 -27.132   4.878  0.00  0.00    +0.197 C 
BRANCH   9  10
ATOM     10  O   LIG    1       27.560 -27.151   4.877  0.00  0.00    -0.392 OA
ATOM     11  H   LIG    1       27.845 -27.134   3.947  0.00  0.00    +0.209 HD
ENDBRANCH   9  10
ENDBRANCH   8   9
ENDBRANCH   7   8
ENDBRANCH   1   7
TORSDOF 4
ENDMDL
