MODEL 1
REMARK VINA RESULT:      -3.9      0.000      0.000
REMARK  Name = *****
REMARK                            x       y       z     vdW  Elec       q    Type
REMARK                         _______ _______ _______ _____ _____    ______ ____
ROOT
ATOM      1  C   LIG    1       25.569 -13.987   4.324  0.00  0.00    +0.212 C 
ENDROOT
BRANCH   1   2
ATOM      2  S   LIG    1       26.556 -14.925   3.170  0.00  0.00    +0.081 S 
ATOM      3  O   LIG    1       26.688 -14.193   1.933  0.00  0.00    -0.147 OA
ATOM      4  O   LIG    1       26.177 -16.318   3.214  0.00  0.00    -0.147 OA
BRANCH   2   5
ATOM      5  O   LIG    1       27.963 -14.835   3.957  0.00  0.00    -0.254 OA
ATOM      6  H   LIG    1       27.769 -14.653   4.903  0.00  0.00    +0.244 HD
ENDBRANCH   2   5
ENDBRANCH   1   2
BRANCH   1   7
ATOM      7  C   LIG    1       24.105 -14.048   3.922  0.00  0.00    +0.103 C 
BRANCH   7   8
ATOM      8  N   LIG    1       23.842 -13.185   2.768  0.00  0.00    -0.328 NA
ATOM      9  H   LIG    1       23.573 -13.751   1.962  0.00  0.00    +0.118 HD
ATOM     10  H   LIG    1       23.036 -12.592   2.969  0.00  0.00    +0.118 HD
ENDBRANCH   7   8
ENDBRANCH   1   7
TORSDOF 4
ENDMDL
MODEL 2
REMARK VINA RESULT:      -3.7      0.223      1.674
REMARK  Name = *****
REMARK                            x       y       z     vdW  Elec       q    Type
REMARK                         _______ _______ _______ _____ _____    ______ ____
ROOT
ATOM      1  C   LIG    1       25.463 -13.843   4.255  0.00  0.00    +0.212 C 
ENDROOT
BRANCH   1   2
ATOM      2  S   LIG    1       26.649 -14.846   3.376  0.00  0.00    +0.081 S 
ATOM      3  O   LIG    1       26.144 -16.192   3.241  0.00  0.00    -0.147 OA
ATOM      4  O   LIG    1       27.984 -14.558   3.846  0.00  0.00    -0.147 OA
BRANCH   2   5
ATOM      5  O   LIG    1       26.531 -14.121   1.938  0.00  0.00    -0.254 OA
ATOM      6  H   LIG    1       25.675 -13.639   1.913  0.00  0.00    +0.244 HD
ENDBRANCH   2   5
ENDBRANCH   1   2
BRANCH   1   7
ATOM      7  C   LIG    1       24.079 -14.033   3.657  0.00  0.00    +0.103 C 
BRANCH   7   8
ATOM      8  N   LIG    1       23.810 -13.026   2.629  0.00  0.00    -0.328 NA
ATOM      9  H   LIG    1       24.449 -12.238   2.735  0.00  0.00    +0.118 HD
ATOM     10  H   LIG    1       24.012 -13.422   1.710  0.00  0.00    +0.118 HD
ENDBRANCH   7   8
ENDBRANCH   1   7
TORSDOF 4
ENDMDL
MODEL 3
REMARK VINA RESULT:      -3.6      0.653      1.519
REMARK  Name = *****
REMARK                            x       y       z     vdW  Elec       q    Type
REMARK                         _______ _______ _______ _____ _____    ______ ____
ROOT
ATOM      1  C   LIG    1       25.665 -13.723   4.343  0.00  0.00    +0.212 C 
ENDROOT
BRANCH   1   2
ATOM      2  S   LIG    1       26.904 -14.216   3.157  0.00  0.00    +0.081 S 
ATOM      3  O   LIG    1       28.206 -13.775   3.599  0.00  0.00    -0.147 OA
ATOM      4  O   LIG    1       26.420 -13.991   1.815  0.00  0.00    -0.147 OA
BRANCH   2   5
ATOM      5  O   LIG    1       26.812 -15.811   3.388  0.00  0.00    -0.254 OA
ATOM      6  H   LIG    1       27.539 -16.070   3.996  0.00  0.00    +0.244 HD
ENDBRANCH   2   5
ENDBRANCH   1   2
BRANCH   1   7
ATOM      7  C   LIG    1       24.278 -13.965   3.774  0.00  0.00    +0.103 C 
BRANCH   7   8
ATOM      8  N   LIG    1       23.898 -12.894   2.848  0.00  0.00    -0.328 NA
ATOM      9  H   LIG    1       24.477 -12.936   2.009  0.00  0.00    +0.118 HD
ATOM     10  H   LIG    1       22.940 -13.050   2.530  0.00  0.00    +0.118 HD
ENDBRANCH   7   8
ENDBRANCH   1   7
TORSDOF 4
ENDMDL
MODEL 4
REMARK VINA RESULT:      -3.6      2.734      2.973
REMARK  Name = *****
REMARK                            x       y       z     vdW  Elec       q    Type
REMARK                         _______ _______ _______ _____ _____    ______ ____
ROOT
ATOM      1  C   LIG    1       27.575 -14.572   4.346  0.00  0.00    +0.212 C 
ENDROOT
BRANCH   1   2
ATOM      2  S   LIG    1       26.225 -14.816   3.204  0.00  0.00    +0.081 S 
ATOM      3  O   LIG    1       26.590 -14.310   1.901  0.00  0.00    -0.147 OA
ATOM      4  O   LIG    1       24.972 -14.489   3.843  0.00  0.00    -0.147 OA
BRANCH   2   5
ATOM      5  O   LIG    1       26.272 -16.429   3.145  0.00  0.00    -0.254 OA
ATOM      6  H   LIG    1       25.365 -16.750   2.949  0.00  0.00    +0.244 HD
ENDBRANCH   2   5
ENDBRANCH   1   2
BRANCH   1   7
ATOM      7  C   LIG    1       28.102 -13.151   4.229  0.00  0.00    +0.103 C 
BRANCH   7   8
ATOM      8  N   LIG    1       29.221 -13.083   3.287  0.00  0.00    -0.328 NA
ATOM      9  H   LIG    1       28.873 -13.109   2.328  0.00  0.00    +0.118 HD
ATOM     10  H   LIG    1       29.689 -12.181   3.385  0.00  0.00    +0.118 HD
ENDBRANCH   7   8
ENDBRANCH   1   7
TORSDOF 4
ENDMDL
MODEL 5
REMARK VINA RESULT:      -3.6      2.730      3.001
REMARK  Name = *****
REMARK                            x       y       z     vdW  Elec       q    Type
REMARK                         _______ _______ _______ _____ _____    ______ ____
ROOT
ATOM      1  C   LIG    1       27.454 -14.291   4.429  0.00  0.00    +0.212 C 
ENDROOT
BRANCH   1   2
ATOM      2  S   LIG    1       26.216 -14.822   3.259  0.00  0.00    +0.081 S 
ATOM      3  O   LIG    1       24.979 -14.117   3.504  0.00  0.00    -0.147 OA
ATOM      4  O   LIG    1       26.275 -16.255   3.093  0.00  0.00    -0.147 OA
BRANCH   2   5
ATOM      5  O   LIG    1       26.888 -14.204   1.927  0.00  0.00    -0.254 OA
ATOM      6  H   LIG    1       27.356 -13.378   2.181  0.00  0.00    +0.244 HD
ENDBRANCH   2   5
ENDBRANCH   1   2
BRANCH   1   7
ATOM      7  C   LIG    1       28.091 -12.995   3.958  0.00  0.00    +0.103 C 
BRANCH   7   8
ATOM      8  N   LIG    1       29.394 -13.247   3.336  0.00  0.00    -0.328 NA
ATOM      9  H   LIG    1       29.266 -13.640   2.403  0.00  0.00    +0.118 HD
ATOM     10  H   LIG    1       29.877 -12.358   3.197  0.00  0.00    +0.118 HD
ENDBRANCH   7   8
ENDBRANCH   1   7
TORSDOF 4
ENDMDL
MODEL 6
REMARK VINA RESULT:      -3.6      2.626      3.201
REMARK  Name = *****
REMARK                            x       y       z     vdW  Elec       q    Type
REMARK                         _______ _______ _______ _____ _____    ______ ____
ROOT
ATOM      1  C   LIG    1       27.251 -14.219   4.546  0.00  0.00    +0.212 C 
ENDROOT
BRANCH   1   2
ATOM      2  S   LIG    1       26.361 -14.881   3.149  0.00  0.00    +0.081 S 
ATOM      3  O   LIG    1       26.326 -16.323   3.231  0.00  0.00    -0.147 OA
ATOM      4  O   LIG    1       26.738 -14.178   1.945  0.00  0.00    -0.147 OA
BRANCH   2   5
ATOM      5  O   LIG    1       24.895 -14.324   3.534  0.00  0.00    -0.254 OA
ATOM      6  H   LIG    1       24.684 -13.583   2.923  0.00  0.00    +0.244 HD
ENDBRANCH   2   5
ENDBRANCH   1   2
BRANCH   1   7
ATOM      7  C   LIG    1       28.017 -12.975   4.130  0.00  0.00    +0.103 C 
BRANCH   7   8
ATOM      8  N   LIG    1       29.236 -13.330   3.399  0.00  0.00    -0.328 NA
ATOM      9  H   LIG    1       28.999 -13.646   2.458  0.00  0.00    +0.118 HD
ATOM     10  H   LIG    1       29.807 -12.493   3.272  0.00  0.00    +0.118 HD
ENDBRANCH   7   8
ENDBRANCH   1   7
TORSDOF 4
ENDMDL
MODEL 7
REMARK VINA RESULT:      -3.5      6.602      7.263
REMARK  Name = *****
REMARK                            x       y       z     vdW  Elec       q    Type
REMARK                         _______ _______ _______ _____ _____    ______ ____
ROOT
ATOM      1  C   LIG    1       24.101 -21.011   4.219  0.00  0.00    +0.212 C 
ENDROOT
BRANCH   1   2
ATOM      2  S   LIG    1       22.811 -20.404   5.292  0.00  0.00    +0.081 S 
ATOM      3  O   LIG    1       22.352 -19.117   4.824  0.00  0.00    -0.147 OA
ATOM      4  O   LIG    1       23.158 -20.652   6.672  0.00  0.00    -0.147 OA
BRANCH   2   5
ATOM      5  O   LIG    1       21.683 -21.500   4.926  0.00  0.00    -0.254 OA
ATOM      6  H   LIG    1       21.426 -21.366   3.987  0.00  0.00    +0.244 HD
ENDBRANCH   2   5
ENDBRANCH   1   2
BRANCH   1   7
ATOM      7  C   LIG    1       25.085 -19.896   3.909  0.00  0.00    +0.103 C 
BRANCH   7   8
ATOM      8  N   LIG    1       26.376 -20.141   4.557  0.00  0.00    -0.328 NA
ATOM      9  H   LIG    1       26.280 -20.059   5.570  0.00  0.00    +0.118 HD
ATOM     10  H   LIG    1       26.660 -21.106   4.384  0.00  0.00    +0.118 HD
ENDBRANCH   7   8
ENDBRANCH   1   7
TORSDOF 4
ENDMDL
MODEL 8
REMARK VINA RESULT:      -3.4      3.016      3.354
REMARK  Name = *****
REMARK                            x       y       z     vdW  Elec       q    Type
REMARK                         _______ _______ _______ _____ _____    ______ ____
ROOT
ATOM      1  C   LIG    1       25.430 -13.250   2.377  0.00  0.00    +0.212 C 
ENDROOT
BRANCH   1   2
ATOM      2  S   LIG    1       24.507 -13.265   3.904  0.00  0.00    +0.081 S 
ATOM      3  O   LIG    1       23.834 -14.534   4.055  0.00  0.00    -0.147 OA
ATOM      4  O   LIG    1       23.833 -12.000   4.087  0.00  0.00    -0.147 OA
BRANCH   2   5
ATOM      5  O   LIG    1       25.760 -13.239   4.922  0.00  0.00    -0.254 OA
ATOM      6  H   LIG    1       26.352 -13.988   4.690  0.00  0.00    +0.244 HD
ENDBRANCH   2   5
ENDBRANCH   1   2
BRANCH   1   7
ATOM      7  C   LIG    1       26.754 -13.971   2.564  0.00  0.00    +0.103 C 
BRANCH   7   8
ATOM      8  N   LIG    1       26.541 -15.351   3.007  0.00  0.00    -0.328 NA
ATOM      9  H   LIG    1       26.287 -15.938   2.212  0.00  0.00    +0.118 HD
ATOM     10  H   LIG    1       27.421 -15.730   3.359  0.00  0.00    +0.118 HD
ENDBRANCH   7   8
ENDBRANCH   1   7
TORSDOF 4
ENDMDL
MODEL 9
REMARK VINA RESULT:      -3.4      1.773      2.491
REMARK  Name = *****
REMARK                            x       y       z     vdW  Elec       q    Type
REMARK                         _______ _______ _______ _____ _____    ______ ____
ROOT
ATOM      1  C   LIG    1       26.494 -13.411   2.712  0.00  0.00    +0.212 C 
ENDROOT
BRANCH   1   2
ATOM      2  S   LIG    1       27.637 -13.691   4.054  0.00  0.00    +0.081 S 
ATOM      3  O   LIG    1       26.985 -13.421   5.314  0.00  0.00    -0.147 OA
ATOM      4  O   LIG    1       28.935 -13.155   3.718  0.00  0.00    -0.147 OA
BRANCH   2   5
ATOM      5  O   LIG    1       27.777 -15.292   3.897  0.00  0.00    -0.254 OA
ATOM      6  H   LIG    1       28.609 -15.567   4.342  0.00  0.00    +0.244 HD
ENDBRANCH   2   5
ENDBRANCH   1   2
BRANCH   1   7
ATOM      7  C   LIG    1       25.073 -13.349   3.245  0.00  0.00    +0.103 C 
BRANCH   7   8
ATOM      8  N   LIG    1       24.706 -14.604   3.905  0.00  0.00    -0.328 NA
ATOM      9  H   LIG    1       24.226 -14.409   4.785  0.00  0.00    +0.118 HD
ATOM     10  H   LIG    1       24.028 -15.102   3.327  0.00  0.00    +0.118 HD
ENDBRANCH   7   8
ENDBRANCH   1   7
TORSDOF 4
ENDMDL
