MODEL 1
REMARK VINA RESULT:      -6.3      0.000      0.000
REMARK  Name = *****
REMARK                            x       y       z     vdW  Elec       q    Type
REMARK                         _______ _______ _______ _____ _____    ______ ____
ROOT
ATOM      1  O   LIG    1       29.484 -19.733   6.873  0.00  0.00    -0.247 OA
ATOM      2  C   LIG    1       28.287 -20.027   6.894  0.00  0.00    +0.327 C 
ATOM      3  N   LIG    1       27.576 -20.122   8.045  0.00  0.00    -0.274 N 
ATOM      4  H   LIG    1       28.085 -20.019   8.910  0.00  0.00    +0.173 HD
ATOM      5  C   LIG    1       26.319 -20.641   8.143  0.00  0.00    +0.275 C 
ATOM      6  O   LIG    1       25.847 -20.967   9.228  0.00  0.00    -0.266 OA
ATOM      7  C   LIG    1       25.565 -20.815   6.833  0.00  0.00    +0.111 C 
ATOM      8  C   LIG    1       26.275 -20.637   5.709  0.00  0.00    +0.116 C 
ATOM      9  N   LIG    1       27.603 -20.292   5.742  0.00  0.00    -0.312 N 
ATOM     10  H   LIG    1       28.142 -20.215   4.888  0.00  0.00    +0.170 HD
ENDROOT
BRANCH   7  11
ATOM     11  N   LIG    1       24.226 -21.213   6.848  0.00  0.00    -0.322 N 
BRANCH  11  12
ATOM     12  C   LIG    1       23.110 -20.278   6.546  0.00  0.00    +0.121 C 
BRANCH  12  13
ATOM     13  C   LIG    1       22.590 -20.201   5.101  0.00  0.00    +0.127 C 
ATOM     14 CL   LIG    1       22.260 -18.568   4.486  0.00  0.00    -0.124 Cl
ENDBRANCH  12  13
ENDBRANCH  11  12
BRANCH  11  15
ATOM     15  C   LIG    1       23.789 -22.612   7.097  0.00  0.00    +0.121 C 
BRANCH  15  16
ATOM     16  C   LIG    1       24.718 -23.752   6.660  0.00  0.00    +0.127 C 
ATOM     17 CL   LIG    1       23.847 -25.274   6.353  0.00  0.00    -0.124 Cl
ENDBRANCH  15  16
ENDBRANCH  11  15
ENDBRANCH   7  11
TORSDOF 5
ENDMDL
MODEL 2
REMARK VINA RESULT:      -6.3      0.619      3.206
REMARK  Name = *****
REMARK                            x       y       z     vdW  Elec       q    Type
REMARK                         _______ _______ _______ _____ _____    ______ ____
ROOT
ATOM      1  O   LIG    1       29.503 -19.788   6.687  0.00  0.00    -0.247 OA
ATOM      2  C   LIG    1       28.300 -20.046   6.746  0.00  0.00    +0.327 C 
ATOM      3  N   LIG    1       27.617 -20.100   7.916  0.00  0.00    -0.274 N 
ATOM      4  H   LIG    1       28.153 -19.997   8.766  0.00  0.00    +0.173 HD
ATOM      5  C   LIG    1       26.350 -20.580   8.057  0.00  0.00    +0.275 C 
ATOM      6  O   LIG    1       25.897 -20.874   9.160  0.00  0.00    -0.266 OA
ATOM      7  C   LIG    1       25.555 -20.755   6.770  0.00  0.00    +0.111 C 
ATOM      8  C   LIG    1       26.240 -20.617   5.626  0.00  0.00    +0.116 C 
ATOM      9  N   LIG    1       27.577 -20.310   5.617  0.00  0.00    -0.312 N 
ATOM     10  H   LIG    1       28.095 -20.264   4.747  0.00  0.00    +0.170 HD
ENDROOT
BRANCH   7  11
ATOM     11  N   LIG    1       24.207 -21.113   6.829  0.00  0.00    -0.322 N 
BRANCH  11  12
ATOM     12  C   LIG    1       23.751 -22.443   7.314  0.00  0.00    +0.121 C 
BRANCH  12  13
ATOM     13  C   LIG    1       24.229 -23.699   6.566  0.00  0.00    +0.127 C 
ATOM     14 CL   LIG    1       25.812 -24.335   7.059  0.00  0.00    -0.124 Cl
ENDBRANCH  12  13
ENDBRANCH  11  12
BRANCH  11  15
ATOM     15  C   LIG    1       23.096 -20.187   6.480  0.00  0.00    +0.121 C 
BRANCH  15  16
ATOM     16  C   LIG    1       22.608 -20.153   5.026  0.00  0.00    +0.127 C 
ATOM     17 CL   LIG    1       22.198 -18.511   4.474  0.00  0.00    -0.124 Cl
ENDBRANCH  15  16
ENDBRANCH  11  15
ENDBRANCH   7  11
TORSDOF 5
ENDMDL
MODEL 3
REMARK VINA RESULT:      -6.2      3.104      4.806
REMARK  Name = *****
REMARK                            x       y       z     vdW  Elec       q    Type
REMARK                         _______ _______ _______ _____ _____    ______ ____
ROOT
ATOM      1  O   LIG    1       22.415 -18.595   4.379  0.00  0.00    -0.247 OA
ATOM      2  C   LIG    1       22.998 -19.605   4.778  0.00  0.00    +0.327 C 
ATOM      3  N   LIG    1       22.715 -20.194   5.966  0.00  0.00    -0.274 N 
ATOM      4  H   LIG    1       22.050 -19.725   6.564  0.00  0.00    +0.173 HD
ATOM      5  C   LIG    1       23.461 -21.175   6.547  0.00  0.00    +0.275 C 
ATOM      6  O   LIG    1       23.329 -21.461   7.734  0.00  0.00    -0.266 OA
ATOM      7  C   LIG    1       24.478 -21.862   5.645  0.00  0.00    +0.111 C 
ATOM      8  C   LIG    1       24.680 -21.303   4.443  0.00  0.00    +0.116 C 
ATOM      9  N   LIG    1       23.989 -20.188   4.040  0.00  0.00    -0.312 N 
ATOM     10  H   LIG    1       24.191 -19.743   3.153  0.00  0.00    +0.170 HD
ENDROOT
BRANCH   7  11
ATOM     11  N   LIG    1       25.191 -22.966   6.116  0.00  0.00    -0.322 N 
BRANCH  11  12
ATOM     12  C   LIG    1       25.018 -24.331   5.551  0.00  0.00    +0.121 C 
BRANCH  12  13
ATOM     13  C   LIG    1       23.998 -25.273   6.212  0.00  0.00    +0.127 C 
ATOM     14 CL   LIG    1       24.324 -27.010   6.034  0.00  0.00    -0.124 Cl
ENDBRANCH  12  13
ENDBRANCH  11  12
BRANCH  11  15
ATOM     15  C   LIG    1       26.235 -22.880   7.172  0.00  0.00    +0.121 C 
BRANCH  15  16
ATOM     16  C   LIG    1       27.148 -21.647   7.191  0.00  0.00    +0.127 C 
ATOM     17 CL   LIG    1       26.574 -20.381   8.304  0.00  0.00    -0.124 Cl
ENDBRANCH  15  16
ENDBRANCH  11  15
ENDBRANCH   7  11
TORSDOF 5
ENDMDL
MODEL 4
REMARK VINA RESULT:      -6.2      3.115      4.165
REMARK  Name = *****
REMARK                            x       y       z     vdW  Elec       q    Type
REMARK                         _______ _______ _______ _____ _____    ______ ____
ROOT
ATOM      1  O   LIG    1       22.400 -18.567   4.465  0.00  0.00    -0.247 OA
ATOM      2  C   LIG    1       22.989 -19.586   4.832  0.00  0.00    +0.327 C 
ATOM      3  N   LIG    1       22.693 -20.228   5.989  0.00  0.00    -0.274 N 
ATOM      4  H   LIG    1       22.012 -19.793   6.595  0.00  0.00    +0.173 HD
ATOM      5  C   LIG    1       23.441 -21.225   6.540  0.00  0.00    +0.275 C 
ATOM      6  O   LIG    1       23.293 -21.562   7.711  0.00  0.00    -0.266 OA
ATOM      7  C   LIG    1       24.481 -21.861   5.628  0.00  0.00    +0.111 C 
ATOM      8  C   LIG    1       24.697 -21.249   4.455  0.00  0.00    +0.116 C 
ATOM      9  N   LIG    1       23.999 -20.125   4.087  0.00  0.00    -0.312 N 
ATOM     10  H   LIG    1       24.210 -19.641   3.223  0.00  0.00    +0.170 HD
ENDROOT
BRANCH   7  11
ATOM     11  N   LIG    1       25.200 -22.976   6.064  0.00  0.00    -0.322 N 
BRANCH  11  12
ATOM     12  C   LIG    1       26.220 -22.900   7.143  0.00  0.00    +0.121 C 
BRANCH  12  13
ATOM     13  C   LIG    1       27.123 -21.657   7.212  0.00  0.00    +0.127 C 
ATOM     14 CL   LIG    1       26.569 -20.360   8.291  0.00  0.00    -0.124 Cl
ENDBRANCH  12  13
ENDBRANCH  11  12
BRANCH  11  15
ATOM     15  C   LIG    1       24.972 -24.352   5.547  0.00  0.00    +0.121 C 
BRANCH  15  16
ATOM     16  C   LIG    1       23.991 -25.258   6.304  0.00  0.00    +0.127 C 
ATOM     17 CL   LIG    1       24.291 -26.989   6.018  0.00  0.00    -0.124 Cl
ENDBRANCH  15  16
ENDBRANCH  11  15
ENDBRANCH   7  11
TORSDOF 5
ENDMDL
MODEL 5
REMARK VINA RESULT:      -6.1      1.470      1.956
REMARK  Name = *****
REMARK                            x       y       z     vdW  Elec       q    Type
REMARK                         _______ _______ _______ _____ _____    ______ ____
ROOT
ATOM      1  O   LIG    1       29.485 -19.349   6.418  0.00  0.00    -0.247 OA
ATOM      2  C   LIG    1       28.345 -19.817   6.393  0.00  0.00    +0.327 C 
ATOM      3  N   LIG    1       27.640 -19.971   5.245  0.00  0.00    -0.274 N 
ATOM      4  H   LIG    1       28.056 -19.611   4.398  0.00  0.00    +0.173 HD
ATOM      5  C   LIG    1       26.315 -20.283   5.180  0.00  0.00    +0.275 C 
ATOM      6  O   LIG    1       25.672 -20.124   4.146  0.00  0.00    -0.266 OA
ATOM      7  C   LIG    1       25.689 -20.804   6.466  0.00  0.00    +0.111 C 
ATOM      8  C   LIG    1       26.440 -20.712   7.573  0.00  0.00    +0.116 C 
ATOM      9  N   LIG    1       27.712 -20.199   7.541  0.00  0.00    -0.312 N 
ATOM     10  H   LIG    1       28.248 -20.084   8.393  0.00  0.00    +0.170 HD
ENDROOT
BRANCH   7  11
ATOM     11  N   LIG    1       24.374 -21.274   6.458  0.00  0.00    -0.322 N 
BRANCH  11  12
ATOM     12  C   LIG    1       23.199 -20.365   6.399  0.00  0.00    +0.121 C 
BRANCH  12  13
ATOM     13  C   LIG    1       22.404 -20.279   5.084  0.00  0.00    +0.127 C 
ATOM     14 CL   LIG    1       22.111 -18.640   4.466  0.00  0.00    -0.124 Cl
ENDBRANCH  12  13
ENDBRANCH  11  12
BRANCH  11  15
ATOM     15  C   LIG    1       24.019 -22.718   6.439  0.00  0.00    +0.121 C 
BRANCH  15  16
ATOM     16  C   LIG    1       24.919 -23.677   5.648  0.00  0.00    +0.127 C 
ATOM     17 CL   LIG    1       25.897 -24.729   6.699  0.00  0.00    -0.124 Cl
ENDBRANCH  15  16
ENDBRANCH  11  15
ENDBRANCH   7  11
TORSDOF 5
ENDMDL
MODEL 6
REMARK VINA RESULT:      -6.1      1.322      3.652
REMARK  Name = *****
REMARK                            x       y       z     vdW  Elec       q    Type
REMARK                         _______ _______ _______ _____ _____    ______ ____
ROOT
ATOM      1  O   LIG    1       29.518 -19.413   6.422  0.00  0.00    -0.247 OA
ATOM      2  C   LIG    1       28.370 -19.862   6.433  0.00  0.00    +0.327 C 
ATOM      3  N   LIG    1       27.647 -20.055   5.303  0.00  0.00    -0.274 N 
ATOM      4  H   LIG    1       28.056 -19.740   4.436  0.00  0.00    +0.173 HD
ATOM      5  C   LIG    1       26.316 -20.347   5.270  0.00  0.00    +0.275 C 
ATOM      6  O   LIG    1       25.660 -20.224   4.239  0.00  0.00    -0.266 OA
ATOM      7  C   LIG    1       25.699 -20.800   6.586  0.00  0.00    +0.111 C 
ATOM      8  C   LIG    1       26.467 -20.672   7.678  0.00  0.00    +0.116 C 
ATOM      9  N   LIG    1       27.748 -20.182   7.606  0.00  0.00    -0.312 N 
ATOM     10  H   LIG    1       28.297 -20.038   8.445  0.00  0.00    +0.170 HD
ENDROOT
BRANCH   7  11
ATOM     11  N   LIG    1       24.377 -21.248   6.617  0.00  0.00    -0.322 N 
BRANCH  11  12
ATOM     12  C   LIG    1       24.018 -22.667   6.875  0.00  0.00    +0.121 C 
BRANCH  12  13
ATOM     13  C   LIG    1       24.677 -23.758   6.014  0.00  0.00    +0.127 C 
ATOM     14 CL   LIG    1       24.002 -25.392   6.188  0.00  0.00    -0.124 Cl
ENDBRANCH  12  13
ENDBRANCH  11  12
BRANCH  11  15
ATOM     15  C   LIG    1       23.202 -20.348   6.467  0.00  0.00    +0.121 C 
BRANCH  15  16
ATOM     16  C   LIG    1       22.423 -20.387   5.146  0.00  0.00    +0.127 C 
ATOM     17 CL   LIG    1       22.133 -18.766   4.468  0.00  0.00    -0.124 Cl
ENDBRANCH  15  16
ENDBRANCH  11  15
ENDBRANCH   7  11
TORSDOF 5
ENDMDL
MODEL 7
REMARK VINA RESULT:      -6.0      1.764      3.514
REMARK  Name = *****
REMARK                            x       y       z     vdW  Elec       q    Type
REMARK                         _______ _______ _______ _____ _____    ______ ____
ROOT
ATOM      1  O   LIG    1       29.972 -18.366   5.872  0.00  0.00    -0.247 OA
ATOM      2  C   LIG    1       29.019 -19.107   6.120  0.00  0.00    +0.327 C 
ATOM      3  N   LIG    1       28.089 -19.442   5.192  0.00  0.00    -0.274 N 
ATOM      4  H   LIG    1       28.159 -18.995   4.290  0.00  0.00    +0.173 HD
ATOM      5  C   LIG    1       26.915 -20.079   5.460  0.00  0.00    +0.275 C 
ATOM      6  O   LIG    1       25.996 -20.095   4.646  0.00  0.00    -0.266 OA
ATOM      7  C   LIG    1       26.808 -20.732   6.832  0.00  0.00    +0.111 C 
ATOM      8  C   LIG    1       27.785 -20.445   7.705  0.00  0.00    +0.116 C 
ATOM      9  N   LIG    1       28.835 -19.628   7.369  0.00  0.00    -0.312 N 
ATOM     10  H   LIG    1       29.537 -19.375   8.055  0.00  0.00    +0.170 HD
ENDROOT
BRANCH   7  11
ATOM     11  N   LIG    1       25.697 -21.519   7.143  0.00  0.00    -0.322 N 
BRANCH  11  12
ATOM     12  C   LIG    1       25.772 -22.999   7.261  0.00  0.00    +0.121 C 
BRANCH  12  13
ATOM     13  C   LIG    1       25.273 -23.854   6.083  0.00  0.00    +0.127 C 
ATOM     14 CL   LIG    1       23.847 -24.860   6.411  0.00  0.00    -0.124 Cl
ENDBRANCH  12  13
ENDBRANCH  11  12
BRANCH  11  15
ATOM     15  C   LIG    1       24.355 -20.958   7.454  0.00  0.00    +0.121 C 
BRANCH  15  16
ATOM     16  C   LIG    1       23.214 -21.213   6.461  0.00  0.00    +0.127 C 
ATOM     17 CL   LIG    1       22.681 -19.732   5.627  0.00  0.00    -0.124 Cl
ENDBRANCH  15  16
ENDBRANCH  11  15
ENDBRANCH   7  11
TORSDOF 5
ENDMDL
MODEL 8
REMARK VINA RESULT:      -6.0      3.008      4.241
REMARK  Name = *****
REMARK                            x       y       z     vdW  Elec       q    Type
REMARK                         _______ _______ _______ _____ _____    ______ ____
ROOT
ATOM      1  O   LIG    1       22.202 -18.845   4.238  0.00  0.00    -0.247 OA
ATOM      2  C   LIG    1       23.007 -19.605   4.780  0.00  0.00    +0.327 C 
ATOM      3  N   LIG    1       22.823 -20.099   6.029  0.00  0.00    -0.274 N 
ATOM      4  H   LIG    1       22.026 -19.757   6.545  0.00  0.00    +0.173 HD
ATOM      5  C   LIG    1       23.767 -20.767   6.750  0.00  0.00    +0.275 C 
ATOM      6  O   LIG    1       23.648 -20.931   7.961  0.00  0.00    -0.266 OA
ATOM      7  C   LIG    1       24.977 -21.261   5.969  0.00  0.00    +0.111 C 
ATOM      8  C   LIG    1       25.092 -20.819   4.708  0.00  0.00    +0.116 C 
ATOM      9  N   LIG    1       24.156 -19.987   4.146  0.00  0.00    -0.312 N 
ATOM     10  H   LIG    1       24.283 -19.617   3.213  0.00  0.00    +0.170 HD
ENDROOT
BRANCH   7  11
ATOM     11  N   LIG    1       25.927 -22.069   6.596  0.00  0.00    -0.322 N 
BRANCH  11  12
ATOM     12  C   LIG    1       27.258 -21.559   7.019  0.00  0.00    +0.121 C 
BRANCH  12  13
ATOM     13  C   LIG    1       27.319 -20.252   7.828  0.00  0.00    +0.127 C 
ATOM     14 CL   LIG    1       28.922 -19.498   7.956  0.00  0.00    -0.124 Cl
ENDBRANCH  12  13
ENDBRANCH  11  12
BRANCH  11  15
ATOM     15  C   LIG    1       25.682 -23.489   6.965  0.00  0.00    +0.121 C 
BRANCH  15  16
ATOM     16  C   LIG    1       24.701 -24.303   6.111  0.00  0.00    +0.127 C 
ATOM     17 CL   LIG    1       23.030 -24.225   6.718  0.00  0.00    -0.124 Cl
ENDBRANCH  15  16
ENDBRANCH  11  15
ENDBRANCH   7  11
TORSDOF 5
ENDMDL
MODEL 9
REMARK VINA RESULT:      -5.9      2.999      5.113
REMARK  Name = *****
REMARK                            x       y       z     vdW  Elec       q    Type
REMARK                         _______ _______ _______ _____ _____    ______ ____
ROOT
ATOM      1  O   LIG    1       23.900 -26.530   6.196  0.00  0.00    -0.247 OA
ATOM      2  C   LIG    1       24.085 -25.324   6.026  0.00  0.00    +0.327 C 
ATOM      3  N   LIG    1       23.661 -24.385   6.907  0.00  0.00    -0.274 N 
ATOM      4  H   LIG    1       23.108 -24.705   7.688  0.00  0.00    +0.173 HD
ATOM      5  C   LIG    1       23.653 -23.042   6.672  0.00  0.00    +0.275 C 
ATOM      6  O   LIG    1       22.999 -22.275   7.373  0.00  0.00    -0.266 OA
ATOM      7  C   LIG    1       24.472 -22.569   5.479  0.00  0.00    +0.111 C 
ATOM      8  C   LIG    1       24.946 -23.524   4.667  0.00  0.00    +0.116 C 
ATOM      9  N   LIG    1       24.727 -24.856   4.913  0.00  0.00    -0.312 N 
ATOM     10  H   LIG    1       25.043 -25.565   4.263  0.00  0.00    +0.170 HD
ENDROOT
BRANCH   7  11
ATOM     11  N   LIG    1       24.630 -21.202   5.243  0.00  0.00    -0.322 N 
BRANCH  11  12
ATOM     12  C   LIG    1       25.833 -20.447   5.683  0.00  0.00    +0.121 C 
BRANCH  12  13
ATOM     13  C   LIG    1       26.591 -20.936   6.929  0.00  0.00    +0.127 C 
ATOM     14 CL   LIG    1       25.833 -20.557   8.490  0.00  0.00    -0.124 Cl
ENDBRANCH  12  13
ENDBRANCH  11  12
BRANCH  11  15
ATOM     15  C   LIG    1       23.654 -20.383   4.475  0.00  0.00    +0.121 C 
BRANCH  15  16
ATOM     16  C   LIG    1       22.587 -19.604   5.255  0.00  0.00    +0.127 C 
ATOM     17 CL   LIG    1       22.220 -18.021   4.528  0.00  0.00    -0.124 Cl
ENDBRANCH  15  16
ENDBRANCH  11  15
ENDBRANCH   7  11
TORSDOF 5
ENDMDL
