MODEL 1
REMARK VINA RESULT:      -2.8      0.000      0.000
REMARK  Name = *****
REMARK                            x       y       z     vdW  Elec       q    Type
REMARK                         _______ _______ _______ _____ _____    ______ ____
ROOT
ATOM      1  S   LIG    1       23.106 -18.799   4.337  0.00  0.00    +0.025 S 
ATOM      2  O   LIG    1       22.879 -19.359   3.010  0.00  0.00    -0.164 OA
ATOM      3  O   LIG    1       22.039 -18.783   5.319  0.00  0.00    -0.164 OA
ENDROOT
BRANCH   1   7
ATOM      4  C   LIG    1       24.563 -14.472   3.792  0.00  0.00    +0.028 A 
ATOM      5  C   LIG    1       23.288 -14.749   4.304  0.00  0.00    +0.025 A 
ATOM      6  C   LIG    1       22.843 -16.064   4.474  0.00  0.00    +0.029 A 
ATOM      7  C   LIG    1       23.663 -17.128   4.097  0.00  0.00    +0.094 A 
ATOM      8  C   LIG    1       24.916 -16.881   3.537  0.00  0.00    +0.029 A 
ATOM      9  C   LIG    1       25.348 -15.559   3.372  0.00  0.00    +0.025 A 
BRANCH   4  10
ATOM     10  N   LIG    1       25.027 -13.170   3.553  0.00  0.00    -0.325 N 
ATOM     11  H   LIG    1       24.302 -12.580   3.143  0.00  0.00    +0.148 HD
BRANCH  10  12
ATOM     12  C   LIG    1       26.280 -13.024   2.813  0.00  0.00    +0.278 C 
BRANCH  12  14
ATOM     13  O   LIG    1       27.402 -12.890   5.287  0.00  0.00    -0.165 OA
ATOM     14  S   LIG    1       27.651 -13.513   3.946  0.00  0.00    +0.012 S 
BRANCH  14  15
ATOM     15  O   LIG    1       28.730 -12.554   3.243  0.00  0.00    -0.268 OA
ATOM     16  H   LIG    1       28.256 -11.717   3.016  0.00  0.00    +0.243 HD
ENDBRANCH  14  15
ENDBRANCH  12  14
ENDBRANCH  10  12
ENDBRANCH   4  10
ENDBRANCH   1   7
BRANCH   1  17
ATOM     17  C   LIG    1       24.471 -19.678   5.062  0.00  0.00    +0.094 A 
ATOM     18  C   LIG    1       25.592 -19.974   4.286  0.00  0.00    +0.029 A 
ATOM     19  C   LIG    1       26.685 -20.617   4.872  0.00  0.00    +0.025 A 
ATOM     20  C   LIG    1       26.659 -21.012   6.216  0.00  0.00    +0.028 A 
ATOM     21  C   LIG    1       25.516 -20.704   6.971  0.00  0.00    +0.025 A 
ATOM     22  C   LIG    1       24.413 -20.064   6.399  0.00  0.00    +0.029 A 
BRANCH  20  23
ATOM     23  N   LIG    1       27.763 -21.572   6.873  0.00  0.00    -0.325 N 
ATOM     24  H   LIG    1       27.992 -22.492   6.507  0.00  0.00    +0.148 HD
BRANCH  23  25
ATOM     25  C   LIG    1       28.947 -20.740   7.062  0.00  0.00    +0.278 C 
BRANCH  25  26
ATOM     26  S   LIG    1       28.625 -19.086   6.312  0.00  0.00    +0.012 S 
ATOM     27  O   LIG    1       29.440 -18.072   7.055  0.00  0.00    -0.165 OA
BRANCH  26  28
ATOM     28  O   LIG    1       29.460 -19.377   4.971  0.00  0.00    -0.268 OA
ATOM     29  H   LIG    1       29.162 -18.713   4.305  0.00  0.00    +0.243 HD
ENDBRANCH  26  28
ENDBRANCH  25  26
ENDBRANCH  23  25
ENDBRANCH  20  23
ENDBRANCH   1  17
TORSDOF 10
ENDMDL
MODEL 2
REMARK VINA RESULT:      -1.9      0.336      6.265
REMARK  Name = *****
REMARK                            x       y       z     vdW  Elec       q    Type
REMARK                         _______ _______ _______ _____ _____    ______ ____
ROOT
ATOM      1  S   LIG    1       23.079 -18.896   4.196  0.00  0.00    +0.025 S 
ATOM      2  O   LIG    1       21.940 -18.986   5.101  0.00  0.00    -0.164 OA
ATOM      3  O   LIG    1       22.991 -19.433   2.850  0.00  0.00    -0.164 OA
ENDROOT
BRANCH   1   7
ATOM      4  C   LIG    1       26.589 -20.993   6.298  0.00  0.00    +0.028 A 
ATOM      5  C   LIG    1       25.339 -20.872   6.921  0.00  0.00    +0.025 A 
ATOM      6  C   LIG    1       24.268 -20.237   6.282  0.00  0.00    +0.029 A 
ATOM      7  C   LIG    1       24.447 -19.680   5.016  0.00  0.00    +0.094 A 
ATOM      8  C   LIG    1       25.694 -19.741   4.394  0.00  0.00    +0.029 A 
ATOM      9  C   LIG    1       26.757 -20.378   5.046  0.00  0.00    +0.025 A 
BRANCH   4  10
ATOM     10  N   LIG    1       27.704 -21.571   6.923  0.00  0.00    -0.325 N 
ATOM     11  H   LIG    1       27.469 -21.942   7.845  0.00  0.00    +0.148 HD
BRANCH  10  12
ATOM     12  C   LIG    1       28.928 -20.776   6.993  0.00  0.00    +0.278 C 
BRANCH  12  14
ATOM     13  O   LIG    1       29.470 -19.265   4.797  0.00  0.00    -0.165 OA
ATOM     14  S   LIG    1       28.633 -19.224   6.040  0.00  0.00    +0.012 S 
BRANCH  14  15
ATOM     15  O   LIG    1       29.460 -18.301   7.062  0.00  0.00    -0.268 OA
ATOM     16  H   LIG    1       29.777 -18.897   7.784  0.00  0.00    +0.243 HD
ENDBRANCH  14  15
ENDBRANCH  12  14
ENDBRANCH  10  12
ENDBRANCH   4  10
ENDBRANCH   1   7
BRANCH   1  17
ATOM     17  C   LIG    1       23.508 -17.178   4.045  0.00  0.00    +0.094 A 
ATOM     18  C   LIG    1       22.609 -16.202   4.477  0.00  0.00    +0.029 A 
ATOM     19  C   LIG    1       22.970 -14.854   4.408  0.00  0.00    +0.025 A 
ATOM     20  C   LIG    1       24.203 -14.459   3.870  0.00  0.00    +0.028 A 
ATOM     21  C   LIG    1       25.085 -15.464   3.439  0.00  0.00    +0.025 A 
ATOM     22  C   LIG    1       24.737 -16.817   3.500  0.00  0.00    +0.029 A 
BRANCH  20  23
ATOM     23  N   LIG    1       24.650 -13.132   3.867  0.00  0.00    -0.325 N 
ATOM     24  H   LIG    1       24.568 -12.705   4.786  0.00  0.00    +0.148 HD
BRANCH  23  25
ATOM     25  C   LIG    1       25.930 -12.837   3.232  0.00  0.00    +0.278 C 
BRANCH  25  26
ATOM     26  S   LIG    1       27.275 -13.559   4.268  0.00  0.00    +0.012 S 
ATOM     27  O   LIG    1       28.589 -13.151   3.674  0.00  0.00    -0.165 OA
BRANCH  26  28
ATOM     28  O   LIG    1       27.055 -12.554   5.501  0.00  0.00    -0.268 OA
ATOM     29  H   LIG    1       26.080 -12.429   5.591  0.00  0.00    +0.243 HD
ENDBRANCH  26  28
ENDBRANCH  25  26
ENDBRANCH  23  25
ENDBRANCH  20  23
ENDBRANCH   1  17
TORSDOF 10
ENDMDL
MODEL 3
REMARK VINA RESULT:      -0.3      2.404      4.774
REMARK  Name = *****
REMARK                            x       y       z     vdW  Elec       q    Type
REMARK                         _______ _______ _______ _____ _____    ______ ____
ROOT
ATOM      1  S   LIG    1       28.376 -18.178   5.012  0.00  0.00    +0.025 S 
ATOM      2  O   LIG    1       28.690 -17.974   6.420  0.00  0.00    -0.164 OA
ATOM      3  O   LIG    1       29.370 -18.729   4.111  0.00  0.00    -0.164 OA
ENDROOT
BRANCH   1   7
ATOM      4  C   LIG    1       27.107 -14.100   3.309  0.00  0.00    +0.028 A 
ATOM      5  C   LIG    1       28.056 -14.193   4.336  0.00  0.00    +0.025 A 
ATOM      6  C   LIG    1       28.447 -15.433   4.854  0.00  0.00    +0.029 A 
ATOM      7  C   LIG    1       27.861 -16.602   4.370  0.00  0.00    +0.094 A 
ATOM      8  C   LIG    1       26.877 -16.536   3.385  0.00  0.00    +0.029 A 
ATOM      9  C   LIG    1       26.495 -15.289   2.876  0.00  0.00    +0.025 A 
BRANCH   4  10
ATOM     10  N   LIG    1       26.646 -12.877   2.799  0.00  0.00    -0.325 N 
ATOM     11  H   LIG    1       26.658 -12.144   3.510  0.00  0.00    +0.148 HD
BRANCH  10  12
ATOM     12  C   LIG    1       25.367 -12.879   2.092  0.00  0.00    +0.278 C 
BRANCH  12  14
ATOM     13  O   LIG    1       24.637 -12.542   4.691  0.00  0.00    -0.165 OA
ATOM     14  S   LIG    1       24.062 -12.419   3.312  0.00  0.00    +0.012 S 
BRANCH  14  15
ATOM     15  O   LIG    1       23.221 -13.772   3.097  0.00  0.00    -0.268 OA
ATOM     16  H   LIG    1       23.166 -13.915   2.120  0.00  0.00    +0.243 HD
ENDBRANCH  14  15
ENDBRANCH  12  14
ENDBRANCH  10  12
ENDBRANCH   4  10
ENDBRANCH   1   7
BRANCH   1  17
ATOM     17  C   LIG    1       26.952 -19.238   4.930  0.00  0.00    +0.094 A 
ATOM     18  C   LIG    1       26.627 -20.044   6.021  0.00  0.00    +0.029 A 
ATOM     19  C   LIG    1       25.477 -20.836   5.975  0.00  0.00    +0.025 A 
ATOM     20  C   LIG    1       24.665 -20.871   4.833  0.00  0.00    +0.028 A 
ATOM     21  C   LIG    1       25.019 -20.051   3.749  0.00  0.00    +0.025 A 
ATOM     22  C   LIG    1       26.168 -19.255   3.779  0.00  0.00    +0.029 A 
BRANCH  20  23
ATOM     23  N   LIG    1       23.454 -21.572   4.774  0.00  0.00    -0.325 N 
ATOM     24  H   LIG    1       23.508 -22.460   5.265  0.00  0.00    +0.148 HD
BRANCH  23  25
ATOM     25  C   LIG    1       22.223 -20.848   5.074  0.00  0.00    +0.278 C 
BRANCH  25  26
ATOM     26  S   LIG    1       22.285 -19.212   4.225  0.00  0.00    +0.012 S 
ATOM     27  O   LIG    1       20.926 -18.929   3.659  0.00  0.00    -0.165 OA
BRANCH  26  28
ATOM     28  O   LIG    1       22.349 -18.354   5.581  0.00  0.00    -0.268 OA
ATOM     29  H   LIG    1       23.029 -18.784   6.154  0.00  0.00    +0.243 HD
ENDBRANCH  26  28
ENDBRANCH  25  26
ENDBRANCH  23  25
ENDBRANCH  20  23
ENDBRANCH   1  17
TORSDOF 10
ENDMDL
MODEL 4
REMARK VINA RESULT:       0.1      2.590      6.807
REMARK  Name = *****
REMARK                            x       y       z     vdW  Elec       q    Type
REMARK                         _______ _______ _______ _____ _____    ______ ____
ROOT
ATOM      1  S   LIG    1       27.425 -19.619   5.264  0.00  0.00    +0.025 S 
ATOM      2  O   LIG    1       28.211 -20.460   4.371  0.00  0.00    -0.164 OA
ATOM      3  O   LIG    1       27.773 -19.514   6.669  0.00  0.00    -0.164 OA
ENDROOT
BRANCH   1   7
ATOM      4  C   LIG    1       23.102 -21.155   4.958  0.00  0.00    +0.028 A 
ATOM      5  C   LIG    1       23.856 -20.876   3.809  0.00  0.00    +0.025 A 
ATOM      6  C   LIG    1       25.173 -20.412   3.899  0.00  0.00    +0.029 A 
ATOM      7  C   LIG    1       25.744 -20.185   5.151  0.00  0.00    +0.094 A 
ATOM      8  C   LIG    1       25.000 -20.404   6.310  0.00  0.00    +0.029 A 
ATOM      9  C   LIG    1       23.683 -20.868   6.204  0.00  0.00    +0.025 A 
BRANCH   4  10
ATOM     10  N   LIG    1       21.763 -21.568   4.914  0.00  0.00    -0.325 N 
ATOM     11  H   LIG    1       21.651 -22.427   4.373  0.00  0.00    +0.148 HD
BRANCH  10  12
ATOM     12  C   LIG    1       20.764 -20.580   4.510  0.00  0.00    +0.278 C 
BRANCH  12  14
ATOM     13  O   LIG    1       21.979 -18.229   5.136  0.00  0.00    -0.165 OA
ATOM     14  S   LIG    1       21.671 -19.079   3.940  0.00  0.00    +0.012 S 
BRANCH  14  15
ATOM     15  O   LIG    1       20.373 -18.402   3.279  0.00  0.00    -0.268 OA
ATOM     16  H   LIG    1       20.694 -17.616   2.773  0.00  0.00    +0.243 HD
ENDBRANCH  14  15
ENDBRANCH  12  14
ENDBRANCH  10  12
ENDBRANCH   4  10
ENDBRANCH   1   7
BRANCH   1  17
ATOM     17  C   LIG    1       27.441 -17.971   4.598  0.00  0.00    +0.094 A 
ATOM     18  C   LIG    1       26.468 -17.591   3.673  0.00  0.00    +0.029 A 
ATOM     19  C   LIG    1       26.449 -16.279   3.192  0.00  0.00    +0.025 A 
ATOM     20  C   LIG    1       27.419 -15.348   3.586  0.00  0.00    +0.028 A 
ATOM     21  C   LIG    1       28.388 -15.760   4.515  0.00  0.00    +0.025 A 
ATOM     22  C   LIG    1       28.421 -17.069   5.004  0.00  0.00    +0.029 A 
BRANCH  20  23
ATOM     23  N   LIG    1       27.388 -14.000   3.208  0.00  0.00    -0.325 N 
ATOM     24  H   LIG    1       28.256 -13.713   2.763  0.00  0.00    +0.148 HD
BRANCH  23  25
ATOM     25  C   LIG    1       26.213 -13.511   2.494  0.00  0.00    +0.278 C 
BRANCH  25  26
ATOM     26  S   LIG    1       24.769 -13.566   3.640  0.00  0.00    +0.012 S 
ATOM     27  O   LIG    1       25.082 -12.705   4.826  0.00  0.00    -0.165 OA
BRANCH  26  28
ATOM     28  O   LIG    1       23.822 -12.656   2.715  0.00  0.00    -0.268 OA
ATOM     29  H   LIG    1       24.105 -11.721   2.858  0.00  0.00    +0.243 HD
ENDBRANCH  26  28
ENDBRANCH  25  26
ENDBRANCH  23  25
ENDBRANCH  20  23
ENDBRANCH   1  17
TORSDOF 10
ENDMDL
