MODEL 1
REMARK VINA RESULT:      -7.1      0.000      0.000
REMARK  Name = *****
REMARK                            x       y       z     vdW  Elec       q    Type
REMARK                         _______ _______ _______ _____ _____    ______ ____
ROOT
ATOM      1  C   LIG    1       25.108 -24.836   4.183  0.00  0.00    +0.014 C 
ATOM      2  C   LIG    1       25.532 -25.325   5.577  0.00  0.00    +0.000 C 
ATOM      3  C   LIG    1       26.005 -26.823   5.563  0.00  0.00    +0.072 C 
ATOM      4  C   LIG    1       25.924 -27.202   7.053  0.00  0.00    +0.035 C 
ATOM      5  C   LIG    1       24.784 -26.375   7.642  0.00  0.00    +0.007 C 
ATOM      6  C   LIG    1       24.329 -25.401   6.535  0.00  0.00    +0.005 C 
ATOM      7  C   LIG    1       23.787 -24.070   7.091  0.00  0.00    +0.019 C 
ATOM      8  C   LIG    1       22.567 -23.614   6.346  0.00  0.00    -0.023 C 
ATOM      9  C   LIG    1       22.266 -22.344   6.077  0.00  0.00    +0.000 C 
ATOM     10  C   LIG    1       23.116 -21.224   6.421  0.00  0.00    -0.038 C 
ATOM     11  C   LIG    1       24.589 -21.520   6.720  0.00  0.00    -0.003 C 
ATOM     12  C   LIG    1       25.087 -20.504   7.801  0.00  0.00    +0.016 C 
ATOM     13  C   LIG    1       25.379 -21.208   5.400  0.00  0.00    +0.019 C 
ATOM     14  C   LIG    1       24.512 -20.856   4.175  0.00  0.00    +0.080 C 
ATOM     15  C   LIG    1       23.377 -19.910   4.527  0.00  0.00    +0.156 C 
ATOM     16  O   LIG    1       22.938 -19.077   3.740  0.00  0.00    -0.293 OA
ATOM     17  C   LIG    1       22.773 -20.025   5.907  0.00  0.00    +0.050 C 
ATOM     18  C   LIG    1       24.838 -22.959   7.350  0.00  0.00    +0.006 C 
ATOM     19  C   LIG    1       26.287 -23.473   7.281  0.00  0.00    +0.005 C 
ATOM     20  C   LIG    1       26.654 -24.390   6.115  0.00  0.00    +0.010 C 
ENDROOT
BRANCH   3  21
ATOM     21  O   LIG    1       27.359 -26.919   5.149  0.00  0.00    -0.388 OA
ATOM     22  H   LIG    1       27.500 -27.792   4.736  0.00  0.00    +0.210 HD
ENDBRANCH   3  21
BRANCH   3  23
ATOM     23  C   LIG    1       25.171 -27.784   4.676  0.00  0.00    +0.046 C 
BRANCH  23  24
ATOM     24  C   LIG    1       25.324 -29.278   4.991  0.00  0.00    +0.123 C 
BRANCH  24  25
ATOM     25  C   LIG    1       24.239 -29.865   5.850  0.00  0.00    +0.305 C 
ATOM     26  O   LIG    1       24.472 -30.532   6.852  0.00  0.00    -0.251 OA
BRANCH  25  27
ATOM     27  O   LIG    1       22.989 -29.617   5.426  0.00  0.00    -0.481 OA
ATOM     28  H   LIG    1       22.312 -30.077   5.969  0.00  0.00    +0.295 HD
ENDBRANCH  25  27
ENDBRANCH  24  25
ENDBRANCH  23  24
ENDBRANCH   3  23
TORSDOF 5
ENDMDL
MODEL 2
REMARK VINA RESULT:      -6.0      4.995      8.488
REMARK  Name = *****
REMARK                            x       y       z     vdW  Elec       q    Type
REMARK                         _______ _______ _______ _____ _____    ______ ____
ROOT
ATOM      1  C   LIG    1       25.953 -28.692   9.065  0.00  0.00    +0.014 C 
ATOM      2  C   LIG    1       25.361 -30.094   8.851  0.00  0.00    +0.000 C 
ATOM      3  C   LIG    1       25.041 -30.380   7.340  0.00  0.00    +0.072 C 
ATOM      4  C   LIG    1       24.078 -31.577   7.434  0.00  0.00    +0.035 C 
ATOM      5  C   LIG    1       23.314 -31.408   8.745  0.00  0.00    +0.007 C 
ATOM      6  C   LIG    1       23.961 -30.215   9.480  0.00  0.00    +0.005 C 
ATOM      7  C   LIG    1       23.887 -30.342  11.014  0.00  0.00    +0.019 C 
ATOM      8  C   LIG    1       23.552 -29.033  11.663  0.00  0.00    -0.023 C 
ATOM      9  C   LIG    1       24.035 -28.613  12.832  0.00  0.00    +0.000 C 
ATOM     10  C   LIG    1       25.006 -29.350  13.614  0.00  0.00    -0.038 C 
ATOM     11  C   LIG    1       25.821 -30.429  12.895  0.00  0.00    -0.003 C 
ATOM     12  C   LIG    1       26.121 -31.581  13.911  0.00  0.00    +0.016 C 
ATOM     13  C   LIG    1       27.199 -29.773  12.529  0.00  0.00    +0.019 C 
ATOM     14  C   LIG    1       27.315 -28.264  12.827  0.00  0.00    +0.080 C 
ATOM     15  C   LIG    1       26.726 -27.898  14.179  0.00  0.00    +0.156 C 
ATOM     16  O   LIG    1       27.164 -26.983  14.869  0.00  0.00    -0.293 OA
ATOM     17  C   LIG    1       25.547 -28.706  14.669  0.00  0.00    +0.050 C 
ATOM     18  C   LIG    1       25.045 -31.122  11.691  0.00  0.00    +0.006 C 
ATOM     19  C   LIG    1       25.924 -31.888  10.687  0.00  0.00    +0.005 C 
ATOM     20  C   LIG    1       26.355 -31.148   9.421  0.00  0.00    +0.010 C 
ENDROOT
BRANCH   3  21
ATOM     21  O   LIG    1       26.210 -30.799   6.650  0.00  0.00    -0.388 OA
ATOM     22  H   LIG    1       26.974 -30.300   6.996  0.00  0.00    +0.210 HD
ENDBRANCH   3  21
BRANCH   3  23
ATOM     23  C   LIG    1       24.423 -29.200   6.547  0.00  0.00    +0.046 C 
BRANCH  23  24
ATOM     24  C   LIG    1       25.252 -28.691   5.361  0.00  0.00    +0.123 C 
BRANCH  24  25
ATOM     25  C   LIG    1       25.897 -27.348   5.560  0.00  0.00    +0.305 C 
ATOM     26  O   LIG    1       25.373 -26.448   6.206  0.00  0.00    -0.251 OA
BRANCH  25  27
ATOM     27  O   LIG    1       27.090 -27.203   4.959  0.00  0.00    -0.481 OA
ATOM     28  H   LIG    1       27.554 -26.385   5.244  0.00  0.00    +0.295 HD
ENDBRANCH  25  27
ENDBRANCH  24  25
ENDBRANCH  23  24
ENDBRANCH   3  23
TORSDOF 5
ENDMDL
MODEL 3
REMARK VINA RESULT:      -6.0      6.791      9.458
REMARK  Name = *****
REMARK                            x       y       z     vdW  Elec       q    Type
REMARK                         _______ _______ _______ _____ _____    ______ ____
ROOT
ATOM      1  C   LIG    1       22.957 -31.474   9.521  0.00  0.00    +0.014 C 
ATOM      2  C   LIG    1       24.194 -30.981  10.289  0.00  0.00    +0.000 C 
ATOM      3  C   LIG    1       23.823 -30.391  11.698  0.00  0.00    +0.072 C 
ATOM      4  C   LIG    1       25.082 -29.579  12.049  0.00  0.00    +0.035 C 
ATOM      5  C   LIG    1       25.654 -29.083  10.724  0.00  0.00    +0.007 C 
ATOM      6  C   LIG    1       24.824 -29.753   9.609  0.00  0.00    +0.005 C 
ATOM      7  C   LIG    1       25.637 -30.002   8.322  0.00  0.00    +0.019 C 
ATOM      8  C   LIG    1       24.837 -29.686   7.093  0.00  0.00    -0.023 C 
ATOM      9  C   LIG    1       24.909 -30.354   5.942  0.00  0.00    +0.000 C 
ATOM     10  C   LIG    1       25.737 -31.526   5.741  0.00  0.00    -0.038 C 
ATOM     11  C   LIG    1       26.219 -32.274   6.988  0.00  0.00    -0.003 C 
ATOM     12  C   LIG    1       27.632 -32.875   6.687  0.00  0.00    +0.016 C 
ATOM     13  C   LIG    1       25.240 -33.484   7.183  0.00  0.00    +0.019 C 
ATOM     14  C   LIG    1       24.031 -33.521   6.227  0.00  0.00    +0.080 C 
ATOM     15  C   LIG    1       24.418 -33.185   4.797  0.00  0.00    +0.156 C 
ATOM     16  O   LIG    1       23.848 -33.668   3.824  0.00  0.00    -0.293 OA
ATOM     17  C   LIG    1       25.551 -32.207   4.591  0.00  0.00    +0.050 C 
ATOM     18  C   LIG    1       26.422 -31.337   8.258  0.00  0.00    +0.006 C 
ATOM     19  C   LIG    1       26.491 -32.062   9.613  0.00  0.00    +0.005 C 
ATOM     20  C   LIG    1       25.200 -32.161  10.426  0.00  0.00    +0.010 C 
ENDROOT
BRANCH   3  21
ATOM     21  O   LIG    1       23.677 -31.430  12.655  0.00  0.00    -0.388 OA
ATOM     22  H   LIG    1       23.886 -32.282  12.227  0.00  0.00    +0.210 HD
ENDBRANCH   3  21
BRANCH   3  23
ATOM     23  C   LIG    1       22.540 -29.521  11.747  0.00  0.00    +0.046 C 
BRANCH  23  24
ATOM     24  C   LIG    1       22.294 -28.777  13.065  0.00  0.00    +0.123 C 
BRANCH  24  25
ATOM     25  C   LIG    1       21.671 -27.416  12.925  0.00  0.00    +0.305 C 
ATOM     26  O   LIG    1       22.300 -26.377  13.091  0.00  0.00    -0.251 OA
BRANCH  25  27
ATOM     27  O   LIG    1       20.363 -27.425  12.621  0.00  0.00    -0.481 OA
ATOM     28  H   LIG    1       20.037 -28.325  12.401  0.00  0.00    +0.295 HD
ENDBRANCH  25  27
ENDBRANCH  24  25
ENDBRANCH  23  24
ENDBRANCH   3  23
TORSDOF 5
ENDMDL
MODEL 4
REMARK VINA RESULT:      -6.0      5.946      7.808
REMARK  Name = *****
REMARK                            x       y       z     vdW  Elec       q    Type
REMARK                         _______ _______ _______ _____ _____    ______ ____
ROOT
ATOM      1  C   LIG    1       25.621 -28.451   9.725  0.00  0.00    +0.014 C 
ATOM      2  C   LIG    1       25.680 -29.892  10.258  0.00  0.00    +0.000 C 
ATOM      3  C   LIG    1       25.623 -30.956   9.103  0.00  0.00    +0.072 C 
ATOM      4  C   LIG    1       25.235 -32.236   9.863  0.00  0.00    +0.035 C 
ATOM      5  C   LIG    1       24.373 -31.790  11.041  0.00  0.00    +0.007 C 
ATOM      6  C   LIG    1       24.412 -30.247  11.054  0.00  0.00    +0.005 C 
ATOM      7  C   LIG    1       24.281 -29.655  12.471  0.00  0.00    +0.019 C 
ATOM      8  C   LIG    1       23.387 -28.451  12.488  0.00  0.00    -0.023 C 
ATOM      9  C   LIG    1       23.563 -27.378  13.259  0.00  0.00    +0.000 C 
ATOM     10  C   LIG    1       24.690 -27.205  14.152  0.00  0.00    -0.038 C 
ATOM     11  C   LIG    1       25.930 -28.068  13.903  0.00  0.00    -0.003 C 
ATOM     12  C   LIG    1       26.601 -28.378  15.283  0.00  0.00    +0.016 C 
ATOM     13  C   LIG    1       26.936 -27.176  13.095  0.00  0.00    +0.019 C 
ATOM     14  C   LIG    1       26.396 -25.801  12.652  0.00  0.00    +0.080 C 
ATOM     15  C   LIG    1       25.608 -25.111  13.753  0.00  0.00    +0.156 C 
ATOM     16  O   LIG    1       25.575 -23.891  13.881  0.00  0.00    -0.293 OA
ATOM     17  C   LIG    1       24.835 -25.985  14.711  0.00  0.00    +0.050 C 
ATOM     18  C   LIG    1       25.603 -29.490  13.266  0.00  0.00    +0.006 C 
ATOM     19  C   LIG    1       26.793 -30.216  12.615  0.00  0.00    +0.005 C 
ATOM     20  C   LIG    1       26.975 -30.058  11.106  0.00  0.00    +0.010 C 
ENDROOT
BRANCH   3  21
ATOM     21  O   LIG    1       26.908 -31.145   8.530  0.00  0.00    -0.388 OA
ATOM     22  H   LIG    1       27.579 -31.067   9.234  0.00  0.00    +0.210 HD
ENDBRANCH   3  21
BRANCH   3  23
ATOM     23  C   LIG    1       24.633 -30.645   7.950  0.00  0.00    +0.046 C 
BRANCH  23  24
ATOM     24  C   LIG    1       25.271 -30.412   6.574  0.00  0.00    +0.123 C 
BRANCH  24  25
ATOM     25  C   LIG    1       24.586 -29.382   5.718  0.00  0.00    +0.305 C 
ATOM     26  O   LIG    1       25.169 -28.408   5.257  0.00  0.00    -0.251 OA
BRANCH  25  27
ATOM     27  O   LIG    1       23.278 -29.603   5.511  0.00  0.00    -0.481 OA
ATOM     28  H   LIG    1       23.106 -30.054   4.655  0.00  0.00    +0.295 HD
ENDBRANCH  25  27
ENDBRANCH  24  25
ENDBRANCH  23  24
ENDBRANCH   3  23
TORSDOF 5
ENDMDL
MODEL 5
REMARK VINA RESULT:      -5.6      5.910      9.018
REMARK  Name = *****
REMARK                            x       y       z     vdW  Elec       q    Type
REMARK                         _______ _______ _______ _____ _____    ______ ____
ROOT
ATOM      1  C   LIG    1       23.868 -29.988   8.837  0.00  0.00    +0.014 C 
ATOM      2  C   LIG    1       24.491 -31.385   8.974  0.00  0.00    +0.000 C 
ATOM      3  C   LIG    1       25.322 -31.793   7.704  0.00  0.00    +0.072 C 
ATOM      4  C   LIG    1       25.437 -33.319   7.870  0.00  0.00    +0.035 C 
ATOM      5  C   LIG    1       24.168 -33.768   8.591  0.00  0.00    +0.007 C 
ATOM      6  C   LIG    1       23.412 -32.483   8.990  0.00  0.00    +0.005 C 
ATOM      7  C   LIG    1       22.592 -32.645  10.285  0.00  0.00    +0.019 C 
ATOM      8  C   LIG    1       21.251 -31.983  10.178  0.00  0.00    -0.023 C 
ATOM      9  C   LIG    1       20.625 -31.360  11.176  0.00  0.00    +0.000 C 
ATOM     10  C   LIG    1       21.189 -31.187  12.498  0.00  0.00    -0.038 C 
ATOM     11  C   LIG    1       22.706 -31.343  12.646  0.00  0.00    -0.003 C 
ATOM     12  C   LIG    1       23.004 -31.944  14.060  0.00  0.00    +0.016 C 
ATOM     13  C   LIG    1       23.304 -29.892  12.630  0.00  0.00    +0.019 C 
ATOM     14  C   LIG    1       22.296 -28.763  12.333  0.00  0.00    +0.080 C 
ATOM     15  C   LIG    1       20.987 -28.950  13.080  0.00  0.00    +0.156 C 
ATOM     16  O   LIG    1       20.303 -28.007  13.467  0.00  0.00    -0.293 OA
ATOM     17  C   LIG    1       20.524 -30.365  13.336  0.00  0.00    +0.050 C 
ATOM     18  C   LIG    1       23.348 -32.366  11.610  0.00  0.00    +0.006 C 
ATOM     19  C   LIG    1       24.871 -32.255  11.424  0.00  0.00    +0.005 C 
ATOM     20  C   LIG    1       25.378 -31.413  10.253  0.00  0.00    +0.010 C 
ENDROOT
BRANCH   3  21
ATOM     21  O   LIG    1       26.627 -31.237   7.757  0.00  0.00    -0.388 OA
ATOM     22  H   LIG    1       26.863 -30.908   6.869  0.00  0.00    +0.210 HD
ENDBRANCH   3  21
BRANCH   3  23
ATOM     23  C   LIG    1       24.698 -31.405   6.339  0.00  0.00    +0.046 C 
BRANCH  23  24
ATOM     24  C   LIG    1       25.396 -30.260   5.593  0.00  0.00    +0.123 C 
BRANCH  24  25
ATOM     25  C   LIG    1       24.527 -29.072   5.287  0.00  0.00    +0.305 C 
ATOM     26  O   LIG    1       24.984 -27.968   5.012  0.00  0.00    -0.251 OA
BRANCH  25  27
ATOM     27  O   LIG    1       23.207 -29.308   5.356  0.00  0.00    -0.481 OA
ATOM     28  H   LIG    1       22.829 -29.574   4.489  0.00  0.00    +0.295 HD
ENDBRANCH  25  27
ENDBRANCH  24  25
ENDBRANCH  23  24
ENDBRANCH   3  23
TORSDOF 5
ENDMDL
MODEL 6
REMARK VINA RESULT:      -5.5      6.865      8.615
REMARK  Name = *****
REMARK                            x       y       z     vdW  Elec       q    Type
REMARK                         _______ _______ _______ _____ _____    ______ ____
ROOT
ATOM      1  C   LIG    1       26.596 -32.224   8.733  0.00  0.00    +0.014 C 
ATOM      2  C   LIG    1       25.375 -31.772   7.918  0.00  0.00    +0.000 C 
ATOM      3  C   LIG    1       25.370 -32.379   6.468  0.00  0.00    +0.072 C 
ATOM      4  C   LIG    1       24.375 -31.461   5.737  0.00  0.00    +0.035 C 
ATOM      5  C   LIG    1       24.498 -30.089   6.394  0.00  0.00    +0.007 C 
ATOM      6  C   LIG    1       25.432 -30.265   7.609  0.00  0.00    +0.005 C 
ATOM      7  C   LIG    1       25.105 -29.298   8.764  0.00  0.00    +0.019 C 
ATOM      8  C   LIG    1       26.350 -28.740   9.388  0.00  0.00    -0.023 C 
ATOM      9  C   LIG    1       26.501 -28.475  10.685  0.00  0.00    +0.000 C 
ATOM     10  C   LIG    1       25.492 -28.749  11.687  0.00  0.00    -0.038 C 
ATOM     11  C   LIG    1       24.392 -29.752  11.327  0.00  0.00    -0.003 C 
ATOM     12  C   LIG    1       23.073 -29.316  12.047  0.00  0.00    +0.016 C 
ATOM     13  C   LIG    1       24.823 -31.125  11.953  0.00  0.00    +0.019 C 
ATOM     14  C   LIG    1       26.225 -31.151  12.594  0.00  0.00    +0.080 C 
ATOM     15  C   LIG    1       26.500 -29.909  13.425  0.00  0.00    +0.156 C 
ATOM     16  O   LIG    1       27.210 -29.924  14.426  0.00  0.00    -0.293 OA
ATOM     17  C   LIG    1       25.868 -28.613  12.976  0.00  0.00    +0.050 C 
ATOM     18  C   LIG    1       24.034 -29.781   9.777  0.00  0.00    +0.006 C 
ATOM     19  C   LIG    1       23.267 -31.024   9.296  0.00  0.00    +0.005 C 
ATOM     20  C   LIG    1       24.084 -32.167   8.692  0.00  0.00    +0.010 C 
ENDROOT
BRANCH   3  21
ATOM     21  O   LIG    1       24.842 -33.697   6.477  0.00  0.00    -0.388 OA
ATOM     22  H   LIG    1       25.286 -34.217   5.781  0.00  0.00    +0.210 HD
ENDBRANCH   3  21
BRANCH   3  23
ATOM     23  C   LIG    1       26.746 -32.428   5.754  0.00  0.00    +0.046 C 
BRANCH  23  24
ATOM     24  C   LIG    1       26.946 -33.596   4.780  0.00  0.00    +0.123 C 
BRANCH  24  25
ATOM     25  C   LIG    1       26.405 -33.373   3.395  0.00  0.00    +0.305 C 
ATOM     26  O   LIG    1       27.051 -32.826   2.509  0.00  0.00    -0.251 OA
BRANCH  25  27
ATOM     27  O   LIG    1       25.148 -33.806   3.206  0.00  0.00    -0.481 OA
ATOM     28  H   LIG    1       24.903 -33.842   2.255  0.00  0.00    +0.295 HD
ENDBRANCH  25  27
ENDBRANCH  24  25
ENDBRANCH  23  24
ENDBRANCH   3  23
TORSDOF 5
ENDMDL
MODEL 7
REMARK VINA RESULT:      -5.5      5.322      8.376
REMARK  Name = *****
REMARK                            x       y       z     vdW  Elec       q    Type
REMARK                         _______ _______ _______ _____ _____    ______ ____
ROOT
ATOM      1  C   LIG    1       25.177 -29.302   8.718  0.00  0.00    +0.014 C 
ATOM      2  C   LIG    1       25.034 -30.831   8.647  0.00  0.00    +0.000 C 
ATOM      3  C   LIG    1       25.151 -31.371   7.177  0.00  0.00    +0.072 C 
ATOM      4  C   LIG    1       24.535 -32.776   7.299  0.00  0.00    +0.035 C 
ATOM      5  C   LIG    1       23.476 -32.685   8.395  0.00  0.00    +0.007 C 
ATOM      6  C   LIG    1       23.608 -31.278   9.016  0.00  0.00    +0.005 C 
ATOM      7  C   LIG    1       23.222 -31.242  10.508  0.00  0.00    +0.019 C 
ATOM      8  C   LIG    1       22.421 -30.020  10.843  0.00  0.00    -0.023 C 
ATOM      9  C   LIG    1       22.500 -29.345  11.990  0.00  0.00    +0.000 C 
ATOM     10  C   LIG    1       23.424 -29.672  13.055  0.00  0.00    -0.038 C 
ATOM     11  C   LIG    1       24.632 -30.544  12.701  0.00  0.00    -0.003 C 
ATOM     12  C   LIG    1       24.980 -31.433  13.941  0.00  0.00    +0.016 C 
ATOM     13  C   LIG    1       25.839 -29.564  12.488  0.00  0.00    +0.019 C 
ATOM     14  C   LIG    1       25.490 -28.062  12.534  0.00  0.00    +0.080 C 
ATOM     15  C   LIG    1       24.535 -27.729  13.667  0.00  0.00    +0.156 C 
ATOM     16  O   LIG    1       24.552 -26.652  14.255  0.00  0.00    -0.293 OA
ATOM     17  C   LIG    1       23.525 -28.780  14.063  0.00  0.00    +0.050 C 
ATOM     18  C   LIG    1       24.357 -31.568  11.514  0.00  0.00    +0.006 C 
ATOM     19  C   LIG    1       25.609 -32.157  10.841  0.00  0.00    +0.005 C 
ATOM     20  C   LIG    1       26.110 -31.477   9.567  0.00  0.00    +0.010 C 
ENDROOT
BRANCH   3  21
ATOM     21  O   LIG    1       26.513 -31.510   6.800  0.00  0.00    -0.388 OA
ATOM     22  H   LIG    1       27.075 -31.280   7.565  0.00  0.00    +0.210 HD
ENDBRANCH   3  21
BRANCH   3  23
ATOM     23  C   LIG    1       24.445 -30.522   6.088  0.00  0.00    +0.046 C 
BRANCH  23  24
ATOM     24  C   LIG    1       25.374 -29.717   5.170  0.00  0.00    +0.123 C 
BRANCH  24  25
ATOM     25  C   LIG    1       25.189 -28.226   5.221  0.00  0.00    +0.305 C 
ATOM     26  O   LIG    1       26.101 -27.435   5.005  0.00  0.00    -0.251 OA
BRANCH  25  27
ATOM     27  O   LIG    1       23.949 -27.823   5.542  0.00  0.00    -0.481 OA
ATOM     28  H   LIG    1       23.870 -26.844   5.572  0.00  0.00    +0.295 HD
ENDBRANCH  25  27
ENDBRANCH  24  25
ENDBRANCH  23  24
ENDBRANCH   3  23
TORSDOF 5
ENDMDL
MODEL 8
REMARK VINA RESULT:      -5.5      6.181      9.131
REMARK  Name = *****
REMARK                            x       y       z     vdW  Elec       q    Type
REMARK                         _______ _______ _______ _____ _____    ______ ____
ROOT
ATOM      1  C   LIG    1       27.227 -30.750  10.237  0.00  0.00    +0.014 C 
ATOM      2  C   LIG    1       25.717 -31.021  10.317  0.00  0.00    +0.000 C 
ATOM      3  C   LIG    1       25.151 -31.631   8.984  0.00  0.00    +0.072 C 
ATOM      4  C   LIG    1       23.640 -31.380   9.130  0.00  0.00    +0.035 C 
ATOM      5  C   LIG    1       23.496 -30.097   9.943  0.00  0.00    +0.007 C 
ATOM      6  C   LIG    1       24.916 -29.710  10.408  0.00  0.00    +0.005 C 
ATOM      7  C   LIG    1       24.925 -28.972  11.761  0.00  0.00    +0.019 C 
ATOM      8  C   LIG    1       25.896 -27.830  11.763  0.00  0.00    -0.023 C 
ATOM      9  C   LIG    1       26.628 -27.449  12.810  0.00  0.00    +0.000 C 
ATOM     10  C   LIG    1       26.624 -28.134  14.086  0.00  0.00    -0.038 C 
ATOM     11  C   LIG    1       26.100 -29.573  14.116  0.00  0.00    -0.003 C 
ATOM     12  C   LIG    1       25.408 -29.818  15.498  0.00  0.00    +0.016 C 
ATOM     13  C   LIG    1       27.361 -30.505  14.063  0.00  0.00    +0.019 C 
ATOM     14  C   LIG    1       28.709 -29.786  13.853  0.00  0.00    +0.080 C 
ATOM     15  C   LIG    1       28.828 -28.529  14.697  0.00  0.00    +0.156 C 
ATOM     16  O   LIG    1       29.898 -28.127  15.142  0.00  0.00    -0.293 OA
ATOM     17  C   LIG    1       27.562 -27.754  14.979  0.00  0.00    +0.050 C 
ATOM     18  C   LIG    1       24.978 -29.867  13.027  0.00  0.00    +0.006 C 
ATOM     19  C   LIG    1       24.719 -31.354  12.724  0.00  0.00    +0.005 C 
ATOM     20  C   LIG    1       25.442 -31.964  11.524  0.00  0.00    +0.010 C 
ENDROOT
BRANCH   3  21
ATOM     21  O   LIG    1       25.371 -33.033   8.940  0.00  0.00    -0.388 OA
ATOM     22  H   LIG    1       25.044 -33.374   8.086  0.00  0.00    +0.210 HD
ENDBRANCH   3  21
BRANCH   3  23
ATOM     23  C   LIG    1       25.714 -31.023   7.673  0.00  0.00    +0.046 C 
BRANCH  23  24
ATOM     24  C   LIG    1       24.708 -30.876   6.525  0.00  0.00    +0.123 C 
BRANCH  24  25
ATOM     25  C   LIG    1       24.275 -29.467   6.230  0.00  0.00    +0.305 C 
ATOM     26  O   LIG    1       24.819 -28.487   6.726  0.00  0.00    -0.251 OA
BRANCH  25  27
ATOM     27  O   LIG    1       23.231 -29.363   5.392  0.00  0.00    -0.481 OA
ATOM     28  H   LIG    1       23.210 -28.498   4.926  0.00  0.00    +0.295 HD
ENDBRANCH  25  27
ENDBRANCH  24  25
ENDBRANCH  23  24
ENDBRANCH   3  23
TORSDOF 5
ENDMDL
MODEL 9
REMARK VINA RESULT:      -5.4      7.646     10.293
REMARK  Name = *****
REMARK                            x       y       z     vdW  Elec       q    Type
REMARK                         _______ _______ _______ _____ _____    ______ ____
ROOT
ATOM      1  C   LIG    1       24.197 -27.565  13.012  0.00  0.00    +0.014 C 
ATOM      2  C   LIG    1       25.485 -28.303  13.407  0.00  0.00    +0.000 C 
ATOM      3  C   LIG    1       26.537 -27.348  14.079  0.00  0.00    +0.072 C 
ATOM      4  C   LIG    1       27.837 -28.161  13.955  0.00  0.00    +0.035 C 
ATOM      5  C   LIG    1       27.705 -28.986  12.677  0.00  0.00    +0.007 C 
ATOM      6  C   LIG    1       26.264 -28.777  12.167  0.00  0.00    +0.005 C 
ATOM      7  C   LIG    1       25.709 -30.003  11.414  0.00  0.00    +0.019 C 
ATOM      8  C   LIG    1       24.935 -29.600  10.194  0.00  0.00    -0.023 C 
ATOM      9  C   LIG    1       23.846 -30.220   9.741  0.00  0.00    +0.000 C 
ATOM     10  C   LIG    1       23.223 -31.344  10.408  0.00  0.00    -0.038 C 
ATOM     11  C   LIG    1       23.561 -31.567  11.885  0.00  0.00    -0.003 C 
ATOM     12  C   LIG    1       23.539 -33.106  12.169  0.00  0.00    +0.016 C 
ATOM     13  C   LIG    1       22.386 -30.933  12.708  0.00  0.00    +0.019 C 
ATOM     14  C   LIG    1       21.338 -30.161  11.882  0.00  0.00    +0.080 C 
ATOM     15  C   LIG    1       20.955 -30.895  10.608  0.00  0.00    +0.156 C 
ATOM     16  O   LIG    1       19.835 -30.826  10.113  0.00  0.00    -0.293 OA
ATOM     17  C   LIG    1       22.019 -31.733   9.939  0.00  0.00    +0.050 C 
ATOM     18  C   LIG    1       25.024 -31.087  12.286  0.00  0.00    +0.006 C 
ATOM     19  C   LIG    1       25.270 -30.894  13.792  0.00  0.00    +0.005 C 
ATOM     20  C   LIG    1       25.115 -29.481  14.355  0.00  0.00    +0.010 C 
ENDROOT
BRANCH   3  21
ATOM     21  O   LIG    1       26.247 -27.174  15.458  0.00  0.00    -0.388 OA
ATOM     22  H   LIG    1       25.318 -27.425  15.618  0.00  0.00    +0.210 HD
ENDBRANCH   3  21
BRANCH   3  23
ATOM     23  C   LIG    1       26.670 -25.940  13.443  0.00  0.00    +0.046 C 
BRANCH  23  24
ATOM     24  C   LIG    1       26.872 -24.784  14.431  0.00  0.00    +0.123 C 
BRANCH  24  25
ATOM     25  C   LIG    1       25.642 -23.968  14.721  0.00  0.00    +0.305 C 
ATOM     26  O   LIG    1       25.529 -22.794  14.387  0.00  0.00    -0.251 OA
BRANCH  25  27
ATOM     27  O   LIG    1       24.680 -24.622  15.393  0.00  0.00    -0.481 OA
ATOM     28  H   LIG    1       24.438 -24.171  16.232  0.00  0.00    +0.295 HD
ENDBRANCH  25  27
ENDBRANCH  24  25
ENDBRANCH  23  24
ENDBRANCH   3  23
TORSDOF 5
ENDMDL
