MODEL 1
REMARK VINA RESULT:      -8.0      0.000      0.000
REMARK  Name = *****
REMARK                            x       y       z     vdW  Elec       q    Type
REMARK                         _______ _______ _______ _____ _____    ______ ____
ROOT
ATOM      1  C   LIG    1       28.473 -18.651   5.228  0.00  0.00    +0.039 A 
ATOM      2  C   LIG    1       27.680 -19.749   5.694  0.00  0.00    +0.057 A 
ATOM      3  C   LIG    1       28.179 -20.610   6.708  0.00  0.00    +0.031 A 
ATOM      4  S   LIG    1       27.243 -22.004   7.322  0.00  0.00    -0.088 S 
ATOM      5  C   LIG    1       25.581 -21.566   6.926  0.00  0.00    +0.024 A 
ATOM      6  C   LIG    1       25.262 -20.707   5.880  0.00  0.00    +0.036 A 
ATOM      7  C   LIG    1       23.911 -20.502   5.541  0.00  0.00    +0.013 A 
ATOM      8  C   LIG    1       22.892 -21.108   6.277  0.00  0.00    +0.001 A 
ATOM      9  C   LIG    1       23.210 -21.932   7.352  0.00  0.00    +0.001 A 
ATOM     10  C   LIG    1       24.549 -22.168   7.666  0.00  0.00    +0.016 A 
ATOM     11  C   LIG    1       29.473 -20.394   7.247  0.00  0.00    -0.008 A 
ATOM     12  C   LIG    1       30.216 -19.303   6.792  0.00  0.00    +0.009 A 
ATOM     13  C   LIG    1       26.312 -19.985   5.122  0.00  0.00    +0.197 A 
ATOM     14  O   LIG    1       25.991 -19.515   4.018  0.00  0.00    -0.286 OA
ATOM     15  C   LIG    1       29.745 -18.487   5.779  0.00  0.00    +0.024 A 
ENDROOT
BRANCH   1  16
ATOM     16  N   LIG    1       28.055 -17.795   4.213  0.00  0.00    -0.342 N 
ATOM     17  H   LIG    1       27.547 -18.249   3.452  0.00  0.00    +0.146 HD
BRANCH  16  18
ATOM     18  C   LIG    1       27.873 -16.347   4.346  0.00  0.00    +0.117 C 
BRANCH  18  19
ATOM     19  C   LIG    1       26.661 -15.845   3.512  0.00  0.00    +0.103 C 
BRANCH  19  20
ATOM     20  N   LIG    1       26.652 -14.406   3.122  0.00  0.00    -0.301 NA
BRANCH  20  22
ATOM     21  C   LIG    1       24.243 -14.646   3.927  0.00  0.00    +0.020 C 
ATOM     22  C   LIG    1       25.268 -13.871   3.101  0.00  0.00    +0.081 C 
ENDBRANCH  20  22
BRANCH  20  23
ATOM     23  C   LIG    1       27.511 -13.593   4.007  0.00  0.00    +0.081 C 
ATOM     24  C   LIG    1       27.075 -13.576   5.473  0.00  0.00    +0.020 C 
ENDBRANCH  20  23
ENDBRANCH  19  20
ENDBRANCH  18  19
ENDBRANCH  16  18
ENDBRANCH   1  16
BRANCH  11  25
ATOM     25  C   LIG    1       30.098 -21.240   8.339  0.00  0.00    +0.192 C 
BRANCH  25  26
ATOM     26  O   LIG    1       31.527 -21.192   8.287  0.00  0.00    -0.390 OA
ATOM     27  H   LIG    1       31.840 -20.916   9.165  0.00  0.00    +0.210 HD
ENDBRANCH  25  26
ENDBRANCH  11  25
TORSDOF 8
ENDMDL
MODEL 2
REMARK VINA RESULT:      -7.9      3.028      5.809
REMARK  Name = *****
REMARK                            x       y       z     vdW  Elec       q    Type
REMARK                         _______ _______ _______ _____ _____    ______ ____
ROOT
ATOM      1  C   LIG    1       26.859 -19.747   4.937  0.00  0.00    +0.039 A 
ATOM      2  C   LIG    1       25.865 -20.638   5.457  0.00  0.00    +0.057 A 
ATOM      3  C   LIG    1       24.495 -20.450   5.127  0.00  0.00    +0.031 A 
ATOM      4  S   LIG    1       23.207 -21.519   5.756  0.00  0.00    -0.088 S 
ATOM      5  C   LIG    1       24.083 -22.997   6.154  0.00  0.00    +0.024 A 
ATOM      6  C   LIG    1       25.439 -23.003   6.468  0.00  0.00    +0.036 A 
ATOM      7  C   LIG    1       26.043 -24.200   6.898  0.00  0.00    +0.013 A 
ATOM      8  C   LIG    1       25.310 -25.386   6.961  0.00  0.00    +0.001 A 
ATOM      9  C   LIG    1       23.966 -25.388   6.604  0.00  0.00    +0.001 A 
ATOM     10  C   LIG    1       23.354 -24.197   6.214  0.00  0.00    +0.016 A 
ATOM     11  C   LIG    1       24.109 -19.367   4.296  0.00  0.00    -0.008 A 
ATOM     12  C   LIG    1       25.100 -18.528   3.783  0.00  0.00    +0.009 A 
ATOM     13  C   LIG    1       26.269 -21.781   6.342  0.00  0.00    +0.197 A 
ATOM     14  O   LIG    1       27.355 -21.771   6.943  0.00  0.00    -0.286 OA
ATOM     15  C   LIG    1       26.428 -18.690   4.134  0.00  0.00    +0.024 A 
ENDROOT
BRANCH   1  16
ATOM     16  N   LIG    1       28.210 -19.857   5.251  0.00  0.00    -0.342 N 
ATOM     17  H   LIG    1       28.691 -20.641   4.805  0.00  0.00    +0.146 HD
BRANCH  16  18
ATOM     18  C   LIG    1       29.057 -18.771   5.749  0.00  0.00    +0.117 C 
BRANCH  18  19
ATOM     19  C   LIG    1       30.245 -19.313   6.591  0.00  0.00    +0.103 C 
BRANCH  19  20
ATOM     20  N   LIG    1       30.119 -19.239   8.076  0.00  0.00    -0.301 NA
BRANCH  20  22
ATOM     21  C   LIG    1       30.819 -21.572   8.835  0.00  0.00    +0.020 C 
ATOM     22  C   LIG    1       31.144 -20.082   8.737  0.00  0.00    +0.081 C 
ENDBRANCH  20  22
BRANCH  20  23
ATOM     23  C   LIG    1       30.198 -17.846   8.562  0.00  0.00    +0.081 C 
ATOM     24  C   LIG    1       30.330 -17.711  10.080  0.00  0.00    +0.020 C 
ENDBRANCH  20  23
ENDBRANCH  19  20
ENDBRANCH  18  19
ENDBRANCH  16  18
ENDBRANCH   1  16
BRANCH  11  25
ATOM     25  C   LIG    1       22.682 -19.081   3.871  0.00  0.00    +0.192 C 
BRANCH  25  26
ATOM     26  O   LIG    1       22.163 -17.919   4.522  0.00  0.00    -0.390 OA
ATOM     27  H   LIG    1       22.656 -17.152   4.184  0.00  0.00    +0.210 HD
ENDBRANCH  25  26
ENDBRANCH  11  25
TORSDOF 8
ENDMDL
MODEL 3
REMARK VINA RESULT:      -7.8      3.887      8.460
REMARK  Name = *****
REMARK                            x       y       z     vdW  Elec       q    Type
REMARK                         _______ _______ _______ _____ _____    ______ ____
ROOT
ATOM      1  C   LIG    1       23.893 -22.113   6.348  0.00  0.00    +0.039 A 
ATOM      2  C   LIG    1       25.130 -21.477   6.005  0.00  0.00    +0.057 A 
ATOM      3  C   LIG    1       25.136 -20.344   5.147  0.00  0.00    +0.031 A 
ATOM      4  S   LIG    1       26.647 -19.514   4.673  0.00  0.00    -0.088 S 
ATOM      5  C   LIG    1       27.763 -19.963   5.963  0.00  0.00    +0.024 A 
ATOM      6  C   LIG    1       27.616 -21.128   6.709  0.00  0.00    +0.036 A 
ATOM      7  C   LIG    1       28.614 -21.485   7.636  0.00  0.00    +0.013 A 
ATOM      8  C   LIG    1       29.716 -20.657   7.852  0.00  0.00    +0.001 A 
ATOM      9  C   LIG    1       29.839 -19.469   7.138  0.00  0.00    +0.001 A 
ATOM     10  C   LIG    1       28.873 -19.131   6.190  0.00  0.00    +0.016 A 
ATOM     11  C   LIG    1       23.917 -19.853   4.612  0.00  0.00    -0.008 A 
ATOM     12  C   LIG    1       22.724 -20.478   4.981  0.00  0.00    +0.009 A 
ATOM     13  C   LIG    1       26.423 -21.996   6.564  0.00  0.00    +0.197 A 
ATOM     14  O   LIG    1       26.512 -23.157   6.995  0.00  0.00    -0.286 OA
ATOM     15  C   LIG    1       22.722 -21.603   5.786  0.00  0.00    +0.024 A 
ENDROOT
BRANCH   1  16
ATOM     16  N   LIG    1       23.825 -23.246   7.154  0.00  0.00    -0.342 N 
ATOM     17  H   LIG    1       23.874 -23.060   8.157  0.00  0.00    +0.146 HD
BRANCH  16  18
ATOM     18  C   LIG    1       23.260 -24.537   6.756  0.00  0.00    +0.117 C 
BRANCH  18  19
ATOM     19  C   LIG    1       24.236 -25.331   5.843  0.00  0.00    +0.103 C 
BRANCH  19  20
ATOM     20  N   LIG    1       24.956 -26.485   6.454  0.00  0.00    -0.301 NA
BRANCH  20  22
ATOM     21  C   LIG    1       24.478 -28.909   7.089  0.00  0.00    +0.020 C 
ATOM     22  C   LIG    1       24.308 -27.768   6.088  0.00  0.00    +0.081 C 
ENDBRANCH  20  22
BRANCH  20  23
ATOM     23  C   LIG    1       26.385 -26.498   6.080  0.00  0.00    +0.081 C 
ATOM     24  C   LIG    1       26.691 -27.225   4.769  0.00  0.00    +0.020 C 
ENDBRANCH  20  23
ENDBRANCH  19  20
ENDBRANCH  18  19
ENDBRANCH  16  18
ENDBRANCH   1  16
BRANCH  11  25
ATOM     25  C   LIG    1       23.806 -18.647   3.700  0.00  0.00    +0.192 C 
BRANCH  25  26
ATOM     26  O   LIG    1       22.691 -17.824   4.053  0.00  0.00    -0.390 OA
ATOM     27  H   LIG    1       21.895 -18.235   3.674  0.00  0.00    +0.210 HD
ENDBRANCH  25  26
ENDBRANCH  11  25
TORSDOF 8
ENDMDL
MODEL 4
REMARK VINA RESULT:      -7.8      3.062      5.947
REMARK  Name = *****
REMARK                            x       y       z     vdW  Elec       q    Type
REMARK                         _______ _______ _______ _____ _____    ______ ____
ROOT
ATOM      1  C   LIG    1       26.890 -19.822   5.001  0.00  0.00    +0.039 A 
ATOM      2  C   LIG    1       25.887 -20.718   5.494  0.00  0.00    +0.057 A 
ATOM      3  C   LIG    1       24.524 -20.529   5.137  0.00  0.00    +0.031 A 
ATOM      4  S   LIG    1       23.225 -21.605   5.731  0.00  0.00    -0.088 S 
ATOM      5  C   LIG    1       24.095 -23.085   6.135  0.00  0.00    +0.024 A 
ATOM      6  C   LIG    1       25.443 -23.092   6.477  0.00  0.00    +0.036 A 
ATOM      7  C   LIG    1       26.041 -24.291   6.910  0.00  0.00    +0.013 A 
ATOM      8  C   LIG    1       25.308 -25.478   6.948  0.00  0.00    +0.001 A 
ATOM      9  C   LIG    1       23.972 -25.480   6.563  0.00  0.00    +0.001 A 
ATOM     10  C   LIG    1       23.366 -24.286   6.170  0.00  0.00    +0.016 A 
ATOM     11  C   LIG    1       24.153 -19.441   4.307  0.00  0.00    -0.008 A 
ATOM     12  C   LIG    1       25.154 -18.596   3.821  0.00  0.00    +0.009 A 
ATOM     13  C   LIG    1       26.274 -21.868   6.378  0.00  0.00    +0.197 A 
ATOM     14  O   LIG    1       27.348 -21.861   7.001  0.00  0.00    -0.286 OA
ATOM     15  C   LIG    1       26.475 -18.758   4.198  0.00  0.00    +0.024 A 
ENDROOT
BRANCH   1  16
ATOM     16  N   LIG    1       28.235 -19.933   5.342  0.00  0.00    -0.342 N 
ATOM     17  H   LIG    1       28.831 -20.325   4.611  0.00  0.00    +0.146 HD
BRANCH  16  18
ATOM     18  C   LIG    1       28.909 -19.168   6.394  0.00  0.00    +0.117 C 
BRANCH  18  19
ATOM     19  C   LIG    1       30.455 -19.272   6.274  0.00  0.00    +0.103 C 
BRANCH  19  20
ATOM     20  N   LIG    1       31.204 -19.720   7.483  0.00  0.00    -0.301 NA
BRANCH  20  22
ATOM     21  C   LIG    1       30.621 -18.019   9.293  0.00  0.00    +0.020 C 
ATOM     22  C   LIG    1       31.644 -18.559   8.295  0.00  0.00    +0.081 C 
ENDBRANCH  20  22
BRANCH  20  23
ATOM     23  C   LIG    1       30.409 -20.658   8.303  0.00  0.00    +0.081 C 
ATOM     24  C   LIG    1       31.232 -21.735   9.012  0.00  0.00    +0.020 C 
ENDBRANCH  20  23
ENDBRANCH  19  20
ENDBRANCH  18  19
ENDBRANCH  16  18
ENDBRANCH   1  16
BRANCH  11  25
ATOM     25  C   LIG    1       22.735 -19.153   3.854  0.00  0.00    +0.192 C 
BRANCH  25  26
ATOM     26  O   LIG    1       22.186 -18.021   4.534  0.00  0.00    -0.390 OA
ATOM     27  H   LIG    1       21.415 -17.721   4.024  0.00  0.00    +0.210 HD
ENDBRANCH  25  26
ENDBRANCH  11  25
TORSDOF 8
ENDMDL
MODEL 5
REMARK VINA RESULT:      -7.4      1.671      4.432
REMARK  Name = *****
REMARK                            x       y       z     vdW  Elec       q    Type
REMARK                         _______ _______ _______ _____ _____    ______ ____
ROOT
ATOM      1  C   LIG    1       25.939 -19.828   4.349  0.00  0.00    +0.039 A 
ATOM      2  C   LIG    1       26.650 -20.106   5.560  0.00  0.00    +0.057 A 
ATOM      3  C   LIG    1       26.182 -21.114   6.447  0.00  0.00    +0.031 A 
ATOM      4  S   LIG    1       27.018 -21.499   7.980  0.00  0.00    -0.088 S 
ATOM      5  C   LIG    1       28.658 -20.920   7.690  0.00  0.00    +0.024 A 
ATOM      6  C   LIG    1       28.945 -19.905   6.783  0.00  0.00    +0.036 A 
ATOM      7  C   LIG    1       30.259 -19.408   6.695  0.00  0.00    +0.013 A 
ATOM      8  C   LIG    1       31.282 -19.959   7.467  0.00  0.00    +0.001 A 
ATOM      9  C   LIG    1       31.004 -21.004   8.341  0.00  0.00    +0.001 A 
ATOM     10  C   LIG    1       29.696 -21.474   8.459  0.00  0.00    +0.016 A 
ATOM     11  C   LIG    1       24.998 -21.832   6.141  0.00  0.00    -0.008 A 
ATOM     12  C   LIG    1       24.337 -21.557   4.942  0.00  0.00    +0.009 A 
ATOM     13  C   LIG    1       27.901 -19.345   5.892  0.00  0.00    +0.197 A 
ATOM     14  O   LIG    1       28.136 -18.245   5.366  0.00  0.00    -0.286 OA
ATOM     15  C   LIG    1       24.773 -20.552   4.098  0.00  0.00    +0.024 A 
ENDROOT
BRANCH   1  16
ATOM     16  N   LIG    1       26.327 -18.831   3.458  0.00  0.00    -0.342 N 
ATOM     17  H   LIG    1       26.966 -19.139   2.723  0.00  0.00    +0.146 HD
BRANCH  16  18
ATOM     18  C   LIG    1       25.599 -17.585   3.210  0.00  0.00    +0.117 C 
BRANCH  18  19
ATOM     19  C   LIG    1       26.502 -16.340   3.434  0.00  0.00    +0.103 C 
BRANCH  19  20
ATOM     20  N   LIG    1       25.951 -15.015   3.028  0.00  0.00    -0.301 NA
BRANCH  20  22
ATOM     21  C   LIG    1       23.705 -14.631   4.176  0.00  0.00    +0.020 C 
ATOM     22  C   LIG    1       25.212 -14.383   4.148  0.00  0.00    +0.081 C 
ENDBRANCH  20  22
BRANCH  20  23
ATOM     23  C   LIG    1       27.009 -14.113   2.527  0.00  0.00    +0.081 C 
ATOM     24  C   LIG    1       28.000 -13.644   3.593  0.00  0.00    +0.020 C 
ENDBRANCH  20  23
ENDBRANCH  19  20
ENDBRANCH  18  19
ENDBRANCH  16  18
ENDBRANCH   1  16
BRANCH  11  25
ATOM     25  C   LIG    1       24.417 -22.934   7.006  0.00  0.00    +0.192 C 
BRANCH  25  26
ATOM     26  O   LIG    1       23.478 -23.732   6.279  0.00  0.00    -0.390 OA
ATOM     27  H   LIG    1       23.026 -23.145   5.648  0.00  0.00    +0.210 HD
ENDBRANCH  25  26
ENDBRANCH  11  25
TORSDOF 8
ENDMDL
MODEL 6
REMARK VINA RESULT:      -7.4      3.213      5.345
REMARK  Name = *****
REMARK                            x       y       z     vdW  Elec       q    Type
REMARK                         _______ _______ _______ _____ _____    ______ ____
ROOT
ATOM      1  C   LIG    1       27.784 -20.311   6.221  0.00  0.00    +0.039 A 
ATOM      2  C   LIG    1       26.476 -20.560   5.693  0.00  0.00    +0.057 A 
ATOM      3  C   LIG    1       25.733 -21.690   6.130  0.00  0.00    +0.031 A 
ATOM      4  S   LIG    1       24.102 -22.061   5.499  0.00  0.00    -0.088 S 
ATOM      5  C   LIG    1       23.541 -20.495   4.914  0.00  0.00    +0.024 A 
ATOM      6  C   LIG    1       24.414 -19.490   4.510  0.00  0.00    +0.036 A 
ATOM      7  C   LIG    1       23.895 -18.314   3.937  0.00  0.00    +0.013 A 
ATOM      8  C   LIG    1       22.517 -18.125   3.820  0.00  0.00    +0.001 A 
ATOM      9  C   LIG    1       21.644 -19.112   4.266  0.00  0.00    +0.001 A 
ATOM     10  C   LIG    1       22.155 -20.295   4.799  0.00  0.00    +0.016 A 
ATOM     11  C   LIG    1       26.295 -22.585   7.077  0.00  0.00    -0.008 A 
ATOM     12  C   LIG    1       27.562 -22.306   7.593  0.00  0.00    +0.009 A 
ATOM     13  C   LIG    1       25.880 -19.620   4.686  0.00  0.00    +0.197 A 
ATOM     14  O   LIG    1       26.600 -18.862   4.015  0.00  0.00    -0.286 OA
ATOM     15  C   LIG    1       28.300 -21.226   7.140  0.00  0.00    +0.024 A 
ENDROOT
BRANCH   1  16
ATOM     16  N   LIG    1       28.575 -19.243   5.807  0.00  0.00    -0.342 N 
ATOM     17  H   LIG    1       28.207 -18.724   5.007  0.00  0.00    +0.146 HD
BRANCH  16  18
ATOM     18  C   LIG    1       29.568 -18.553   6.633  0.00  0.00    +0.117 C 
BRANCH  18  19
ATOM     19  C   LIG    1       30.925 -19.310   6.646  0.00  0.00    +0.103 C 
BRANCH  19  20
ATOM     20  N   LIG    1       31.633 -19.418   7.954  0.00  0.00    -0.301 NA
BRANCH  20  22
ATOM     21  C   LIG    1       31.199 -17.829   9.902  0.00  0.00    +0.020 C 
ATOM     22  C   LIG    1       31.859 -18.077   8.547  0.00  0.00    +0.081 C 
ENDBRANCH  20  22
BRANCH  20  23
ATOM     23  C   LIG    1       30.906 -20.290   8.899  0.00  0.00    +0.081 C 
ATOM     24  C   LIG    1       31.461 -21.712   9.006  0.00  0.00    +0.020 C 
ENDBRANCH  20  23
ENDBRANCH  19  20
ENDBRANCH  18  19
ENDBRANCH  16  18
ENDBRANCH   1  16
BRANCH  11  25
ATOM     25  C   LIG    1       25.588 -23.810   7.622  0.00  0.00    +0.192 C 
BRANCH  25  26
ATOM     26  O   LIG    1       25.918 -24.983   6.872  0.00  0.00    -0.390 OA
ATOM     27  H   LIG    1       25.214 -25.635   7.028  0.00  0.00    +0.210 HD
ENDBRANCH  25  26
ENDBRANCH  11  25
TORSDOF 8
ENDMDL
MODEL 7
REMARK VINA RESULT:      -7.3      3.273      5.285
REMARK  Name = *****
REMARK                            x       y       z     vdW  Elec       q    Type
REMARK                         _______ _______ _______ _____ _____    ______ ____
ROOT
ATOM      1  C   LIG    1       27.691 -20.370   6.246  0.00  0.00    +0.039 A 
ATOM      2  C   LIG    1       26.392 -20.619   5.696  0.00  0.00    +0.057 A 
ATOM      3  C   LIG    1       25.658 -21.770   6.092  0.00  0.00    +0.031 A 
ATOM      4  S   LIG    1       24.038 -22.142   5.432  0.00  0.00    -0.088 S 
ATOM      5  C   LIG    1       23.464 -20.567   4.887  0.00  0.00    +0.024 A 
ATOM      6  C   LIG    1       24.329 -19.540   4.521  0.00  0.00    +0.036 A 
ATOM      7  C   LIG    1       23.802 -18.354   3.976  0.00  0.00    +0.013 A 
ATOM      8  C   LIG    1       22.423 -18.179   3.849  0.00  0.00    +0.001 A 
ATOM      9  C   LIG    1       21.558 -19.188   4.257  0.00  0.00    +0.001 A 
ATOM     10  C   LIG    1       22.077 -20.380   4.761  0.00  0.00    +0.016 A 
ATOM     11  C   LIG    1       26.220 -22.685   7.019  0.00  0.00    -0.008 A 
ATOM     12  C   LIG    1       27.478 -22.406   7.558  0.00  0.00    +0.009 A 
ATOM     13  C   LIG    1       25.795 -19.657   4.710  0.00  0.00    +0.197 A 
ATOM     14  O   LIG    1       26.513 -18.872   4.070  0.00  0.00    -0.286 OA
ATOM     15  C   LIG    1       28.207 -21.305   7.144  0.00  0.00    +0.024 A 
ENDROOT
BRANCH   1  16
ATOM     16  N   LIG    1       28.472 -19.281   5.872  0.00  0.00    -0.342 N 
ATOM     17  H   LIG    1       27.945 -18.465   5.553  0.00  0.00    +0.146 HD
BRANCH  16  18
ATOM     18  C   LIG    1       29.852 -19.040   6.301  0.00  0.00    +0.117 C 
BRANCH  18  19
ATOM     19  C   LIG    1       29.905 -18.335   7.685  0.00  0.00    +0.103 C 
BRANCH  19  20
ATOM     20  N   LIG    1       30.464 -19.116   8.827  0.00  0.00    -0.301 NA
BRANCH  20  22
ATOM     21  C   LIG    1       31.187 -21.549   9.081  0.00  0.00    +0.020 C 
ATOM     22  C   LIG    1       31.327 -20.221   8.341  0.00  0.00    +0.081 C 
ENDBRANCH  20  22
BRANCH  20  23
ATOM     23  C   LIG    1       31.205 -18.252   9.769  0.00  0.00    +0.081 C 
ATOM     24  C   LIG    1       30.319 -17.405  10.683  0.00  0.00    +0.020 C 
ENDBRANCH  20  23
ENDBRANCH  19  20
ENDBRANCH  18  19
ENDBRANCH  16  18
ENDBRANCH   1  16
BRANCH  11  25
ATOM     25  C   LIG    1       25.522 -23.934   7.521  0.00  0.00    +0.192 C 
BRANCH  25  26
ATOM     26  O   LIG    1       25.910 -25.088   6.770  0.00  0.00    -0.390 OA
ATOM     27  H   LIG    1       25.980 -24.819   5.838  0.00  0.00    +0.210 HD
ENDBRANCH  25  26
ENDBRANCH  11  25
TORSDOF 8
ENDMDL
MODEL 8
REMARK VINA RESULT:      -6.9      3.524      6.170
REMARK  Name = *****
REMARK                            x       y       z     vdW  Elec       q    Type
REMARK                         _______ _______ _______ _____ _____    ______ ____
ROOT
ATOM      1  C   LIG    1       26.453 -20.630   5.489  0.00  0.00    +0.039 A 
ATOM      2  C   LIG    1       25.626 -21.705   5.952  0.00  0.00    +0.057 A 
ATOM      3  C   LIG    1       24.215 -21.636   5.800  0.00  0.00    +0.031 A 
ATOM      4  S   LIG    1       23.129 -22.938   6.369  0.00  0.00    -0.088 S 
ATOM      5  C   LIG    1       24.195 -24.343   6.421  0.00  0.00    +0.024 A 
ATOM      6  C   LIG    1       25.571 -24.233   6.589  0.00  0.00    +0.036 A 
ATOM      7  C   LIG    1       26.343 -25.399   6.747  0.00  0.00    +0.013 A 
ATOM      8  C   LIG    1       25.750 -26.661   6.685  0.00  0.00    +0.001 A 
ATOM      9  C   LIG    1       24.380 -26.771   6.472  0.00  0.00    +0.001 A 
ATOM     10  C   LIG    1       23.606 -25.617   6.354  0.00  0.00    +0.016 A 
ATOM     11  C   LIG    1       23.621 -20.493   5.208  0.00  0.00    -0.008 A 
ATOM     12  C   LIG    1       24.451 -19.470   4.743  0.00  0.00    +0.009 A 
ATOM     13  C   LIG    1       26.250 -22.915   6.585  0.00  0.00    +0.197 A 
ATOM     14  O   LIG    1       27.394 -22.866   7.065  0.00  0.00    -0.286 OA
ATOM     15  C   LIG    1       25.821 -19.521   4.924  0.00  0.00    +0.024 A 
ENDROOT
BRANCH   1  16
ATOM     16  N   LIG    1       27.836 -20.623   5.640  0.00  0.00    -0.342 N 
ATOM     17  H   LIG    1       28.348 -21.134   4.918  0.00  0.00    +0.146 HD
BRANCH  16  18
ATOM     18  C   LIG    1       28.601 -19.639   6.408  0.00  0.00    +0.117 C 
BRANCH  18  19
ATOM     19  C   LIG    1       28.665 -20.014   7.915  0.00  0.00    +0.103 C 
BRANCH  19  20
ATOM     20  N   LIG    1       29.848 -19.536   8.688  0.00  0.00    -0.301 NA
BRANCH  20  22
ATOM     21  C   LIG    1       30.962 -21.798   9.077  0.00  0.00    +0.020 C 
ATOM     22  C   LIG    1       31.024 -20.407   8.448  0.00  0.00    +0.081 C 
ENDBRANCH  20  22
BRANCH  20  23
ATOM     23  C   LIG    1       30.170 -18.128   8.378  0.00  0.00    +0.081 C 
ATOM     24  C   LIG    1       30.313 -17.226   9.605  0.00  0.00    +0.020 C 
ENDBRANCH  20  23
ENDBRANCH  19  20
ENDBRANCH  18  19
ENDBRANCH  16  18
ENDBRANCH   1  16
BRANCH  11  25
ATOM     25  C   LIG    1       22.131 -20.319   4.985  0.00  0.00    +0.192 C 
BRANCH  25  26
ATOM     26  O   LIG    1       21.553 -21.477   4.376  0.00  0.00    -0.390 OA
ATOM     27  H   LIG    1       21.889 -22.255   4.854  0.00  0.00    +0.210 HD
ENDBRANCH  25  26
ENDBRANCH  11  25
TORSDOF 8
ENDMDL
MODEL 9
REMARK VINA RESULT:      -6.4      3.226      5.643
REMARK  Name = *****
REMARK                            x       y       z     vdW  Elec       q    Type
REMARK                         _______ _______ _______ _____ _____    ______ ____
ROOT
ATOM      1  C   LIG    1       26.575 -21.666   6.504  0.00  0.00    +0.039 A 
ATOM      2  C   LIG    1       25.384 -21.387   5.760  0.00  0.00    +0.057 A 
ATOM      3  C   LIG    1       24.278 -22.278   5.823  0.00  0.00    +0.031 A 
ATOM      4  S   LIG    1       22.768 -21.992   4.909  0.00  0.00    -0.088 S 
ATOM      5  C   LIG    1       22.805 -20.252   4.626  0.00  0.00    +0.024 A 
ATOM      6  C   LIG    1       23.990 -19.524   4.583  0.00  0.00    +0.036 A 
ATOM      7  C   LIG    1       23.952 -18.162   4.228  0.00  0.00    +0.013 A 
ATOM      8  C   LIG    1       22.737 -17.526   3.971  0.00  0.00    +0.001 A 
ATOM      9  C   LIG    1       21.549 -18.243   4.058  0.00  0.00    +0.001 A 
ATOM     10  C   LIG    1       21.585 -19.602   4.371  0.00  0.00    +0.016 A 
ATOM     11  C   LIG    1       24.361 -23.456   6.609  0.00  0.00    -0.008 A 
ATOM     12  C   LIG    1       25.526 -23.692   7.343  0.00  0.00    +0.009 A 
ATOM     13  C   LIG    1       25.293 -20.145   4.923  0.00  0.00    +0.197 A 
ATOM     14  O   LIG    1       26.317 -19.552   4.547  0.00  0.00    -0.286 OA
ATOM     15  C   LIG    1       26.615 -22.844   7.252  0.00  0.00    +0.024 A 
ENDROOT
BRANCH   1  16
ATOM     16  N   LIG    1       27.703 -20.852   6.456  0.00  0.00    -0.342 N 
ATOM     17  H   LIG    1       27.506 -19.852   6.382  0.00  0.00    +0.146 HD
BRANCH  16  18
ATOM     18  C   LIG    1       29.036 -21.220   6.937  0.00  0.00    +0.117 C 
BRANCH  18  19
ATOM     19  C   LIG    1       29.538 -20.241   8.035  0.00  0.00    +0.103 C 
BRANCH  19  20
ATOM     20  N   LIG    1       29.622 -18.796   7.673  0.00  0.00    -0.301 NA
BRANCH  20  22
ATOM     21  C   LIG    1       31.846 -18.052   8.678  0.00  0.00    +0.020 C 
ATOM     22  C   LIG    1       30.319 -18.024   8.731  0.00  0.00    +0.081 C 
ENDBRANCH  20  22
BRANCH  20  23
ATOM     23  C   LIG    1       30.277 -18.596   6.364  0.00  0.00    +0.081 C 
ATOM     24  C   LIG    1       29.348 -18.089   5.260  0.00  0.00    +0.020 C 
ENDBRANCH  20  23
ENDBRANCH  19  20
ENDBRANCH  18  19
ENDBRANCH  16  18
ENDBRANCH   1  16
BRANCH  11  25
ATOM     25  C   LIG    1       23.241 -24.467   6.759  0.00  0.00    +0.192 C 
BRANCH  25  26
ATOM     26  O   LIG    1       23.603 -25.737   6.210  0.00  0.00    -0.390 OA
ATOM     27  H   LIG    1       23.945 -25.579   5.313  0.00  0.00    +0.210 HD
ENDBRANCH  25  26
ENDBRANCH  11  25
TORSDOF 8
ENDMDL
