MODEL 1
REMARK VINA RESULT:       6.9      0.000      0.000
REMARK  Name = *****
REMARK                            x       y       z     vdW  Elec       q    Type
REMARK                         _______ _______ _______ _____ _____    ______ ____
ROOT
ATOM      1  C   LIG    1       25.545 -13.670   3.348  0.00  0.00    +0.129 C 
ATOM      2  C   LIG    1       24.957 -14.870   4.163  0.00  0.00    +0.007 C 
ATOM      3  C   LIG    1       24.228 -14.362   5.440  0.00  0.00    +0.014 C 
ATOM      4  C   LIG    1       26.231 -15.652   4.601  0.00  0.00    +0.002 C 
ATOM      5  C   LIG    1       26.780 -16.674   3.567  0.00  0.00    -0.003 C 
ATOM      6  C   LIG    1       25.709 -17.600   2.942  0.00  0.00    +0.002 C 
ATOM      7  C   LIG    1       24.537 -16.753   2.411  0.00  0.00    +0.005 C 
ATOM      8  C   LIG    1       25.319 -18.903   3.752  0.00  0.00    -0.007 C 
ATOM      9  C   LIG    1       24.690 -19.899   2.726  0.00  0.00    +0.016 C 
ATOM     10  C   LIG    1       26.541 -19.540   4.444  0.00  0.00    -0.057 C 
ATOM     11  C   LIG    1       26.417 -20.784   4.957  0.00  0.00    +0.046 C 
ATOM     12  C   LIG    1       25.391 -20.725   6.064  0.00  0.00    +0.156 C 
ATOM     13  O   LIG    1       25.538 -21.428   7.061  0.00  0.00    -0.293 OA
ATOM     14  C   LIG    1       24.122 -19.918   5.815  0.00  0.00    +0.080 C 
ATOM     15  C   LIG    1       27.526 -18.578   5.104  0.00  0.00    +0.013 C 
ATOM     16  C   LIG    1       28.780 -19.266   5.667  0.00  0.00    +0.012 C 
ATOM     17  C   LIG    1       24.305 -18.689   4.903  0.00  0.00    +0.019 C 
ATOM     18  C   LIG    1       27.957 -17.511   4.097  0.00  0.00    +0.012 C 
ATOM     19  C   LIG    1       27.255 -14.535   4.897  0.00  0.00    +0.007 C 
ATOM     20  C   LIG    1       23.954 -15.756   3.403  0.00  0.00    +0.010 C 
ATOM     21  C   LIG    1       26.805 -13.280   4.143  0.00  0.00    +0.043 C 
ENDROOT
BRANCH   1  23
ATOM     22  C   LIG    1       24.329 -11.930   1.812  0.00  0.00    +0.089 C 
ATOM     23  C   LIG    1       24.579 -12.466   3.201  0.00  0.00    +0.162 C 
ATOM     24  O   LIG    1       24.041 -11.929   4.172  0.00  0.00    -0.295 OA
ENDBRANCH   1  23
BRANCH   1  25
ATOM     25  O   LIG    1       25.968 -14.093   2.050  0.00  0.00    -0.381 OA
ATOM     26  H   LIG    1       26.922 -13.920   1.967  0.00  0.00    +0.211 HD
ENDBRANCH   1  25
TORSDOF 2
ENDMDL
