MODEL 1
REMARK VINA RESULT:      -0.5      0.000      0.000
REMARK  Name = *****
REMARK                            x       y       z     vdW  Elec       q    Type
REMARK                         _______ _______ _______ _____ _____    ______ ____
ROOT
ATOM      1  C   LIG    1       27.669 -14.908   4.087  0.00  0.00    +0.242 C 
ATOM      2  C   LIG    1       26.376 -14.629   3.216  0.00  0.00    +0.195 C 
ATOM      3  S   LIG    1       25.011 -15.838   3.261  0.00  0.00    -0.125 S 
ATOM      4  C   LIG    1       23.798 -14.685   4.072  0.00  0.00    +0.042 C 
ATOM      5  C   LIG    1       24.574 -13.425   4.533  0.00  0.00    +0.201 C 
ATOM      6  C   LIG    1       23.241 -15.446   5.287  0.00  0.00    +0.025 C 
ATOM      7  C   LIG    1       22.658 -14.436   3.079  0.00  0.00    +0.025 C 
ATOM      8  N   LIG    1       25.990 -13.589   4.199  0.00  0.00    -0.266 N 
ATOM      9  C   LIG    1       26.880 -14.021   5.136  0.00  0.00    +0.271 C 
ATOM     10  O   LIG    1       26.912 -13.813   6.332  0.00  0.00    -0.270 OA
ENDROOT
BRANCH   1  11
ATOM     11  N   LIG    1       27.855 -16.303   4.585  0.00  0.00    -0.277 N 
ATOM     12  H   LIG    1       28.494 -16.450   5.360  0.00  0.00    +0.152 HD
ATOM     13  C   LIG    1       27.390 -17.397   3.895  0.00  0.00    +0.234 C 
ATOM     14  O   LIG    1       26.702 -17.300   2.876  0.00  0.00    -0.275 OA
BRANCH  13  15
ATOM     15  C   LIG    1       27.790 -18.751   4.468  0.00  0.00    +0.213 C 
BRANCH  15  16
ATOM     16  C   LIG    1       26.583 -19.532   4.973  0.00  0.00    -0.018 A 
ATOM     17  C   LIG    1       25.401 -19.664   4.259  0.00  0.00    +0.050 A 
ATOM     18  S   LIG    1       24.184 -20.512   5.112  0.00  0.00    -0.105 S 
ATOM     19  C   LIG    1       25.221 -20.763   6.442  0.00  0.00    +0.045 A 
ATOM     20  C   LIG    1       26.466 -20.206   6.242  0.00  0.00    +0.012 A 
ENDBRANCH  15  16
BRANCH  15  21
ATOM     21  C   LIG    1       28.901 -18.673   5.504  0.00  0.00    +0.321 C 
ATOM     22  O   LIG    1       29.265 -19.654   6.146  0.00  0.00    -0.250 OA
BRANCH  21  23
ATOM     23  O   LIG    1       29.473 -17.464   5.703  0.00  0.00    -0.480 OA
ATOM     24  H   LIG    1       30.389 -17.380   5.345  0.00  0.00    +0.295 HD
ENDBRANCH  21  23
ENDBRANCH  15  21
ENDBRANCH  13  15
ENDBRANCH   1  11
BRANCH   1  26
ATOM     25  C   LIG    1       29.088 -12.901   3.717  0.00  0.00    +0.197 C 
ATOM     26  O   LIG    1       28.934 -14.314   3.666  0.00  0.00    -0.349 OA
ENDBRANCH   1  26
BRANCH   5  27
ATOM     27  C   LIG    1       24.106 -12.061   3.994  0.00  0.00    +0.327 C 
ATOM     28  O   LIG    1       24.394 -11.594   2.903  0.00  0.00    -0.249 OA
BRANCH  27  29
ATOM     29  O   LIG    1       23.204 -11.447   4.802  0.00  0.00    -0.479 OA
ATOM     30  H   LIG    1       22.316 -11.439   4.393  0.00  0.00    +0.295 HD
ENDBRANCH  27  29
ENDBRANCH   5  27
TORSDOF 8
ENDMDL
