MODEL 1
REMARK VINA RESULT:      -2.3      0.000      0.000
REMARK  Name = *****
REMARK                            x       y       z     vdW  Elec       q    Type
REMARK                         _______ _______ _______ _____ _____    ______ ____
ROOT
ATOM      1  N   LIG    1       26.370 -32.944   7.125  0.00  0.00    -0.094 NA
ATOM      2  C   LIG    1       25.294 -32.286   6.818  0.00  0.00    +0.068 C 
ATOM      3  C   LIG    1       25.331 -31.256   5.699  0.00  0.00    +0.067 C 
ATOM      4  C   LIG    1       26.690 -31.174   5.006  0.00  0.00    +0.017 C 
ATOM      5  C   LIG    1       24.928 -29.923   6.363  0.00  0.00    +0.155 C 
ATOM      6  O   LIG    1       23.684 -30.048   7.073  0.00  0.00    -0.340 OA
ATOM      7  C   LIG    1       23.695 -31.023   8.136  0.00  0.00    +0.180 C 
ATOM      8  O   LIG    1       24.715 -30.708   9.073  0.00  0.00    -0.344 OA
ATOM      9  C   LIG    1       24.502 -31.012  10.454  0.00  0.00    +0.129 C 
ATOM     10  C   LIG    1       25.872 -31.457  11.015  0.00  0.00    +0.058 C 
ATOM     11  C   LIG    1       25.944 -31.325  12.509  0.00  0.00    -0.025 C 
ATOM     12  C   LIG    1       25.959 -32.285  13.456  0.00  0.00    -0.076 C 
ATOM     13  C   LIG    1       25.902 -31.992  14.959  0.00  0.00    +0.037 C 
ATOM     14  C   LIG    1       25.275 -30.673  15.500  0.00  0.00    +0.012 C 
ATOM     15  C   LIG    1       23.927 -30.397  14.875  0.00  0.00    -0.023 C 
ATOM     16  C   LIG    1       22.860 -29.882  15.500  0.00  0.00    -0.004 C 
ATOM     17  C   LIG    1       21.597 -29.736  14.815  0.00  0.00    +0.004 C 
ATOM     18  C   LIG    1       20.815 -30.770  14.454  0.00  0.00    -0.009 C 
ATOM     19  C   LIG    1       19.432 -30.675  13.861  0.00  0.00    +0.134 C 
ATOM     20  C   LIG    1       18.779 -31.737  14.744  0.00  0.00    +0.188 C 
ATOM     21  C   LIG    1       17.378 -32.179  14.300  0.00  0.00    +0.172 C 
ATOM     22  C   LIG    1       17.130 -32.151  12.813  0.00  0.00    -0.045 C 
ATOM     23  C   LIG    1       17.996 -31.596  11.948  0.00  0.00    -0.008 C 
ATOM     24  C   LIG    1       15.828 -32.748  12.348  0.00  0.00    +0.041 C 
ATOM     25  O   LIG    1       19.720 -32.832  14.767  0.00  0.00    -0.366 OA
ATOM     26  C   LIG    1       19.319 -30.959  12.337  0.00  0.00    +0.159 C 
ATOM     27  C   LIG    1       20.419 -31.818  11.709  0.00  0.00    +0.318 C 
ATOM     28  O   LIG    1       21.201 -31.058  10.887  0.00  0.00    -0.461 OA
ATOM     29  C   LIG    1       22.117 -31.763  10.012  0.00  0.00    +0.184 C 
ATOM     30  O   LIG    1       20.539 -33.035  11.832  0.00  0.00    -0.250 OA
ATOM     31  C   LIG    1       21.024 -32.211  14.851  0.00  0.00    +0.194 C 
ATOM     32  C   LIG    1       26.223 -29.473  15.417  0.00  0.00    +0.012 C 
ATOM     33  C   LIG    1       25.971 -33.761  13.147  0.00  0.00    +0.038 C 
ATOM     34  C   LIG    1       23.426 -32.068  10.731  0.00  0.00    +0.076 C 
ATOM     35  C   LIG    1       22.313 -30.888   8.779  0.00  0.00    +0.110 C 
ATOM     36  C   LIG    1       23.955 -32.400   7.520  0.00  0.00    +0.119 C 
ENDROOT
BRANCH   5  37
ATOM     37  C   LIG    1       24.733 -28.733   5.420  0.00  0.00    -0.047 C 
ATOM     38  C   LIG    1       24.706 -27.450   5.844  0.00  0.00    -0.022 C 
ATOM     39  C   LIG    1       24.568 -29.142   3.978  0.00  0.00    +0.041 C 
BRANCH  38  40
ATOM     40  C   LIG    1       24.520 -26.203   5.011  0.00  0.00    +0.006 C 
ATOM     41  C   LIG    1       25.771 -25.933   4.169  0.00  0.00    +0.011 C 
ATOM     42  C   LIG    1       24.225 -25.009   5.917  0.00  0.00    +0.011 C 
ENDBRANCH  38  40
ENDBRANCH   5  37
BRANCH   1  44
ATOM     43  C   LIG    1       27.395 -33.809   8.972  0.00  0.00    +0.313 C 
ATOM     44  O   LIG    1       26.182 -33.785   8.226  0.00  0.00    -0.397 OA
ENDBRANCH   1  44
BRANCH  21  45
ATOM     45  O   LIG    1       17.116 -33.489  14.799  0.00  0.00    -0.385 OA
ATOM     46  H   LIG    1       16.508 -33.892  14.146  0.00  0.00    +0.210 HD
ENDBRANCH  21  45
BRANCH  19  47
ATOM     47  O   LIG    1       18.871 -29.385  14.147  0.00  0.00    -0.380 OA
ATOM     48  H   LIG    1       19.569 -28.834  14.539  0.00  0.00    +0.211 HD
ENDBRANCH  19  47
TORSDOF 5
ENDMDL
