MODEL 1
REMARK VINA RESULT:      -7.6      0.000      0.000
REMARK  Name = *****
REMARK                            x       y       z     vdW  Elec       q    Type
REMARK                         _______ _______ _______ _____ _____    ______ ____
ROOT
ATOM      1  N   LIG    1       26.042 -20.693   5.724  0.00  0.00    -0.287 NA
ATOM      2  C   LIG    1       25.443 -20.656   7.069  0.00  0.00    +0.108 C 
ATOM      3  C   LIG    1       26.254 -21.506   8.093  0.00  0.00    +0.039 C 
ATOM      4  C   LIG    1       26.251 -23.000   7.717  0.00  0.00    +0.030 C 
ATOM      5  C   LIG    1       27.684 -20.920   8.117  0.00  0.00    +0.108 C 
ATOM      6  N   LIG    1       28.326 -20.904   6.798  0.00  0.00    -0.287 NA
ATOM      7  C   LIG    1       27.465 -20.279   5.767  0.00  0.00    +0.171 C 
ENDROOT
BRANCH   3   8
ATOM      8  N   LIG    1       25.641 -21.386   9.440  0.00  0.00    -0.323 NA
ATOM      9  H   LIG    1       25.137 -22.231   9.654  0.00  0.00    +0.119 HD
ATOM     10  H   LIG    1       26.405 -21.337  10.142  0.00  0.00    +0.119 HD
ENDBRANCH   3   8
BRANCH   1  11
ATOM     11  C   LIG    1       25.352 -19.769   4.768  0.00  0.00    +0.089 C 
BRANCH  11  12
ATOM     12  C   LIG    1       23.853 -19.961   4.408  0.00  0.00    +0.003 C 
BRANCH  12  13
ATOM     13  C   LIG    1       23.208 -18.727   3.726  0.00  0.00    +0.001 C 
ATOM     14  C   LIG    1       22.124 -17.991   4.506  0.00  0.00    +0.004 C 
ENDBRANCH  12  13
BRANCH  12  15
ATOM     15  C   LIG    1       22.976 -20.405   5.633  0.00  0.00    +0.005 C 
BRANCH  15  16
ATOM     16  C   LIG    1       22.315 -21.794   5.563  0.00  0.00    +0.000 C 
BRANCH  16  18
ATOM     17  C   LIG    1       23.135 -24.026   6.606  0.00  0.00    +0.004 C 
ATOM     18  C   LIG    1       22.503 -22.658   6.830  0.00  0.00    -0.003 C 
ENDBRANCH  16  18
ENDBRANCH  15  16
ENDBRANCH  12  15
ENDBRANCH  11  12
ENDBRANCH   1  11
BRANCH   6  19
ATOM     19  C   LIG    1       29.601 -20.128   6.840  0.00  0.00    +0.089 C 
BRANCH  19  20
ATOM     20  C   LIG    1       30.244 -19.660   8.191  0.00  0.00    +0.003 C 
BRANCH  20  21
ATOM     21  C   LIG    1       31.440 -20.506   8.666  0.00  0.00    +0.001 C 
ATOM     22  C   LIG    1       31.100 -21.911   9.130  0.00  0.00    +0.004 C 
ENDBRANCH  20  21
BRANCH  20  23
ATOM     23  C   LIG    1       30.684 -18.171   7.994  0.00  0.00    +0.005 C 
BRANCH  23  24
ATOM     24  C   LIG    1       31.823 -17.651   8.887  0.00  0.00    +0.000 C 
BRANCH  24  25
ATOM     25  C   LIG    1       31.338 -16.676   9.974  0.00  0.00    -0.003 C 
ATOM     26  C   LIG    1       30.445 -17.316  11.026  0.00  0.00    +0.004 C 
ENDBRANCH  24  25
ENDBRANCH  23  24
ENDBRANCH  20  23
ENDBRANCH  19  20
ENDBRANCH   6  19
TORSDOF 13
ENDMDL
MODEL 2
REMARK VINA RESULT:      -7.4      1.770      7.295
REMARK  Name = *****
REMARK                            x       y       z     vdW  Elec       q    Type
REMARK                         _______ _______ _______ _____ _____    ______ ____
ROOT
ATOM      1  N   LIG    1       28.159 -20.347   6.999  0.00  0.00    -0.287 NA
ATOM      2  C   LIG    1       27.748 -21.713   7.366  0.00  0.00    +0.108 C 
ATOM      3  C   LIG    1       26.198 -21.865   7.407  0.00  0.00    +0.039 C 
ATOM      4  C   LIG    1       25.570 -20.973   8.496  0.00  0.00    +0.030 C 
ATOM      5  C   LIG    1       25.682 -21.501   5.996  0.00  0.00    +0.108 C 
ATOM      6  N   LIG    1       26.084 -20.159   5.560  0.00  0.00    -0.287 NA
ATOM      7  C   LIG    1       27.540 -19.935   5.717  0.00  0.00    +0.171 C 
ENDROOT
BRANCH   3   8
ATOM      8  N   LIG    1       25.840 -23.270   7.724  0.00  0.00    -0.323 NA
ATOM      9  H   LIG    1       25.016 -23.531   7.205  0.00  0.00    +0.119 HD
ATOM     10  H   LIG    1       26.595 -23.887   7.366  0.00  0.00    +0.119 HD
ENDBRANCH   3   8
BRANCH   1  11
ATOM     11  C   LIG    1       29.642 -20.229   6.820  0.00  0.00    +0.089 C 
BRANCH  11  12
ATOM     12  C   LIG    1       30.507 -19.411   7.818  0.00  0.00    +0.003 C 
BRANCH  12  13
ATOM     13  C   LIG    1       31.462 -20.277   8.678  0.00  0.00    +0.001 C 
ATOM     14  C   LIG    1       30.986 -21.679   9.045  0.00  0.00    +0.004 C 
ENDBRANCH  12  13
BRANCH  12  15
ATOM     15  C   LIG    1       29.656 -18.478   8.751  0.00  0.00    +0.005 C 
BRANCH  15  16
ATOM     16  C   LIG    1       30.392 -17.324   9.459  0.00  0.00    +0.000 C 
BRANCH  16  18
ATOM     17  C   LIG    1       31.526 -16.681  11.705  0.00  0.00    +0.004 C 
ATOM     18  C   LIG    1       30.393 -17.417  11.002  0.00  0.00    -0.003 C 
ENDBRANCH  16  18
ENDBRANCH  15  16
ENDBRANCH  12  15
ENDBRANCH  11  12
ENDBRANCH   1  11
BRANCH   6  19
ATOM     19  C   LIG    1       25.756 -19.951   4.118  0.00  0.00    +0.089 C 
BRANCH  19  20
ATOM     20  C   LIG    1       24.381 -19.355   3.657  0.00  0.00    +0.003 C 
BRANCH  20  21
ATOM     21  C   LIG    1       23.202 -19.637   4.606  0.00  0.00    +0.001 C 
ATOM     22  C   LIG    1       22.116 -18.577   4.628  0.00  0.00    +0.004 C 
ENDBRANCH  20  21
BRANCH  20  23
ATOM     23  C   LIG    1       24.585 -17.812   3.497  0.00  0.00    +0.005 C 
BRANCH  23  24
ATOM     24  C   LIG    1       26.032 -17.306   3.363  0.00  0.00    +0.000 C 
BRANCH  24  25
ATOM     25  C   LIG    1       26.131 -15.771   3.324  0.00  0.00    -0.003 C 
ATOM     26  C   LIG    1       27.449 -15.223   3.849  0.00  0.00    +0.004 C 
ENDBRANCH  24  25
ENDBRANCH  23  24
ENDBRANCH  20  23
ENDBRANCH  19  20
ENDBRANCH   6  19
TORSDOF 13
ENDMDL
MODEL 3
REMARK VINA RESULT:      -7.3      2.853      8.103
REMARK  Name = *****
REMARK                            x       y       z     vdW  Elec       q    Type
REMARK                         _______ _______ _______ _____ _____    ______ ____
ROOT
ATOM      1  N   LIG    1       26.290 -21.739   6.654  0.00  0.00    -0.287 NA
ATOM      2  C   LIG    1       25.182 -20.780   6.800  0.00  0.00    +0.108 C 
ATOM      3  C   LIG    1       24.024 -21.069   5.797  0.00  0.00    +0.039 C 
ATOM      4  C   LIG    1       24.484 -20.898   4.336  0.00  0.00    +0.030 C 
ATOM      5  C   LIG    1       23.542 -22.509   6.084  0.00  0.00    +0.108 C 
ATOM      6  N   LIG    1       24.610 -23.510   5.982  0.00  0.00    -0.287 NA
ATOM      7  C   LIG    1       25.803 -23.133   6.774  0.00  0.00    +0.171 C 
ENDROOT
BRANCH   3   8
ATOM      8  N   LIG    1       22.912 -20.113   6.027  0.00  0.00    -0.323 NA
ATOM      9  H   LIG    1       22.580 -20.208   6.974  0.00  0.00    +0.119 HD
ATOM     10  H   LIG    1       23.292 -19.149   5.966  0.00  0.00    +0.119 HD
ENDBRANCH   3   8
BRANCH   1  11
ATOM     11  C   LIG    1       27.342 -21.556   7.705  0.00  0.00    +0.089 C 
BRANCH  11  12
ATOM     12  C   LIG    1       28.526 -20.573   7.493  0.00  0.00    +0.003 C 
BRANCH  12  13
ATOM     13  C   LIG    1       28.827 -20.264   6.004  0.00  0.00    +0.001 C 
ATOM     14  C   LIG    1       28.848 -18.796   5.590  0.00  0.00    +0.004 C 
ENDBRANCH  12  13
BRANCH  12  15
ATOM     15  C   LIG    1       29.844 -21.029   8.214  0.00  0.00    +0.005 C 
BRANCH  15  16
ATOM     16  C   LIG    1       31.073 -20.110   8.089  0.00  0.00    +0.000 C 
BRANCH  16  18
ATOM     17  C   LIG    1       30.314 -17.783   8.955  0.00  0.00    +0.004 C 
ATOM     18  C   LIG    1       31.173 -19.021   9.180  0.00  0.00    -0.003 C 
ENDBRANCH  16  18
ENDBRANCH  15  16
ENDBRANCH  12  15
ENDBRANCH  11  12
ENDBRANCH   1  11
BRANCH   6  19
ATOM     19  C   LIG    1       24.142 -24.835   6.486  0.00  0.00    +0.089 C 
BRANCH  19  20
ATOM     20  C   LIG    1       24.292 -26.146   5.638  0.00  0.00    +0.003 C 
BRANCH  20  21
ATOM     21  C   LIG    1       25.432 -26.120   4.603  0.00  0.00    +0.001 C 
ATOM     22  C   LIG    1       26.624 -27.002   4.926  0.00  0.00    +0.004 C 
ENDBRANCH  20  21
BRANCH  20  23
ATOM     23  C   LIG    1       24.512 -27.319   6.651  0.00  0.00    +0.005 C 
BRANCH  23  24
ATOM     24  C   LIG    1       24.067 -28.723   6.206  0.00  0.00    +0.000 C 
BRANCH  24  25
ATOM     25  C   LIG    1       24.482 -29.826   7.193  0.00  0.00    -0.003 C 
ATOM     26  C   LIG    1       25.410 -29.349   8.300  0.00  0.00    +0.004 C 
ENDBRANCH  24  25
ENDBRANCH  23  24
ENDBRANCH  20  23
ENDBRANCH  19  20
ENDBRANCH   6  19
TORSDOF 13
ENDMDL
MODEL 4
REMARK VINA RESULT:      -7.2      2.025      6.905
REMARK  Name = *****
REMARK                            x       y       z     vdW  Elec       q    Type
REMARK                         _______ _______ _______ _____ _____    ______ ____
ROOT
ATOM      1  N   LIG    1       26.607 -21.505   7.230  0.00  0.00    -0.287 NA
ATOM      2  C   LIG    1       26.054 -22.837   6.931  0.00  0.00    +0.108 C 
ATOM      3  C   LIG    1       24.576 -22.760   6.442  0.00  0.00    +0.039 C 
ATOM      4  C   LIG    1       23.647 -22.199   7.536  0.00  0.00    +0.030 C 
ATOM      5  C   LIG    1       24.577 -21.872   5.177  0.00  0.00    +0.108 C 
ATOM      6  N   LIG    1       25.143 -20.538   5.404  0.00  0.00    -0.287 NA
ATOM      7  C   LIG    1       26.467 -20.601   6.064  0.00  0.00    +0.171 C 
ENDROOT
BRANCH   3   8
ATOM      8  N   LIG    1       24.090 -24.119   6.100  0.00  0.00    -0.323 NA
ATOM      9  H   LIG    1       23.524 -24.472   6.855  0.00  0.00    +0.119 HD
ATOM     10  H   LIG    1       23.445 -24.041   5.290  0.00  0.00    +0.119 HD
ENDBRANCH   3   8
BRANCH   1  11
ATOM     11  C   LIG    1       28.066 -21.557   7.564  0.00  0.00    +0.089 C 
BRANCH  11  12
ATOM     12  C   LIG    1       28.962 -20.294   7.446  0.00  0.00    +0.003 C 
BRANCH  12  13
ATOM     13  C   LIG    1       29.320 -19.912   5.988  0.00  0.00    +0.001 C 
ATOM     14  C   LIG    1       29.308 -18.428   5.636  0.00  0.00    +0.004 C 
ENDBRANCH  12  13
BRANCH  12  15
ATOM     15  C   LIG    1       30.274 -20.386   8.305  0.00  0.00    +0.005 C 
BRANCH  15  16
ATOM     16  C   LIG    1       30.957 -19.061   8.696  0.00  0.00    +0.000 C 
BRANCH  16  18
ATOM     17  C   LIG    1       30.420 -17.352  10.575  0.00  0.00    +0.004 C 
ATOM     18  C   LIG    1       29.998 -17.987   9.257  0.00  0.00    -0.003 C 
ENDBRANCH  16  18
ENDBRANCH  15  16
ENDBRANCH  12  15
ENDBRANCH  11  12
ENDBRANCH   1  11
BRANCH   6  19
ATOM     19  C   LIG    1       25.326 -19.814   4.111  0.00  0.00    +0.089 C 
BRANCH  19  20
ATOM     20  C   LIG    1       24.195 -18.921   3.491  0.00  0.00    +0.003 C 
BRANCH  20  21
ATOM     21  C   LIG    1       22.835 -19.011   4.208  0.00  0.00    +0.001 C 
ATOM     22  C   LIG    1       22.196 -17.680   4.560  0.00  0.00    +0.004 C 
ENDBRANCH  20  21
BRANCH  20  23
ATOM     23  C   LIG    1       24.717 -17.446   3.513  0.00  0.00    +0.005 C 
BRANCH  23  24
ATOM     24  C   LIG    1       26.234 -17.236   3.361  0.00  0.00    +0.000 C 
BRANCH  24  25
ATOM     25  C   LIG    1       26.650 -15.759   3.462  0.00  0.00    -0.003 C 
ATOM     26  C   LIG    1       25.489 -14.804   3.697  0.00  0.00    +0.004 C 
ENDBRANCH  24  25
ENDBRANCH  23  24
ENDBRANCH  20  23
ENDBRANCH  19  20
ENDBRANCH   6  19
TORSDOF 13
ENDMDL
MODEL 5
REMARK VINA RESULT:      -7.1      1.892      3.452
REMARK  Name = *****
REMARK                            x       y       z     vdW  Elec       q    Type
REMARK                         _______ _______ _______ _____ _____    ______ ____
ROOT
ATOM      1  N   LIG    1       25.820 -20.895   5.096  0.00  0.00    -0.287 NA
ATOM      2  C   LIG    1       24.994 -20.981   6.312  0.00  0.00    +0.108 C 
ATOM      3  C   LIG    1       25.777 -21.605   7.507  0.00  0.00    +0.039 C 
ATOM      4  C   LIG    1       26.182 -23.064   7.218  0.00  0.00    +0.030 C 
ATOM      5  C   LIG    1       27.008 -20.702   7.746  0.00  0.00    +0.108 C 
ATOM      6  N   LIG    1       27.858 -20.553   6.559  0.00  0.00    -0.287 NA
ATOM      7  C   LIG    1       27.079 -20.160   5.362  0.00  0.00    +0.171 C 
ENDROOT
BRANCH   3   8
ATOM      8  N   LIG    1       24.920 -21.614   8.718  0.00  0.00    -0.323 NA
ATOM      9  H   LIG    1       24.412 -20.745   8.775  0.00  0.00    +0.119 HD
ATOM     10  H   LIG    1       24.194 -22.347   8.599  0.00  0.00    +0.119 HD
ENDBRANCH   3   8
BRANCH   1  11
ATOM     11  C   LIG    1       25.122 -20.170   3.986  0.00  0.00    +0.089 C 
BRANCH  11  12
ATOM     12  C   LIG    1       24.880 -18.637   4.057  0.00  0.00    +0.003 C 
BRANCH  12  13
ATOM     13  C   LIG    1       23.395 -18.227   3.886  0.00  0.00    +0.001 C 
ATOM     14  C   LIG    1       22.358 -19.034   4.661  0.00  0.00    +0.004 C 
ENDBRANCH  12  13
BRANCH  12  15
ATOM     15  C   LIG    1       25.771 -17.824   3.051  0.00  0.00    +0.005 C 
BRANCH  15  16
ATOM     16  C   LIG    1       26.590 -16.651   3.621  0.00  0.00    +0.000 C 
BRANCH  16  18
ATOM     17  C   LIG    1       26.873 -14.210   2.781  0.00  0.00    +0.004 C 
ATOM     18  C   LIG    1       25.957 -15.259   3.397  0.00  0.00    -0.003 C 
ENDBRANCH  16  18
ENDBRANCH  15  16
ENDBRANCH  12  15
ENDBRANCH  11  12
ENDBRANCH   1  11
BRANCH   6  19
ATOM     19  C   LIG    1       28.894 -19.501   6.779  0.00  0.00    +0.089 C 
BRANCH  19  20
ATOM     20  C   LIG    1       29.790 -19.474   8.066  0.00  0.00    +0.003 C 
BRANCH  20  21
ATOM     21  C   LIG    1       30.988 -20.441   8.041  0.00  0.00    +0.001 C 
ATOM     22  C   LIG    1       30.884 -21.630   8.979  0.00  0.00    +0.004 C 
ENDBRANCH  20  21
BRANCH  20  23
ATOM     23  C   LIG    1       30.292 -18.001   8.239  0.00  0.00    +0.005 C 
BRANCH  23  24
ATOM     24  C   LIG    1       31.746 -17.806   8.702  0.00  0.00    +0.000 C 
BRANCH  24  25
ATOM     25  C   LIG    1       31.855 -17.373  10.174  0.00  0.00    -0.003 C 
ATOM     26  C   LIG    1       30.522 -17.324  10.905  0.00  0.00    +0.004 C 
ENDBRANCH  24  25
ENDBRANCH  23  24
ENDBRANCH  20  23
ENDBRANCH  19  20
ENDBRANCH   6  19
TORSDOF 13
ENDMDL
MODEL 6
REMARK VINA RESULT:      -7.0      2.303      4.136
REMARK  Name = *****
REMARK                            x       y       z     vdW  Elec       q    Type
REMARK                         _______ _______ _______ _____ _____    ______ ____
ROOT
ATOM      1  N   LIG    1       25.568 -22.409   6.648  0.00  0.00    -0.287 NA
ATOM      2  C   LIG    1       25.082 -22.224   5.270  0.00  0.00    +0.108 C 
ATOM      3  C   LIG    1       24.906 -20.718   4.910  0.00  0.00    +0.039 C 
ATOM      4  C   LIG    1       23.829 -20.048   5.786  0.00  0.00    +0.030 C 
ATOM      5  C   LIG    1       26.291 -20.057   5.093  0.00  0.00    +0.108 C 
ATOM      6  N   LIG    1       26.843 -20.231   6.442  0.00  0.00    -0.287 NA
ATOM      7  C   LIG    1       26.819 -21.647   6.874  0.00  0.00    +0.171 C 
ENDROOT
BRANCH   3   8
ATOM      8  N   LIG    1       24.472 -20.588   3.496  0.00  0.00    -0.323 NA
ATOM      9  H   LIG    1       24.804 -19.713   3.124  0.00  0.00    +0.119 HD
ATOM     10  H   LIG    1       24.952 -21.322   2.940  0.00  0.00    +0.119 HD
ENDBRANCH   3   8
BRANCH   1  11
ATOM     11  C   LIG    1       25.873 -23.843   6.955  0.00  0.00    +0.089 C 
BRANCH  11  12
ATOM     12  C   LIG    1       25.254 -24.993   6.115  0.00  0.00    +0.003 C 
BRANCH  12  13
ATOM     13  C   LIG    1       23.754 -25.251   6.411  0.00  0.00    +0.001 C 
ATOM     14  C   LIG    1       22.894 -24.036   6.744  0.00  0.00    +0.004 C 
ENDBRANCH  12  13
BRANCH  12  15
ATOM     15  C   LIG    1       26.053 -26.341   6.229  0.00  0.00    +0.005 C 
BRANCH  15  16
ATOM     16  C   LIG    1       25.980 -27.309   5.034  0.00  0.00    +0.000 C 
BRANCH  16  18
ATOM     17  C   LIG    1       24.606 -28.775   6.681  0.00  0.00    +0.004 C 
ATOM     18  C   LIG    1       25.031 -28.511   5.241  0.00  0.00    -0.003 C 
ENDBRANCH  16  18
ENDBRANCH  15  16
ENDBRANCH  12  15
ENDBRANCH  11  12
ENDBRANCH   1  11
BRANCH   6  19
ATOM     19  C   LIG    1       28.264 -19.775   6.494  0.00  0.00    +0.089 C 
BRANCH  19  20
ATOM     20  C   LIG    1       29.135 -19.920   7.790  0.00  0.00    +0.003 C 
BRANCH  20  21
ATOM     21  C   LIG    1       29.951 -21.223   7.879  0.00  0.00    +0.001 C 
ATOM     22  C   LIG    1       31.021 -21.248   8.955  0.00  0.00    +0.004 C 
ENDBRANCH  20  21
BRANCH  20  23
ATOM     23  C   LIG    1       30.092 -18.682   7.834  0.00  0.00    +0.005 C 
BRANCH  23  24
ATOM     24  C   LIG    1       29.958 -17.734   9.038  0.00  0.00    +0.000 C 
BRANCH  24  25
ATOM     25  C   LIG    1       31.225 -17.685   9.909  0.00  0.00    -0.003 C 
ATOM     26  C   LIG    1       31.075 -16.853  11.174  0.00  0.00    +0.004 C 
ENDBRANCH  24  25
ENDBRANCH  23  24
ENDBRANCH  20  23
ENDBRANCH  19  20
ENDBRANCH   6  19
TORSDOF 13
ENDMDL
MODEL 7
REMARK VINA RESULT:      -6.9      2.349      6.372
REMARK  Name = *****
REMARK                            x       y       z     vdW  Elec       q    Type
REMARK                         _______ _______ _______ _____ _____    ______ ____
ROOT
ATOM      1  N   LIG    1       26.466 -20.212   5.623  0.00  0.00    -0.287 NA
ATOM      2  C   LIG    1       27.935 -20.168   5.713  0.00  0.00    +0.108 C 
ATOM      3  C   LIG    1       28.453 -20.683   7.089  0.00  0.00    +0.039 C 
ATOM      4  C   LIG    1       27.974 -19.786   8.247  0.00  0.00    +0.030 C 
ATOM      5  C   LIG    1       27.941 -22.134   7.237  0.00  0.00    +0.108 C 
ATOM      6  N   LIG    1       26.482 -22.249   7.128  0.00  0.00    -0.287 NA
ATOM      7  C   LIG    1       25.959 -21.574   5.918  0.00  0.00    +0.171 C 
ENDROOT
BRANCH   3   8
ATOM      8  N   LIG    1       29.937 -20.672   7.103  0.00  0.00    -0.323 NA
ATOM      9  H   LIG    1       30.265 -20.964   8.010  0.00  0.00    +0.119 HD
ATOM     10  H   LIG    1       30.274 -21.399   6.443  0.00  0.00    +0.119 HD
ENDBRANCH   3   8
BRANCH   1  11
ATOM     11  C   LIG    1       25.968 -19.853   4.257  0.00  0.00    +0.089 C 
BRANCH  11  12
ATOM     12  C   LIG    1       25.086 -18.594   4.030  0.00  0.00    +0.003 C 
BRANCH  12  13
ATOM     13  C   LIG    1       23.662 -18.910   3.506  0.00  0.00    +0.001 C 
ATOM     14  C   LIG    1       22.489 -18.339   4.296  0.00  0.00    +0.004 C 
ENDBRANCH  12  13
BRANCH  12  15
ATOM     15  C   LIG    1       25.765 -17.525   3.101  0.00  0.00    +0.005 C 
BRANCH  15  16
ATOM     16  C   LIG    1       25.574 -16.043   3.472  0.00  0.00    +0.000 C 
BRANCH  16  18
ATOM     17  C   LIG    1       26.873 -13.961   4.323  0.00  0.00    +0.004 C 
ATOM     18  C   LIG    1       26.870 -15.202   3.439  0.00  0.00    -0.003 C 
ENDBRANCH  16  18
ENDBRANCH  15  16
ENDBRANCH  12  15
ENDBRANCH  11  12
ENDBRANCH   1  11
BRANCH   6  19
ATOM     19  C   LIG    1       26.069 -23.682   7.051  0.00  0.00    +0.089 C 
BRANCH  19  20
ATOM     20  C   LIG    1       25.034 -24.191   5.988  0.00  0.00    +0.003 C 
BRANCH  20  21
ATOM     21  C   LIG    1       25.427 -25.501   5.280  0.00  0.00    +0.001 C 
ATOM     22  C   LIG    1       24.499 -26.677   5.527  0.00  0.00    +0.004 C 
ENDBRANCH  20  21
BRANCH  20  23
ATOM     23  C   LIG    1       23.669 -24.370   6.732  0.00  0.00    +0.005 C 
BRANCH  23  24
ATOM     24  C   LIG    1       22.647 -23.228   6.607  0.00  0.00    +0.000 C 
BRANCH  24  25
ATOM     25  C   LIG    1       22.948 -22.045   7.543  0.00  0.00    -0.003 C 
ATOM     26  C   LIG    1       23.098 -20.711   6.827  0.00  0.00    +0.004 C 
ENDBRANCH  24  25
ENDBRANCH  23  24
ENDBRANCH  20  23
ENDBRANCH  19  20
ENDBRANCH   6  19
TORSDOF 13
ENDMDL
MODEL 8
REMARK VINA RESULT:      -6.8      2.986      7.117
REMARK  Name = *****
REMARK                            x       y       z     vdW  Elec       q    Type
REMARK                         _______ _______ _______ _____ _____    ______ ____
ROOT
ATOM      1  N   LIG    1       25.520 -20.676   5.820  0.00  0.00    -0.287 NA
ATOM      2  C   LIG    1       26.780 -20.147   6.369  0.00  0.00    +0.108 C 
ATOM      3  C   LIG    1       27.127 -20.781   7.750  0.00  0.00    +0.039 C 
ATOM      4  C   LIG    1       26.070 -20.430   8.815  0.00  0.00    +0.030 C 
ATOM      5  C   LIG    1       27.229 -22.306   7.521  0.00  0.00    +0.108 C 
ATOM      6  N   LIG    1       26.011 -22.890   6.947  0.00  0.00    -0.287 NA
ATOM      7  C   LIG    1       25.556 -22.156   5.744  0.00  0.00    +0.171 C 
ENDROOT
BRANCH   3   8
ATOM      8  N   LIG    1       28.431 -20.258   8.228  0.00  0.00    -0.323 NA
ATOM      9  H   LIG    1       29.043 -21.030   8.439  0.00  0.00    +0.119 HD
ATOM     10  H   LIG    1       28.887 -19.753   7.444  0.00  0.00    +0.119 HD
ENDBRANCH   3   8
BRANCH   1  11
ATOM     11  C   LIG    1       25.251 -20.178   4.432  0.00  0.00    +0.089 C 
BRANCH  11  12
ATOM     12  C   LIG    1       24.669 -18.759   4.188  0.00  0.00    +0.003 C 
BRANCH  12  13
ATOM     13  C   LIG    1       23.145 -18.746   3.905  0.00  0.00    +0.001 C 
ATOM     14  C   LIG    1       22.268 -19.631   4.784  0.00  0.00    +0.004 C 
ENDBRANCH  12  13
BRANCH  12  15
ATOM     15  C   LIG    1       25.422 -17.969   3.059  0.00  0.00    +0.005 C 
BRANCH  15  16
ATOM     16  C   LIG    1       26.565 -17.033   3.493  0.00  0.00    +0.000 C 
BRANCH  16  18
ATOM     17  C   LIG    1       27.288 -14.575   3.920  0.00  0.00    +0.004 C 
ATOM     18  C   LIG    1       26.259 -15.528   3.324  0.00  0.00    -0.003 C 
ENDBRANCH  16  18
ENDBRANCH  15  16
ENDBRANCH  12  15
ENDBRANCH  11  12
ENDBRANCH   1  11
BRANCH   6  19
ATOM     19  C   LIG    1       26.245 -24.307   6.540  0.00  0.00    +0.089 C 
BRANCH  19  20
ATOM     20  C   LIG    1       25.235 -25.452   6.899  0.00  0.00    +0.003 C 
BRANCH  20  21
ATOM     21  C   LIG    1       23.872 -25.358   6.190  0.00  0.00    +0.001 C 
ATOM     22  C   LIG    1       22.967 -24.236   6.665  0.00  0.00    +0.004 C 
ENDBRANCH  20  21
BRANCH  20  23
ATOM     23  C   LIG    1       25.936 -26.805   6.541  0.00  0.00    +0.005 C 
BRANCH  23  24
ATOM     24  C   LIG    1       25.593 -27.433   5.179  0.00  0.00    +0.000 C 
BRANCH  24  25
ATOM     25  C   LIG    1       25.202 -28.917   5.283  0.00  0.00    -0.003 C 
ATOM     26  C   LIG    1       24.120 -29.202   6.315  0.00  0.00    +0.004 C 
ENDBRANCH  24  25
ENDBRANCH  23  24
ENDBRANCH  20  23
ENDBRANCH  19  20
ENDBRANCH   6  19
TORSDOF 13
ENDMDL
MODEL 9
REMARK VINA RESULT:      -6.8      2.952      5.357
REMARK  Name = *****
REMARK                            x       y       z     vdW  Elec       q    Type
REMARK                         _______ _______ _______ _____ _____    ______ ____
ROOT
ATOM      1  N   LIG    1       25.263 -23.574   6.617  0.00  0.00    -0.287 NA
ATOM      2  C   LIG    1       24.817 -23.113   5.291  0.00  0.00    +0.108 C 
ATOM      3  C   LIG    1       24.122 -21.719   5.360  0.00  0.00    +0.039 C 
ATOM      4  C   LIG    1       22.831 -21.771   6.199  0.00  0.00    +0.030 C 
ATOM      5  C   LIG    1       25.158 -20.740   5.958  0.00  0.00    +0.108 C 
ATOM      6  N   LIG    1       25.664 -21.160   7.270  0.00  0.00    -0.287 NA
ATOM      7  C   LIG    1       26.135 -22.564   7.261  0.00  0.00    +0.171 C 
ENDROOT
BRANCH   3   8
ATOM      8  N   LIG    1       23.747 -21.278   3.994  0.00  0.00    -0.323 NA
ATOM      9  H   LIG    1       24.050 -20.327   3.854  0.00  0.00    +0.119 HD
ATOM     10  H   LIG    1       24.287 -21.841   3.309  0.00  0.00    +0.119 HD
ENDBRANCH   3   8
BRANCH   1  11
ATOM     11  C   LIG    1       26.054 -24.843   6.540  0.00  0.00    +0.089 C 
BRANCH  11  12
ATOM     12  C   LIG    1       25.413 -26.211   6.903  0.00  0.00    +0.003 C 
BRANCH  12  13
ATOM     13  C   LIG    1       26.444 -27.318   7.243  0.00  0.00    +0.001 C 
ATOM     14  C   LIG    1       26.268 -28.047   8.571  0.00  0.00    +0.004 C 
ENDBRANCH  12  13
BRANCH  12  15
ATOM     15  C   LIG    1       24.418 -26.735   5.808  0.00  0.00    +0.005 C 
BRANCH  15  16
ATOM     16  C   LIG    1       24.739 -28.091   5.152  0.00  0.00    +0.000 C 
BRANCH  16  18
ATOM     17  C   LIG    1       24.829 -30.513   6.084  0.00  0.00    +0.004 C 
ATOM     18  C   LIG    1       23.979 -29.292   5.758  0.00  0.00    -0.003 C 
ENDBRANCH  16  18
ENDBRANCH  15  16
ENDBRANCH  12  15
ENDBRANCH  11  12
ENDBRANCH   1  11
BRANCH   6  19
ATOM     19  C   LIG    1       26.815 -20.307   7.690  0.00  0.00    +0.089 C 
BRANCH  19  20
ATOM     20  C   LIG    1       28.266 -20.545   7.147  0.00  0.00    +0.003 C 
BRANCH  20  21
ATOM     21  C   LIG    1       28.491 -20.103   5.689  0.00  0.00    +0.001 C 
ATOM     22  C   LIG    1       28.844 -18.638   5.500  0.00  0.00    +0.004 C 
ENDBRANCH  20  21
BRANCH  20  23
ATOM     23  C   LIG    1       29.240 -19.773   8.098  0.00  0.00    +0.005 C 
BRANCH  23  24
ATOM     24  C   LIG    1       30.717 -20.202   8.089  0.00  0.00    +0.000 C 
BRANCH  24  25
ATOM     25  C   LIG    1       31.675 -19.053   7.733  0.00  0.00    -0.003 C 
ATOM     26  C   LIG    1       31.703 -17.930   8.759  0.00  0.00    +0.004 C 
ENDBRANCH  24  25
ENDBRANCH  23  24
ENDBRANCH  20  23
ENDBRANCH  19  20
ENDBRANCH   6  19
TORSDOF 13
ENDMDL
