MODEL 1
REMARK VINA RESULT:       2.3      0.000      0.000
REMARK  Name = *****
REMARK                            x       y       z     vdW  Elec       q    Type
REMARK                         _______ _______ _______ _____ _____    ______ ____
ROOT
ATOM      1  C   LIG    1       25.935 -17.671   4.784  0.00  0.00    +0.097 C 
ENDROOT
BRANCH   1   8
ATOM      2  C   LIG    1       28.083 -13.331   5.590  0.00  0.00    +0.009 C 
ATOM      3  C   LIG    1       27.858 -14.350   4.465  0.00  0.00    +0.010 C 
ATOM      4  C   LIG    1       27.130 -13.777   3.199  0.00  0.00    -0.002 C 
ATOM      5  C   LIG    1       28.162 -12.853   2.475  0.00  0.00    +0.016 C 
ATOM      6  C   LIG    1       26.891 -14.983   2.257  0.00  0.00    +0.027 C 
ATOM      7  C   LIG    1       26.133 -16.130   2.925  0.00  0.00    +0.085 C 
ATOM      8  N   LIG    1       26.816 -16.672   4.108  0.00  0.00    -0.301 NA
ATOM      9  C   LIG    1       27.260 -15.644   5.055  0.00  0.00    +0.088 C 
BRANCH   4  10
ATOM     10  C   LIG    1       25.803 -12.996   3.411  0.00  0.00    -0.038 A 
ATOM     11  C   LIG    1       25.345 -12.586   4.674  0.00  0.00    +0.049 A 
ATOM     12  C   LIG    1       24.156 -11.863   4.826  0.00  0.00    +0.117 A 
ATOM     13  C   LIG    1       23.369 -11.532   3.735  0.00  0.00    +0.045 A 
ATOM     14  C   LIG    1       23.775 -11.947   2.475  0.00  0.00    +0.004 A 
ATOM     15  C   LIG    1       24.963 -12.675   2.321  0.00  0.00    +0.004 A 
BRANCH  12  16
ATOM     16  O   LIG    1       23.797 -11.490   6.090  0.00  0.00    -0.507 OA
ATOM     17  H   LIG    1       24.209 -10.633   6.285  0.00  0.00    +0.292 HD
ENDBRANCH  12  16
ENDBRANCH   4  10
ENDBRANCH   1   8
BRANCH   1  18
ATOM     18  C   LIG    1       26.167 -19.145   4.360  0.00  0.00    +0.093 C 
BRANCH  18  19
ATOM     19  C   LIG    1       26.294 -20.057   5.594  0.00  0.00    +0.218 C 
ATOM     20  N   LIG    1       27.536 -20.335   6.105  0.00  0.00    -0.305 N 
ATOM     21  H   LIG    1       27.503 -21.031   6.848  0.00  0.00    +0.149 HD
ATOM     22  O   LIG    1       25.327 -20.480   6.224  0.00  0.00    -0.275 OA
BRANCH  20  23
ATOM     23  C   LIG    1       28.834 -19.978   5.542  0.00  0.00    +0.224 C 
BRANCH  23  24
ATOM     24  C   LIG    1       29.247 -18.572   5.897  0.00  0.00    +0.322 C 
ATOM     25  O   LIG    1       29.475 -18.194   7.047  0.00  0.00    -0.249 OA
BRANCH  24  26
ATOM     26  O   LIG    1       29.475 -17.792   4.819  0.00  0.00    -0.479 OA
ATOM     27  H   LIG    1       29.589 -16.851   5.072  0.00  0.00    +0.295 HD
ENDBRANCH  24  26
ENDBRANCH  23  24
ENDBRANCH  20  23
ENDBRANCH  18  19
BRANCH  18  28
ATOM     28  C   LIG    1       25.163 -19.643   3.290  0.00  0.00    +0.049 C 
BRANCH  28  29
ATOM     29  C   LIG    1       23.689 -19.642   3.623  0.00  0.00    -0.047 A 
ATOM     30  C   LIG    1       22.929 -18.467   3.652  0.00  0.00    +0.003 A 
ATOM     31  C   LIG    1       21.595 -18.481   4.063  0.00  0.00    +0.000 A 
ATOM     32  C   LIG    1       20.986 -19.683   4.409  0.00  0.00    +0.000 A 
ATOM     33  C   LIG    1       21.695 -20.874   4.284  0.00  0.00    +0.000 A 
ATOM     34  C   LIG    1       23.029 -20.854   3.874  0.00  0.00    +0.003 A 
ENDBRANCH  28  29
ENDBRANCH  18  28
ENDBRANCH   1  18
TORSDOF 10
ENDMDL
MODEL 2
REMARK VINA RESULT:       3.3      1.979      7.342
REMARK  Name = *****
REMARK                            x       y       z     vdW  Elec       q    Type
REMARK                         _______ _______ _______ _____ _____    ______ ____
ROOT
ATOM      1  C   LIG    1       26.134 -15.670   4.426  0.00  0.00    +0.097 C 
ENDROOT
BRANCH   1   8
ATOM      2  C   LIG    1       21.790 -17.934   4.111  0.00  0.00    +0.009 C 
ATOM      3  C   LIG    1       23.150 -17.878   3.402  0.00  0.00    +0.010 C 
ATOM      4  C   LIG    1       23.897 -19.255   3.309  0.00  0.00    -0.002 C 
ATOM      5  C   LIG    1       23.120 -20.109   2.256  0.00  0.00    +0.016 C 
ATOM      6  C   LIG    1       25.281 -18.952   2.686  0.00  0.00    +0.027 C 
ATOM      7  C   LIG    1       26.068 -17.886   3.449  0.00  0.00    +0.085 C 
ATOM      8  N   LIG    1       25.372 -16.594   3.533  0.00  0.00    -0.301 NA
ATOM      9  C   LIG    1       23.975 -16.703   3.967  0.00  0.00    +0.088 C 
BRANCH   4  10
ATOM     10  C   LIG    1       24.070 -20.081   4.614  0.00  0.00    -0.038 A 
ATOM     11  C   LIG    1       25.321 -20.470   5.119  0.00  0.00    +0.049 A 
ATOM     12  C   LIG    1       25.441 -21.194   6.311  0.00  0.00    +0.117 A 
ATOM     13  C   LIG    1       24.325 -21.572   7.040  0.00  0.00    +0.045 A 
ATOM     14  C   LIG    1       23.070 -21.231   6.555  0.00  0.00    +0.004 A 
ATOM     15  C   LIG    1       22.948 -20.510   5.359  0.00  0.00    +0.004 A 
BRANCH  12  16
ATOM     16  O   LIG    1       26.699 -21.513   6.737  0.00  0.00    -0.507 OA
ATOM     17  H   LIG    1       26.831 -21.128   7.618  0.00  0.00    +0.292 HD
ENDBRANCH  12  16
ENDBRANCH   4  10
ENDBRANCH   1   8
BRANCH   1  18
ATOM     18  C   LIG    1       27.586 -15.367   3.973  0.00  0.00    +0.093 C 
BRANCH  18  19
ATOM     19  C   LIG    1       27.708 -13.925   3.449  0.00  0.00    +0.218 C 
ATOM     20  N   LIG    1       26.574 -13.224   3.125  0.00  0.00    -0.305 N 
ATOM     21  H   LIG    1       26.784 -12.327   2.689  0.00  0.00    +0.149 HD
ATOM     22  O   LIG    1       28.774 -13.314   3.395  0.00  0.00    -0.275 OA
BRANCH  20  23
ATOM     23  C   LIG    1       25.202 -13.717   3.080  0.00  0.00    +0.224 C 
BRANCH  23  24
ATOM     24  C   LIG    1       24.198 -12.653   3.443  0.00  0.00    +0.322 C 
ATOM     25  O   LIG    1       23.832 -12.418   4.595  0.00  0.00    -0.249 OA
BRANCH  24  26
ATOM     26  O   LIG    1       23.830 -11.885   2.395  0.00  0.00    -0.479 OA
ATOM     27  H   LIG    1       23.292 -12.391   1.748  0.00  0.00    +0.295 HD
ENDBRANCH  24  26
ENDBRANCH  23  24
ENDBRANCH  20  23
ENDBRANCH  18  19
BRANCH  18  28
ATOM     28  C   LIG    1       28.654 -15.764   5.024  0.00  0.00    +0.049 C 
BRANCH  28  29
ATOM     29  C   LIG    1       28.810 -17.223   5.384  0.00  0.00    -0.047 A 
ATOM     30  C   LIG    1       28.420 -18.253   4.520  0.00  0.00    +0.003 A 
ATOM     31  C   LIG    1       28.480 -19.590   4.920  0.00  0.00    +0.000 A 
ATOM     32  C   LIG    1       28.975 -19.919   6.177  0.00  0.00    +0.000 A 
ATOM     33  C   LIG    1       29.466 -18.915   7.007  0.00  0.00    +0.000 A 
ATOM     34  C   LIG    1       29.403 -17.580   6.604  0.00  0.00    +0.003 A 
ENDBRANCH  28  29
ENDBRANCH  18  28
ENDBRANCH   1  18
TORSDOF 10
ENDMDL
MODEL 3
REMARK VINA RESULT:       3.6      1.026      2.239
REMARK  Name = *****
REMARK                            x       y       z     vdW  Elec       q    Type
REMARK                         _______ _______ _______ _____ _____    ______ ____
ROOT
ATOM      1  C   LIG    1       25.984 -17.565   4.360  0.00  0.00    +0.097 C 
ENDROOT
BRANCH   1   8
ATOM      2  C   LIG    1       27.864 -13.225   5.672  0.00  0.00    +0.009 C 
ATOM      3  C   LIG    1       27.790 -14.166   4.462  0.00  0.00    +0.010 C 
ATOM      4  C   LIG    1       27.164 -13.527   3.173  0.00  0.00    -0.002 C 
ATOM      5  C   LIG    1       28.222 -12.519   2.620  0.00  0.00    +0.016 C 
ATOM      6  C   LIG    1       27.066 -14.669   2.132  0.00  0.00    +0.027 C 
ATOM      7  C   LIG    1       26.295 -15.887   2.640  0.00  0.00    +0.085 C 
ATOM      8  N   LIG    1       26.883 -16.491   3.845  0.00  0.00    -0.301 NA
ATOM      9  C   LIG    1       27.192 -15.519   4.900  0.00  0.00    +0.088 C 
BRANCH   4  10
ATOM     10  C   LIG    1       25.791 -12.810   3.308  0.00  0.00    -0.038 A 
ATOM     11  C   LIG    1       25.126 -12.644   4.534  0.00  0.00    +0.049 A 
ATOM     12  C   LIG    1       23.902 -11.971   4.621  0.00  0.00    +0.117 A 
ATOM     13  C   LIG    1       23.284 -11.451   3.496  0.00  0.00    +0.045 A 
ATOM     14  C   LIG    1       23.897 -11.622   2.264  0.00  0.00    +0.004 A 
ATOM     15  C   LIG    1       25.121 -12.300   2.173  0.00  0.00    +0.004 A 
BRANCH  12  16
ATOM     16  O   LIG    1       23.336 -11.841   5.858  0.00  0.00    -0.507 OA
ATOM     17  H   LIG    1       22.751 -11.067   5.847  0.00  0.00    +0.292 HD
ENDBRANCH  12  16
ENDBRANCH   4  10
ENDBRANCH   1   8
BRANCH   1  18
ATOM     18  C   LIG    1       26.333 -19.000   3.884  0.00  0.00    +0.093 C 
BRANCH  18  19
ATOM     19  C   LIG    1       27.129 -19.756   4.963  0.00  0.00    +0.218 C 
ATOM     20  N   LIG    1       26.650 -20.947   5.447  0.00  0.00    -0.305 N 
ATOM     21  H   LIG    1       27.201 -21.297   6.230  0.00  0.00    +0.149 HD
ATOM     22  O   LIG    1       28.240 -19.403   5.354  0.00  0.00    -0.275 OA
BRANCH  20  23
ATOM     23  C   LIG    1       25.362 -21.571   5.168  0.00  0.00    +0.224 C 
BRANCH  23  24
ATOM     24  C   LIG    1       24.289 -21.129   6.130  0.00  0.00    +0.322 C 
ATOM     25  O   LIG    1       24.483 -20.348   7.062  0.00  0.00    -0.249 OA
BRANCH  24  26
ATOM     26  O   LIG    1       23.057 -21.569   5.797  0.00  0.00    -0.479 OA
ATOM     27  H   LIG    1       23.082 -22.487   5.452  0.00  0.00    +0.295 HD
ENDBRANCH  24  26
ENDBRANCH  23  24
ENDBRANCH  20  23
ENDBRANCH  18  19
BRANCH  18  28
ATOM     28  C   LIG    1       25.117 -19.774   3.317  0.00  0.00    +0.049 C 
BRANCH  28  29
ATOM     29  C   LIG    1       23.730 -19.233   3.571  0.00  0.00    -0.047 A 
ATOM     30  C   LIG    1       23.510 -17.958   4.106  0.00  0.00    +0.003 A 
ATOM     31  C   LIG    1       22.222 -17.524   4.428  0.00  0.00    +0.000 A 
ATOM     32  C   LIG    1       21.128 -18.345   4.175  0.00  0.00    +0.000 A 
ATOM     33  C   LIG    1       21.318 -19.571   3.547  0.00  0.00    +0.000 A 
ATOM     34  C   LIG    1       22.608 -20.001   3.228  0.00  0.00    +0.003 A 
ENDBRANCH  28  29
ENDBRANCH  18  28
ENDBRANCH   1  18
TORSDOF 10
ENDMDL
MODEL 4
REMARK VINA RESULT:       3.8      2.828      5.441
REMARK  Name = *****
REMARK                            x       y       z     vdW  Elec       q    Type
REMARK                         _______ _______ _______ _____ _____    ______ ____
ROOT
ATOM      1  C   LIG    1       23.313 -17.277   3.402  0.00  0.00    +0.097 C 
ENDROOT
BRANCH   1   8
ATOM      2  C   LIG    1       23.779 -12.573   2.078  0.00  0.00    +0.009 C 
ATOM      3  C   LIG    1       23.460 -13.430   3.311  0.00  0.00    +0.010 C 
ATOM      4  C   LIG    1       24.418 -13.202   4.533  0.00  0.00    -0.002 C 
ATOM      5  C   LIG    1       24.056 -11.800   5.122  0.00  0.00    +0.016 C 
ATOM      6  C   LIG    1       24.006 -14.243   5.602  0.00  0.00    +0.027 C 
ATOM      7  C   LIG    1       24.018 -15.681   5.083  0.00  0.00    +0.085 C 
ATOM      8  N   LIG    1       23.118 -15.898   3.942  0.00  0.00    -0.301 NA
ATOM      9  C   LIG    1       23.262 -14.898   2.878  0.00  0.00    +0.088 C 
BRANCH   4  10
ATOM     10  C   LIG    1       25.950 -13.273   4.282  0.00  0.00    -0.038 A 
ATOM     11  C   LIG    1       26.891 -12.578   5.060  0.00  0.00    +0.049 A 
ATOM     12  C   LIG    1       28.266 -12.684   4.820  0.00  0.00    +0.117 A 
ATOM     13  C   LIG    1       28.759 -13.472   3.793  0.00  0.00    +0.045 A 
ATOM     14  C   LIG    1       27.858 -14.150   2.986  0.00  0.00    +0.004 A 
ATOM     15  C   LIG    1       26.480 -14.041   3.220  0.00  0.00    +0.004 A 
BRANCH  12  16
ATOM     16  O   LIG    1       29.108 -11.986   5.638  0.00  0.00    -0.507 OA
ATOM     17  H   LIG    1       29.886 -11.720   5.121  0.00  0.00    +0.292 HD
ENDBRANCH  12  16
ENDBRANCH   4  10
ENDBRANCH   1   8
BRANCH   1  18
ATOM     18  C   LIG    1       23.839 -18.315   4.428  0.00  0.00    +0.093 C 
BRANCH  18  19
ATOM     19  C   LIG    1       22.675 -19.102   5.057  0.00  0.00    +0.218 C 
ATOM     20  N   LIG    1       21.569 -19.396   4.300  0.00  0.00    -0.305 N 
ATOM     21  H   LIG    1       20.824 -19.821   4.851  0.00  0.00    +0.149 HD
ATOM     22  O   LIG    1       22.717 -19.580   6.189  0.00  0.00    -0.275 OA
BRANCH  20  23
ATOM     23  C   LIG    1       21.263 -18.936   2.950  0.00  0.00    +0.224 C 
BRANCH  23  24
ATOM     24  C   LIG    1       19.937 -18.222   2.875  0.00  0.00    +0.322 C 
ATOM     25  O   LIG    1       19.376 -17.926   1.819  0.00  0.00    -0.249 OA
BRANCH  24  26
ATOM     26  O   LIG    1       19.351 -18.051   4.079  0.00  0.00    -0.479 OA
ATOM     27  H   LIG    1       19.114 -18.910   4.490  0.00  0.00    +0.295 HD
ENDBRANCH  24  26
ENDBRANCH  23  24
ENDBRANCH  20  23
ENDBRANCH  18  19
BRANCH  18  28
ATOM     28  C   LIG    1       24.990 -19.195   3.878  0.00  0.00    +0.049 C 
BRANCH  28  29
ATOM     29  C   LIG    1       25.992 -19.770   4.852  0.00  0.00    -0.047 A 
ATOM     30  C   LIG    1       25.670 -20.811   5.731  0.00  0.00    +0.003 A 
ATOM     31  C   LIG    1       26.583 -21.253   6.690  0.00  0.00    +0.000 A 
ATOM     32  C   LIG    1       27.852 -20.689   6.754  0.00  0.00    +0.000 A 
ATOM     33  C   LIG    1       28.226 -19.728   5.820  0.00  0.00    +0.000 A 
ATOM     34  C   LIG    1       27.309 -19.288   4.863  0.00  0.00    +0.003 A 
ENDBRANCH  28  29
ENDBRANCH  18  28
ENDBRANCH   1  18
TORSDOF 10
ENDMDL
MODEL 5
REMARK VINA RESULT:       3.9      2.552      7.807
REMARK  Name = *****
REMARK                            x       y       z     vdW  Elec       q    Type
REMARK                         _______ _______ _______ _____ _____    ______ ____
ROOT
ATOM      1  C   LIG    1       24.752 -15.828   3.693  0.00  0.00    +0.097 C 
ENDROOT
BRANCH   1   8
ATOM      2  C   LIG    1       22.971 -19.640   6.221  0.00  0.00    +0.009 C 
ATOM      3  C   LIG    1       23.464 -19.280   4.814  0.00  0.00    +0.010 C 
ATOM      4  C   LIG    1       24.657 -20.156   4.294  0.00  0.00    -0.002 C 
ATOM      5  C   LIG    1       24.065 -21.568   3.980  0.00  0.00    +0.016 C 
ATOM      6  C   LIG    1       25.077 -19.548   2.933  0.00  0.00    +0.027 C 
ATOM      7  C   LIG    1       25.410 -18.058   3.013  0.00  0.00    +0.085 C 
ATOM      8  N   LIG    1       24.292 -17.234   3.495  0.00  0.00    -0.301 NA
ATOM      9  C   LIG    1       23.660 -17.752   4.713  0.00  0.00    +0.088 C 
BRANCH   4  10
ATOM     10  C   LIG    1       25.901 -20.314   5.213  0.00  0.00    -0.038 A 
ATOM     11  C   LIG    1       27.025 -19.474   5.139  0.00  0.00    +0.049 A 
ATOM     12  C   LIG    1       28.118 -19.631   5.999  0.00  0.00    +0.117 A 
ATOM     13  C   LIG    1       28.146 -20.634   6.954  0.00  0.00    +0.045 A 
ATOM     14  C   LIG    1       27.066 -21.502   7.035  0.00  0.00    +0.004 A 
ATOM     15  C   LIG    1       25.972 -21.350   6.172  0.00  0.00    +0.004 A 
BRANCH  12  16
ATOM     16  O   LIG    1       29.159 -18.756   5.868  0.00  0.00    -0.507 OA
ATOM     17  H   LIG    1       29.982 -19.267   5.808  0.00  0.00    +0.292 HD
ENDBRANCH  12  16
ENDBRANCH   4  10
ENDBRANCH   1   8
BRANCH   1  18
ATOM     18  C   LIG    1       23.630 -14.809   4.023  0.00  0.00    +0.093 C 
BRANCH  18  19
ATOM     19  C   LIG    1       22.611 -15.415   5.005  0.00  0.00    +0.218 C 
ATOM     20  N   LIG    1       21.726 -16.365   4.563  0.00  0.00    -0.305 N 
ATOM     21  H   LIG    1       21.034 -16.609   5.271  0.00  0.00    +0.149 HD
ATOM     22  O   LIG    1       22.606 -15.168   6.210  0.00  0.00    -0.275 OA
BRANCH  20  23
ATOM     23  C   LIG    1       21.512 -16.817   3.193  0.00  0.00    +0.224 C 
BRANCH  23  24
ATOM     24  C   LIG    1       20.541 -17.968   3.113  0.00  0.00    +0.322 C 
ATOM     25  O   LIG    1       20.754 -19.079   3.599  0.00  0.00    -0.249 OA
BRANCH  24  26
ATOM     26  O   LIG    1       19.353 -17.629   2.571  0.00  0.00    -0.479 OA
ATOM     27  H   LIG    1       19.335 -16.685   2.301  0.00  0.00    +0.295 HD
ENDBRANCH  24  26
ENDBRANCH  23  24
ENDBRANCH  20  23
ENDBRANCH  18  19
BRANCH  18  28
ATOM     28  C   LIG    1       24.165 -13.413   4.427  0.00  0.00    +0.049 C 
BRANCH  28  29
ATOM     29  C   LIG    1       25.641 -13.129   4.273  0.00  0.00    -0.047 A 
ATOM     30  C   LIG    1       26.253 -13.006   3.020  0.00  0.00    +0.003 A 
ATOM     31  C   LIG    1       27.635 -12.847   2.905  0.00  0.00    +0.000 A 
ATOM     32  C   LIG    1       28.423 -12.762   4.049  0.00  0.00    +0.000 A 
ATOM     33  C   LIG    1       27.819 -12.775   5.302  0.00  0.00    +0.000 A 
ATOM     34  C   LIG    1       26.437 -12.936   5.411  0.00  0.00    +0.003 A 
ENDBRANCH  28  29
ENDBRANCH  18  28
ENDBRANCH   1  18
TORSDOF 10
ENDMDL
MODEL 6
REMARK VINA RESULT:       5.1      2.467      6.954
REMARK  Name = *****
REMARK                            x       y       z     vdW  Elec       q    Type
REMARK                         _______ _______ _______ _____ _____    ______ ____
ROOT
ATOM      1  C   LIG    1       25.646 -15.569   4.271  0.00  0.00    +0.097 C 
ENDROOT
BRANCH   1   8
ATOM      2  C   LIG    1       21.225 -17.009   5.845  0.00  0.00    +0.009 C 
ATOM      3  C   LIG    1       22.113 -17.067   4.595  0.00  0.00    +0.010 C 
ATOM      4  C   LIG    1       22.424 -18.516   4.080  0.00  0.00    -0.002 C 
ATOM      5  C   LIG    1       21.099 -19.055   3.450  0.00  0.00    +0.016 C 
ATOM      6  C   LIG    1       23.425 -18.351   2.910  0.00  0.00    +0.027 C 
ATOM      7  C   LIG    1       24.678 -17.563   3.293  0.00  0.00    +0.085 C 
ATOM      8  N   LIG    1       24.390 -16.203   3.772  0.00  0.00    -0.301 NA
ATOM      9  C   LIG    1       23.337 -16.148   4.792  0.00  0.00    +0.088 C 
BRANCH   4  10
ATOM     10  C   LIG    1       22.966 -19.554   5.102  0.00  0.00    -0.038 A 
ATOM     11  C   LIG    1       24.265 -19.505   5.634  0.00  0.00    +0.049 A 
ATOM     12  C   LIG    1       24.712 -20.443   6.572  0.00  0.00    +0.117 A 
ATOM     13  C   LIG    1       23.894 -21.473   7.006  0.00  0.00    +0.045 A 
ATOM     14  C   LIG    1       22.614 -21.571   6.480  0.00  0.00    +0.004 A 
ATOM     15  C   LIG    1       22.166 -20.635   5.537  0.00  0.00    +0.004 A 
BRANCH  12  16
ATOM     16  O   LIG    1       25.985 -20.307   7.049  0.00  0.00    -0.507 OA
ATOM     17  H   LIG    1       26.457 -19.674   6.485  0.00  0.00    +0.292 HD
ENDBRANCH  12  16
ENDBRANCH   4  10
ENDBRANCH   1   8
BRANCH   1  18
ATOM     18  C   LIG    1       26.728 -15.314   3.190  0.00  0.00    +0.093 C 
BRANCH  18  19
ATOM     19  C   LIG    1       26.640 -13.873   2.655  0.00  0.00    +0.218 C 
ATOM     20  N   LIG    1       27.613 -12.965   2.991  0.00  0.00    -0.305 N 
ATOM     21  H   LIG    1       27.391 -12.023   2.671  0.00  0.00    +0.149 HD
ATOM     22  O   LIG    1       25.789 -13.502   1.848  0.00  0.00    -0.275 OA
BRANCH  20  23
ATOM     23  C   LIG    1       28.709 -13.141   3.937  0.00  0.00    +0.224 C 
BRANCH  23  24
ATOM     24  C   LIG    1       28.345 -12.689   5.328  0.00  0.00    +0.322 C 
ATOM     25  O   LIG    1       27.434 -13.184   5.994  0.00  0.00    -0.249 OA
BRANCH  24  26
ATOM     26  O   LIG    1       29.198 -11.774   5.835  0.00  0.00    -0.479 OA
ATOM     27  H   LIG    1       28.743 -10.927   6.034  0.00  0.00    +0.295 HD
ENDBRANCH  24  26
ENDBRANCH  23  24
ENDBRANCH  20  23
ENDBRANCH  18  19
BRANCH  18  28
ATOM     28  C   LIG    1       28.148 -15.755   3.625  0.00  0.00    +0.049 C 
BRANCH  28  29
ATOM     29  C   LIG    1       28.307 -17.064   4.362  0.00  0.00    -0.047 A 
ATOM     30  C   LIG    1       27.533 -18.191   4.063  0.00  0.00    +0.003 A 
ATOM     31  C   LIG    1       27.628 -19.355   4.828  0.00  0.00    +0.000 A 
ATOM     32  C   LIG    1       28.536 -19.424   5.880  0.00  0.00    +0.000 A 
ATOM     33  C   LIG    1       29.388 -18.352   6.124  0.00  0.00    +0.000 A 
ATOM     34  C   LIG    1       29.289 -17.190   5.357  0.00  0.00    +0.003 A 
ENDBRANCH  28  29
ENDBRANCH  18  28
ENDBRANCH   1  18
TORSDOF 10
ENDMDL
