MODEL 1
REMARK VINA RESULT:      12.0      0.000      0.000
REMARK  Name = *****
REMARK                            x       y       z     vdW  Elec       q    Type
REMARK                         _______ _______ _______ _____ _____    ______ ____
ROOT
ATOM      1  N   LIG    1       23.810 -20.542   3.160  0.00  0.00    -0.300 N 
ATOM      2  C   LIG    1       24.126 -20.172   4.482  0.00  0.00    +0.231 C 
ATOM      3  O   LIG    1       23.745 -20.722   5.493  0.00  0.00    -0.274 OA
ATOM      4  C   LIG    1       25.095 -18.902   4.357  0.00  0.00    +0.101 C 
ATOM      5  C   LIG    1       25.551 -18.967   2.825  0.00  0.00    +0.031 C 
ATOM      6  C   LIG    1       24.451 -19.753   2.122  0.00  0.00    +0.113 C 
ENDROOT
BRANCH   4   7
ATOM      7  C   LIG    1       24.203 -17.663   4.733  0.00  0.00    -0.028 A 
ATOM      8  C   LIG    1       22.878 -17.780   5.195  0.00  0.00    +0.005 A 
ATOM      9  C   LIG    1       22.092 -16.649   5.480  0.00  0.00    +0.000 A 
ATOM     10  C   LIG    1       22.595 -15.368   5.285  0.00  0.00    +0.000 A 
ATOM     11  C   LIG    1       23.891 -15.216   4.819  0.00  0.00    +0.000 A 
ATOM     12  C   LIG    1       24.666 -16.344   4.533  0.00  0.00    +0.005 A 
ENDBRANCH   4   7
BRANCH   4  13
ATOM     13  C   LIG    1       26.371 -19.110   5.239  0.00  0.00    -0.028 A 
ATOM     14  C   LIG    1       27.556 -18.365   5.026  0.00  0.00    +0.005 A 
ATOM     15  C   LIG    1       28.716 -18.591   5.777  0.00  0.00    +0.000 A 
ATOM     16  C   LIG    1       28.715 -19.544   6.787  0.00  0.00    +0.000 A 
ATOM     17  C   LIG    1       27.547 -20.249   7.062  0.00  0.00    +0.000 A 
ATOM     18  C   LIG    1       26.387 -20.022   6.308  0.00  0.00    +0.005 A 
ENDBRANCH   4  13
BRANCH   1  20
ATOM     19  C   LIG    1       21.541 -21.462   3.530  0.00  0.00    +0.024 C 
ATOM     20  C   LIG    1       22.853 -21.570   2.771  0.00  0.00    +0.104 C 
ENDBRANCH   1  20
BRANCH   5  21
ATOM     21  C   LIG    1       25.921 -17.626   2.126  0.00  0.00    +0.022 C 
BRANCH  21  22
ATOM     22  C   LIG    1       25.916 -16.331   2.995  0.00  0.00    +0.085 C 
BRANCH  22  23
ATOM     23  N   LIG    1       26.930 -15.328   2.641  0.00  0.00    -0.298 NA
ATOM     24  C   LIG    1       26.372 -14.077   2.052  0.00  0.00    +0.112 C 
ATOM     25  C   LIG    1       25.774 -13.068   3.059  0.00  0.00    +0.175 C 
ATOM     26  O   LIG    1       26.677 -12.775   4.132  0.00  0.00    -0.377 OA
ATOM     27  C   LIG    1       27.099 -13.978   4.780  0.00  0.00    +0.175 C 
ATOM     28  C   LIG    1       27.781 -14.927   3.782  0.00  0.00    +0.112 C 
ENDBRANCH  22  23
ENDBRANCH  21  22
ENDBRANCH   5  21
TORSDOF 6
ENDMDL
MODEL 2
REMARK VINA RESULT:      13.9      2.225      5.057
REMARK  Name = *****
REMARK                            x       y       z     vdW  Elec       q    Type
REMARK                         _______ _______ _______ _____ _____    ______ ____
ROOT
ATOM      1  N   LIG    1       23.480 -20.255   6.273  0.00  0.00    -0.300 N 
ATOM      2  C   LIG    1       23.272 -20.159   4.883  0.00  0.00    +0.231 C 
ATOM      3  O   LIG    1       23.302 -21.072   4.087  0.00  0.00    -0.274 OA
ATOM      4  C   LIG    1       22.971 -18.611   4.596  0.00  0.00    +0.101 C 
ATOM      5  C   LIG    1       22.637 -18.049   6.056  0.00  0.00    +0.031 C 
ATOM      6  C   LIG    1       23.323 -19.015   7.014  0.00  0.00    +0.113 C 
ENDROOT
BRANCH   4   7
ATOM      7  C   LIG    1       24.289 -18.047   3.952  0.00  0.00    -0.028 A 
ATOM      8  C   LIG    1       25.524 -18.721   4.008  0.00  0.00    +0.005 A 
ATOM      9  C   LIG    1       26.695 -18.168   3.461  0.00  0.00    +0.000 A 
ATOM     10  C   LIG    1       26.674 -16.911   2.866  0.00  0.00    +0.000 A 
ATOM     11  C   LIG    1       25.479 -16.214   2.805  0.00  0.00    +0.000 A 
ATOM     12  C   LIG    1       24.319 -16.768   3.354  0.00  0.00    +0.005 A 
ENDBRANCH   4   7
BRANCH   4  13
ATOM     13  C   LIG    1       21.677 -18.467   3.727  0.00  0.00    -0.028 A 
ATOM     14  C   LIG    1       20.559 -19.316   3.905  0.00  0.00    +0.005 A 
ATOM     15  C   LIG    1       19.424 -19.225   3.090  0.00  0.00    +0.000 A 
ATOM     16  C   LIG    1       19.359 -18.257   2.096  0.00  0.00    +0.000 A 
ATOM     17  C   LIG    1       20.417 -17.367   1.937  0.00  0.00    +0.000 A 
ATOM     18  C   LIG    1       21.552 -17.461   2.753  0.00  0.00    +0.005 A 
ENDBRANCH   4  13
BRANCH   1  20
ATOM     19  C   LIG    1       25.424 -21.571   7.061  0.00  0.00    +0.024 C 
ATOM     20  C   LIG    1       23.911 -21.451   6.986  0.00  0.00    +0.104 C 
ENDBRANCH   1  20
BRANCH   5  21
ATOM     21  C   LIG    1       22.943 -16.549   6.338  0.00  0.00    +0.022 C 
BRANCH  21  22
ATOM     22  C   LIG    1       22.989 -15.578   5.118  0.00  0.00    +0.085 C 
BRANCH  22  23
ATOM     23  N   LIG    1       23.284 -14.175   5.438  0.00  0.00    -0.298 NA
ATOM     24  C   LIG    1       24.705 -13.918   5.807  0.00  0.00    +0.112 C 
ATOM     25  C   LIG    1       25.701 -13.824   4.627  0.00  0.00    +0.175 C 
ATOM     26  O   LIG    1       25.257 -12.910   3.617  0.00  0.00    -0.377 OA
ATOM     27  C   LIG    1       23.941 -13.250   3.170  0.00  0.00    +0.175 C 
ATOM     28  C   LIG    1       22.946 -13.241   4.342  0.00  0.00    +0.112 C 
ENDBRANCH  22  23
ENDBRANCH  21  22
ENDBRANCH   5  21
TORSDOF 6
ENDMDL
MODEL 3
REMARK VINA RESULT:      14.8      2.380      4.175
REMARK  Name = *****
REMARK                            x       y       z     vdW  Elec       q    Type
REMARK                         _______ _______ _______ _____ _____    ______ ____
ROOT
ATOM      1  N   LIG    1       21.327 -17.968   2.992  0.00  0.00    -0.300 N 
ATOM      2  C   LIG    1       22.582 -18.605   2.959  0.00  0.00    +0.231 C 
ATOM      3  O   LIG    1       22.969 -19.389   2.119  0.00  0.00    -0.274 OA
ATOM      4  C   LIG    1       23.378 -18.062   4.240  0.00  0.00    +0.101 C 
ATOM      5  C   LIG    1       22.525 -16.772   4.652  0.00  0.00    +0.031 C 
ATOM      6  C   LIG    1       21.137 -17.020   4.076  0.00  0.00    +0.113 C 
ENDROOT
BRANCH   4   7
ATOM      7  C   LIG    1       23.343 -19.241   5.279  0.00  0.00    -0.028 A 
ATOM      8  C   LIG    1       24.402 -19.518   6.165  0.00  0.00    +0.005 A 
ATOM      9  C   LIG    1       24.357 -20.608   7.052  0.00  0.00    +0.000 A 
ATOM     10  C   LIG    1       23.267 -21.471   7.062  0.00  0.00    +0.000 A 
ATOM     11  C   LIG    1       22.213 -21.235   6.195  0.00  0.00    +0.000 A 
ATOM     12  C   LIG    1       22.265 -20.152   5.312  0.00  0.00    +0.005 A 
ENDBRANCH   4   7
BRANCH   4  13
ATOM     13  C   LIG    1       24.804 -17.571   3.819  0.00  0.00    -0.028 A 
ATOM     14  C   LIG    1       25.959 -18.359   4.039  0.00  0.00    +0.005 A 
ATOM     15  C   LIG    1       27.240 -17.897   3.715  0.00  0.00    +0.000 A 
ATOM     16  C   LIG    1       27.402 -16.648   3.130  0.00  0.00    +0.000 A 
ATOM     17  C   LIG    1       26.279 -15.876   2.846  0.00  0.00    +0.000 A 
ATOM     18  C   LIG    1       24.997 -16.340   3.171  0.00  0.00    +0.005 A 
ENDBRANCH   4  13
BRANCH   1  20
ATOM     19  C   LIG    1       19.350 -19.401   2.576  0.00  0.00    +0.024 C 
ATOM     20  C   LIG    1       20.211 -18.245   2.096  0.00  0.00    +0.104 C 
ENDBRANCH   1  20
BRANCH   5  21
ATOM     21  C   LIG    1       22.527 -16.356   6.152  0.00  0.00    +0.022 C 
BRANCH  21  22
ATOM     22  C   LIG    1       22.895 -14.879   6.493  0.00  0.00    +0.085 C 
BRANCH  22  23
ATOM     23  N   LIG    1       22.948 -13.960   5.347  0.00  0.00    -0.298 NA
ATOM     24  C   LIG    1       22.827 -12.520   5.713  0.00  0.00    +0.112 C 
ATOM     25  C   LIG    1       24.109 -11.854   6.263  0.00  0.00    +0.175 C 
ATOM     26  O   LIG    1       25.242 -12.078   5.414  0.00  0.00    -0.377 OA
ATOM     27  C   LIG    1       25.432 -13.476   5.182  0.00  0.00    +0.175 C 
ATOM     28  C   LIG    1       24.181 -14.100   4.542  0.00  0.00    +0.112 C 
ENDBRANCH  22  23
ENDBRANCH  21  22
ENDBRANCH   5  21
TORSDOF 6
ENDMDL
