MODEL 1
REMARK VINA RESULT:      -8.6      0.000      0.000
REMARK  Name = *****
REMARK                            x       y       z     vdW  Elec       q    Type
REMARK                         _______ _______ _______ _____ _____    ______ ____
ROOT
ATOM      1  C   LIG    1       24.716 -20.718   6.853  0.00  0.00    -0.047 A 
ATOM      2  C   LIG    1       25.326 -20.493   5.617  0.00  0.00    +0.004 A 
ATOM      3  C   LIG    1       26.703 -20.286   5.530  0.00  0.00    +0.004 A 
ATOM      4  C   LIG    1       27.493 -20.294   6.692  0.00  0.00    -0.047 A 
ATOM      5  C   LIG    1       26.880 -20.498   7.928  0.00  0.00    +0.004 A 
ATOM      6  C   LIG    1       25.503 -20.704   8.016  0.00  0.00    +0.004 A 
ENDROOT
BRANCH   1   7
ATOM      7  C   LIG    1       23.229 -20.934   6.956  0.00  0.00    +0.035 C 
BRANCH   7   8
ATOM      8  C   LIG    1       22.793 -22.109   6.086  0.00  0.00    +0.005 C 
BRANCH   8   9
ATOM      9  C   LIG    1       22.596 -23.382   6.910  0.00  0.00    +0.000 C 
BRANCH   9  10
ATOM     10  C   LIG    1       23.559 -24.497   6.492  0.00  0.00    +0.000 C 
BRANCH  10  11
ATOM     11  C   LIG    1       25.014 -24.159   6.817  0.00  0.00    -0.000 C 
BRANCH  11  12
ATOM     12  C   LIG    1       25.971 -25.230   6.309  0.00  0.00    -0.000 C 
BRANCH  12  14
ATOM     13  C   LIG    1       25.662 -27.342   4.983  0.00  0.00    +0.004 C 
ATOM     14  C   LIG    1       25.456 -25.837   5.006  0.00  0.00    -0.003 C 
ENDBRANCH  12  14
ENDBRANCH  11  12
ENDBRANCH  10  11
ENDBRANCH   9  10
ENDBRANCH   8   9
ENDBRANCH   7   8
ENDBRANCH   1   7
BRANCH   4  15
ATOM     15  C   LIG    1       28.988 -20.118   6.597  0.00  0.00    +0.037 C 
BRANCH  15  16
ATOM     16  C   LIG    1       29.527 -19.307   7.784  0.00  0.00    +0.031 C 
BRANCH  16  17
ATOM     17  C   LIG    1       30.947 -19.713   8.257  0.00  0.00    +0.064 C 
BRANCH  17  18
ATOM     18  N   LIG    1       31.862 -19.667   7.072  0.00  0.00    -0.321 NA
ATOM     19  H   LIG    1       31.793 -18.739   6.646  0.00  0.00    +0.119 HD
ATOM     20  H   LIG    1       32.826 -19.711   7.408  0.00  0.00    +0.119 HD
ENDBRANCH  17  18
BRANCH  17  21
ATOM     21  C   LIG    1       30.970 -21.163   8.801  0.00  0.00    +0.180 C 
BRANCH  21  22
ATOM     22  O   LIG    1       32.178 -21.419   9.517  0.00  0.00    -0.393 OA
ATOM     23  H   LIG    1       32.736 -20.629   9.372  0.00  0.00    +0.209 HD
ENDBRANCH  21  22
ENDBRANCH  17  21
BRANCH  17  24
ATOM     24  C   LIG    1       31.501 -18.731   9.323  0.00  0.00    +0.180 C 
BRANCH  24  25
ATOM     25  O   LIG    1       30.785 -18.864  10.553  0.00  0.00    -0.393 OA
ATOM     26  H   LIG    1       29.920 -19.243  10.315  0.00  0.00    +0.209 HD
ENDBRANCH  24  25
ENDBRANCH  17  24
ENDBRANCH  16  17
ENDBRANCH  15  16
ENDBRANCH   4  15
TORSDOF 15
ENDMDL
MODEL 2
REMARK VINA RESULT:      -8.3      1.021      1.854
REMARK  Name = *****
REMARK                            x       y       z     vdW  Elec       q    Type
REMARK                         _______ _______ _______ _____ _____    ______ ____
ROOT
ATOM      1  C   LIG    1       24.741 -20.666   6.861  0.00  0.00    -0.047 A 
ATOM      2  C   LIG    1       25.461 -20.751   8.054  0.00  0.00    +0.004 A 
ATOM      3  C   LIG    1       26.843 -20.561   8.066  0.00  0.00    +0.004 A 
ATOM      4  C   LIG    1       27.529 -20.287   6.871  0.00  0.00    -0.047 A 
ATOM      5  C   LIG    1       26.811 -20.223   5.676  0.00  0.00    +0.004 A 
ATOM      6  C   LIG    1       25.430 -20.414   5.663  0.00  0.00    +0.004 A 
ENDROOT
BRANCH   1   7
ATOM      7  C   LIG    1       23.250 -20.878   6.837  0.00  0.00    +0.035 C 
BRANCH   7   8
ATOM      8  C   LIG    1       22.895 -22.118   6.021  0.00  0.00    +0.005 C 
BRANCH   8   9
ATOM      9  C   LIG    1       22.670 -23.339   6.914  0.00  0.00    +0.000 C 
BRANCH   9  10
ATOM     10  C   LIG    1       23.552 -24.522   6.509  0.00  0.00    +0.000 C 
BRANCH  10  11
ATOM     11  C   LIG    1       25.042 -24.193   6.596  0.00  0.00    -0.000 C 
BRANCH  11  12
ATOM     12  C   LIG    1       25.908 -25.435   6.429  0.00  0.00    -0.000 C 
BRANCH  12  14
ATOM     13  C   LIG    1       25.603 -27.645   5.273  0.00  0.00    +0.004 C 
ATOM     14  C   LIG    1       25.595 -26.135   5.109  0.00  0.00    -0.003 C 
ENDBRANCH  12  14
ENDBRANCH  11  12
ENDBRANCH  10  11
ENDBRANCH   9  10
ENDBRANCH   8   9
ENDBRANCH   7   8
ENDBRANCH   1   7
BRANCH   4  15
ATOM     15  C   LIG    1       29.015 -20.034   6.888  0.00  0.00    +0.037 C 
BRANCH  15  16
ATOM     16  C   LIG    1       29.402 -19.074   8.022  0.00  0.00    +0.031 C 
BRANCH  16  17
ATOM     17  C   LIG    1       30.781 -19.356   8.672  0.00  0.00    +0.064 C 
BRANCH  17  18
ATOM     18  N   LIG    1       30.745 -18.847  10.080  0.00  0.00    -0.321 NA
ATOM     19  H   LIG    1       31.628 -18.369  10.274  0.00  0.00    +0.119 HD
ATOM     20  H   LIG    1       30.046 -18.104  10.135  0.00  0.00    +0.119 HD
ENDBRANCH  17  18
BRANCH  17  21
ATOM     21  C   LIG    1       31.918 -18.601   7.939  0.00  0.00    +0.180 C 
BRANCH  21  22
ATOM     22  O   LIG    1       32.082 -17.287   8.470  0.00  0.00    -0.393 OA
ATOM     23  H   LIG    1       31.385 -16.748   8.045  0.00  0.00    +0.209 HD
ENDBRANCH  21  22
ENDBRANCH  17  21
BRANCH  17  24
ATOM     24  C   LIG    1       31.091 -20.875   8.724  0.00  0.00    +0.180 C 
BRANCH  24  25
ATOM     25  O   LIG    1       32.324 -21.117   9.407  0.00  0.00    -0.393 OA
ATOM     26  H   LIG    1       32.588 -22.020   9.160  0.00  0.00    +0.209 HD
ENDBRANCH  24  25
ENDBRANCH  17  24
ENDBRANCH  16  17
ENDBRANCH  15  16
ENDBRANCH   4  15
TORSDOF 15
ENDMDL
MODEL 3
REMARK VINA RESULT:      -8.1      2.488      4.095
REMARK  Name = *****
REMARK                            x       y       z     vdW  Elec       q    Type
REMARK                         _______ _______ _______ _____ _____    ______ ____
ROOT
ATOM      1  C   LIG    1       27.021 -20.970   6.606  0.00  0.00    -0.047 A 
ATOM      2  C   LIG    1       27.876 -21.423   7.613  0.00  0.00    +0.004 A 
ATOM      3  C   LIG    1       29.158 -20.890   7.753  0.00  0.00    +0.004 A 
ATOM      4  C   LIG    1       29.607 -19.892   6.872  0.00  0.00    -0.047 A 
ATOM      5  C   LIG    1       28.759 -19.455   5.853  0.00  0.00    +0.004 A 
ATOM      6  C   LIG    1       27.478 -19.988   5.712  0.00  0.00    +0.004 A 
ENDROOT
BRANCH   1   7
ATOM      7  C   LIG    1       25.639 -21.547   6.444  0.00  0.00    +0.035 C 
BRANCH   7   8
ATOM      8  C   LIG    1       24.736 -21.114   7.595  0.00  0.00    +0.005 C 
BRANCH   8   9
ATOM      9  C   LIG    1       23.285 -20.944   7.145  0.00  0.00    +0.000 C 
BRANCH   9  10
ATOM     10  C   LIG    1       23.170 -20.725   5.634  0.00  0.00    +0.000 C 
BRANCH  10  11
ATOM     11  C   LIG    1       22.508 -19.390   5.289  0.00  0.00    -0.000 C 
BRANCH  11  12
ATOM     12  C   LIG    1       22.998 -18.843   3.954  0.00  0.00    -0.000 C 
BRANCH  12  14
ATOM     13  C   LIG    1       25.380 -18.269   3.395  0.00  0.00    +0.004 C 
ATOM     14  C   LIG    1       24.384 -19.393   3.624  0.00  0.00    -0.003 C 
ENDBRANCH  12  14
ENDBRANCH  11  12
ENDBRANCH  10  11
ENDBRANCH   9  10
ENDBRANCH   8   9
ENDBRANCH   7   8
ENDBRANCH   1   7
BRANCH   4  15
ATOM     15  C   LIG    1       30.973 -19.280   7.048  0.00  0.00    +0.037 C 
BRANCH  15  16
ATOM     16  C   LIG    1       30.898 -17.978   7.859  0.00  0.00    +0.031 C 
BRANCH  16  17
ATOM     17  C   LIG    1       31.490 -18.067   9.289  0.00  0.00    +0.064 C 
BRANCH  17  18
ATOM     18  N   LIG    1       32.008 -19.457   9.491  0.00  0.00    -0.321 NA
ATOM     19  H   LIG    1       32.434 -19.775   8.616  0.00  0.00    +0.119 HD
ATOM     20  H   LIG    1       32.793 -19.417  10.144  0.00  0.00    +0.119 HD
ENDBRANCH  17  18
BRANCH  17  21
ATOM     21  C   LIG    1       30.407 -17.818  10.368  0.00  0.00    +0.180 C 
BRANCH  21  22
ATOM     22  O   LIG    1       30.728 -18.500  11.579  0.00  0.00    -0.393 OA
ATOM     23  H   LIG    1       30.749 -19.449  11.343  0.00  0.00    +0.209 HD
ENDBRANCH  21  22
ENDBRANCH  17  21
BRANCH  17  24
ATOM     24  C   LIG    1       32.676 -17.086   9.482  0.00  0.00    +0.180 C 
BRANCH  24  25
ATOM     25  O   LIG    1       32.450 -15.872   8.761  0.00  0.00    -0.393 OA
ATOM     26  H   LIG    1       33.189 -15.799   8.132  0.00  0.00    +0.209 HD
ENDBRANCH  24  25
ENDBRANCH  17  24
ENDBRANCH  16  17
ENDBRANCH  15  16
ENDBRANCH   4  15
TORSDOF 15
ENDMDL
MODEL 4
REMARK VINA RESULT:      -7.6      5.541      8.437
REMARK  Name = *****
REMARK                            x       y       z     vdW  Elec       q    Type
REMARK                         _______ _______ _______ _____ _____    ______ ____
ROOT
ATOM      1  C   LIG    1       24.978 -23.055   7.323  0.00  0.00    -0.047 A 
ATOM      2  C   LIG    1       23.680 -23.451   6.997  0.00  0.00    +0.004 A 
ATOM      3  C   LIG    1       23.438 -24.706   6.437  0.00  0.00    +0.004 A 
ATOM      4  C   LIG    1       24.505 -25.585   6.186  0.00  0.00    -0.047 A 
ATOM      5  C   LIG    1       25.804 -25.179   6.493  0.00  0.00    +0.004 A 
ATOM      6  C   LIG    1       26.047 -23.925   7.052  0.00  0.00    +0.004 A 
ENDROOT
BRANCH   1   7
ATOM      7  C   LIG    1       25.248 -21.699   7.921  0.00  0.00    +0.035 C 
BRANCH   7   8
ATOM      8  C   LIG    1       26.693 -21.278   7.670  0.00  0.00    +0.005 C 
BRANCH   8   9
ATOM      9  C   LIG    1       26.888 -20.736   6.253  0.00  0.00    +0.000 C 
BRANCH   9  10
ATOM     10  C   LIG    1       25.608 -20.110   5.692  0.00  0.00    +0.000 C 
BRANCH  10  11
ATOM     11  C   LIG    1       25.159 -20.775   4.390  0.00  0.00    -0.000 C 
BRANCH  11  12
ATOM     12  C   LIG    1       23.641 -20.844   4.284  0.00  0.00    -0.000 C 
BRANCH  12  14
ATOM     13  C   LIG    1       22.238 -18.809   4.737  0.00  0.00    +0.004 C 
ATOM     14  C   LIG    1       22.986 -19.976   5.356  0.00  0.00    -0.003 C 
ENDBRANCH  12  14
ENDBRANCH  11  12
ENDBRANCH  10  11
ENDBRANCH   9  10
ENDBRANCH   8   9
ENDBRANCH   7   8
ENDBRANCH   1   7
BRANCH   4  15
ATOM     15  C   LIG    1       24.243 -26.959   5.625  0.00  0.00    +0.037 C 
BRANCH  15  16
ATOM     16  C   LIG    1       25.087 -28.023   6.343  0.00  0.00    +0.031 C 
BRANCH  16  17
ATOM     17  C   LIG    1       24.561 -29.475   6.201  0.00  0.00    +0.064 C 
BRANCH  17  18
ATOM     18  N   LIG    1       23.265 -29.428   5.453  0.00  0.00    -0.321 NA
ATOM     19  H   LIG    1       22.634 -28.785   5.938  0.00  0.00    +0.119 HD
ATOM     20  H   LIG    1       23.430 -28.976   4.552  0.00  0.00    +0.119 HD
ENDBRANCH  17  18
BRANCH  17  21
ATOM     21  C   LIG    1       24.273 -30.110   7.584  0.00  0.00    +0.180 C 
BRANCH  21  22
ATOM     22  O   LIG    1       23.572 -31.345   7.440  0.00  0.00    -0.393 OA
ATOM     23  H   LIG    1       22.733 -31.225   7.929  0.00  0.00    +0.209 HD
ENDBRANCH  21  22
ENDBRANCH  17  21
BRANCH  17  24
ATOM     24  C   LIG    1       25.543 -30.365   5.396  0.00  0.00    +0.180 C 
BRANCH  24  25
ATOM     25  O   LIG    1       24.851 -31.454   4.782  0.00  0.00    -0.393 OA
ATOM     26  H   LIG    1       24.835 -31.253   3.830  0.00  0.00    +0.209 HD
ENDBRANCH  24  25
ENDBRANCH  17  24
ENDBRANCH  16  17
ENDBRANCH  15  16
ENDBRANCH   4  15
TORSDOF 15
ENDMDL
MODEL 5
REMARK VINA RESULT:      -7.5      1.760      3.469
REMARK  Name = *****
REMARK                            x       y       z     vdW  Elec       q    Type
REMARK                         _______ _______ _______ _____ _____    ______ ____
ROOT
ATOM      1  C   LIG    1       24.562 -21.851   7.406  0.00  0.00    -0.047 A 
ATOM      2  C   LIG    1       25.395 -22.865   6.930  0.00  0.00    +0.004 A 
ATOM      3  C   LIG    1       26.782 -22.742   7.008  0.00  0.00    +0.004 A 
ATOM      4  C   LIG    1       27.358 -21.587   7.562  0.00  0.00    -0.047 A 
ATOM      5  C   LIG    1       26.525 -20.565   8.019  0.00  0.00    +0.004 A 
ATOM      6  C   LIG    1       25.138 -20.687   7.940  0.00  0.00    +0.004 A 
ENDROOT
BRANCH   1   7
ATOM      7  C   LIG    1       23.063 -21.972   7.318  0.00  0.00    +0.035 C 
BRANCH   7   8
ATOM      8  C   LIG    1       22.555 -21.423   5.989  0.00  0.00    +0.005 C 
BRANCH   8   9
ATOM      9  C   LIG    1       22.632 -19.896   5.939  0.00  0.00    +0.000 C 
BRANCH   9  10
ATOM     10  C   LIG    1       22.061 -19.330   4.636  0.00  0.00    +0.000 C 
BRANCH  10  11
ATOM     11  C   LIG    1       23.137 -18.687   3.761  0.00  0.00    -0.000 C 
BRANCH  11  12
ATOM     12  C   LIG    1       24.236 -19.675   3.396  0.00  0.00    -0.000 C 
BRANCH  12  14
ATOM     13  C   LIG    1       26.415 -19.805   4.641  0.00  0.00    +0.004 C 
ATOM     14  C   LIG    1       25.613 -19.046   3.598  0.00  0.00    -0.003 C 
ENDBRANCH  12  14
ENDBRANCH  11  12
ENDBRANCH  10  11
ENDBRANCH   9  10
ENDBRANCH   8   9
ENDBRANCH   7   8
ENDBRANCH   1   7
BRANCH   4  15
ATOM     15  C   LIG    1       28.856 -21.471   7.691  0.00  0.00    +0.037 C 
BRANCH  15  16
ATOM     16  C   LIG    1       29.291 -20.003   7.812  0.00  0.00    +0.031 C 
BRANCH  16  17
ATOM     17  C   LIG    1       30.691 -19.789   8.443  0.00  0.00    +0.064 C 
BRANCH  17  18
ATOM     18  N   LIG    1       31.698 -19.750   7.336  0.00  0.00    -0.321 NA
ATOM     19  H   LIG    1       32.531 -20.263   7.638  0.00  0.00    +0.119 HD
ATOM     20  H   LIG    1       31.340 -20.302   6.555  0.00  0.00    +0.119 HD
ENDBRANCH  17  18
BRANCH  17  21
ATOM     21  C   LIG    1       31.077 -20.963   9.377  0.00  0.00    +0.180 C 
BRANCH  21  22
ATOM     22  O   LIG    1       32.480 -21.216   9.322  0.00  0.00    -0.393 OA
ATOM     23  H   LIG    1       32.845 -20.827  10.142  0.00  0.00    +0.209 HD
ENDBRANCH  21  22
ENDBRANCH  17  21
BRANCH  17  24
ATOM     24  C   LIG    1       30.775 -18.443   9.209  0.00  0.00    +0.180 C 
BRANCH  24  25
ATOM     25  O   LIG    1       31.959 -18.390  10.009  0.00  0.00    -0.393 OA
ATOM     26  H   LIG    1       31.957 -17.509  10.424  0.00  0.00    +0.209 HD
ENDBRANCH  24  25
ENDBRANCH  17  24
ENDBRANCH  16  17
ENDBRANCH  15  16
ENDBRANCH   4  15
TORSDOF 15
ENDMDL
MODEL 6
REMARK VINA RESULT:      -7.5      4.040      7.868
REMARK  Name = *****
REMARK                            x       y       z     vdW  Elec       q    Type
REMARK                         _______ _______ _______ _____ _____    ______ ____
ROOT
ATOM      1  C   LIG    1       25.153 -22.141   7.731  0.00  0.00    -0.047 A 
ATOM      2  C   LIG    1       23.852 -22.308   7.253  0.00  0.00    +0.004 A 
ATOM      3  C   LIG    1       23.498 -23.451   6.535  0.00  0.00    +0.004 A 
ATOM      4  C   LIG    1       24.455 -24.446   6.277  0.00  0.00    -0.047 A 
ATOM      5  C   LIG    1       25.760 -24.269   6.737  0.00  0.00    +0.004 A 
ATOM      6  C   LIG    1       26.114 -23.126   7.454  0.00  0.00    +0.004 A 
ENDROOT
BRANCH   1   7
ATOM      7  C   LIG    1       25.545 -20.906   8.501  0.00  0.00    +0.035 C 
BRANCH   7   8
ATOM      8  C   LIG    1       27.037 -20.628   8.348  0.00  0.00    +0.005 C 
BRANCH   8   9
ATOM      9  C   LIG    1       27.376 -20.107   6.951  0.00  0.00    +0.000 C 
BRANCH   9  10
ATOM     10  C   LIG    1       28.738 -20.607   6.462  0.00  0.00    +0.000 C 
BRANCH  10  11
ATOM     11  C   LIG    1       29.877 -19.663   6.848  0.00  0.00    -0.000 C 
BRANCH  11  12
ATOM     12  C   LIG    1       30.736 -20.238   7.967  0.00  0.00    -0.000 C 
BRANCH  12  14
ATOM     13  C   LIG    1       30.230 -17.914   8.776  0.00  0.00    +0.004 C 
ATOM     14  C   LIG    1       31.065 -19.162   9.000  0.00  0.00    -0.003 C 
ENDBRANCH  12  14
ENDBRANCH  11  12
ENDBRANCH  10  11
ENDBRANCH   9  10
ENDBRANCH   8   9
ENDBRANCH   7   8
ENDBRANCH   1   7
BRANCH   4  15
ATOM     15  C   LIG    1       24.065 -25.704   5.542  0.00  0.00    +0.037 C 
BRANCH  15  16
ATOM     16  C   LIG    1       24.130 -26.929   6.466  0.00  0.00    +0.031 C 
BRANCH  16  17
ATOM     17  C   LIG    1       25.275 -27.925   6.146  0.00  0.00    +0.064 C 
BRANCH  17  18
ATOM     18  N   LIG    1       26.178 -27.994   7.338  0.00  0.00    -0.321 NA
ATOM     19  H   LIG    1       26.891 -27.265   7.247  0.00  0.00    +0.119 HD
ATOM     20  H   LIG    1       25.645 -27.711   8.163  0.00  0.00    +0.119 HD
ENDBRANCH  17  18
BRANCH  17  21
ATOM     21  C   LIG    1       26.129 -27.440   4.948  0.00  0.00    +0.180 C 
BRANCH  21  22
ATOM     22  O   LIG    1       27.435 -27.054   5.377  0.00  0.00    -0.393 OA
ATOM     23  H   LIG    1       27.501 -27.357   6.305  0.00  0.00    +0.209 HD
ENDBRANCH  21  22
ENDBRANCH  17  21
BRANCH  17  24
ATOM     24  C   LIG    1       24.735 -29.354   5.876  0.00  0.00    +0.180 C 
BRANCH  24  25
ATOM     25  O   LIG    1       23.349 -29.314   5.532  0.00  0.00    -0.393 OA
ATOM     26  H   LIG    1       23.313 -28.960   4.626  0.00  0.00    +0.209 HD
ENDBRANCH  24  25
ENDBRANCH  17  24
ENDBRANCH  16  17
ENDBRANCH  15  16
ENDBRANCH   4  15
TORSDOF 15
ENDMDL
MODEL 7
REMARK VINA RESULT:      -7.4      2.104      3.269
REMARK  Name = *****
REMARK                            x       y       z     vdW  Elec       q    Type
REMARK                         _______ _______ _______ _____ _____    ______ ____
ROOT
ATOM      1  C   LIG    1       27.550 -19.818   5.753  0.00  0.00    -0.047 A 
ATOM      2  C   LIG    1       28.534 -18.895   5.391  0.00  0.00    +0.004 A 
ATOM      3  C   LIG    1       29.690 -18.749   6.158  0.00  0.00    +0.004 A 
ATOM      4  C   LIG    1       29.873 -19.527   7.313  0.00  0.00    -0.047 A 
ATOM      5  C   LIG    1       28.880 -20.434   7.686  0.00  0.00    +0.004 A 
ATOM      6  C   LIG    1       27.724 -20.579   6.920  0.00  0.00    +0.004 A 
ENDROOT
BRANCH   1   7
ATOM      7  C   LIG    1       26.295 -19.976   4.935  0.00  0.00    +0.035 C 
BRANCH   7   8
ATOM      8  C   LIG    1       25.368 -21.011   5.565  0.00  0.00    +0.005 C 
BRANCH   8   9
ATOM      9  C   LIG    1       23.976 -20.437   5.832  0.00  0.00    +0.000 C 
BRANCH   9  10
ATOM     10  C   LIG    1       23.229 -21.212   6.921  0.00  0.00    +0.000 C 
BRANCH  10  11
ATOM     11  C   LIG    1       23.892 -22.554   7.236  0.00  0.00    -0.000 C 
BRANCH  11  12
ATOM     12  C   LIG    1       23.072 -23.727   6.715  0.00  0.00    -0.000 C 
BRANCH  12  14
ATOM     13  C   LIG    1       25.436 -24.579   6.653  0.00  0.00    +0.004 C 
ATOM     14  C   LIG    1       23.978 -24.912   6.387  0.00  0.00    -0.003 C 
ENDBRANCH  12  14
ENDBRANCH  11  12
ENDBRANCH  10  11
ENDBRANCH   9  10
ENDBRANCH   8   9
ENDBRANCH   7   8
ENDBRANCH   1   7
BRANCH   4  15
ATOM     15  C   LIG    1       31.142 -19.406   8.118  0.00  0.00    +0.037 C 
BRANCH  15  16
ATOM     16  C   LIG    1       30.845 -18.963   9.559  0.00  0.00    +0.031 C 
BRANCH  16  17
ATOM     17  C   LIG    1       31.222 -17.493   9.878  0.00  0.00    +0.064 C 
BRANCH  17  18
ATOM     18  N   LIG    1       30.032 -16.634   9.581  0.00  0.00    -0.321 NA
ATOM     19  H   LIG    1       29.272 -17.235   9.255  0.00  0.00    +0.119 HD
ATOM     20  H   LIG    1       29.682 -16.253  10.463  0.00  0.00    +0.119 HD
ENDBRANCH  17  18
BRANCH  17  21
ATOM     21  C   LIG    1       32.383 -16.998   8.980  0.00  0.00    +0.180 C 
BRANCH  21  22
ATOM     22  O   LIG    1       32.648 -15.614   9.207  0.00  0.00    -0.393 OA
ATOM     23  H   LIG    1       33.609 -15.561   9.381  0.00  0.00    +0.209 HD
ENDBRANCH  21  22
ENDBRANCH  17  21
BRANCH  17  24
ATOM     24  C   LIG    1       31.583 -17.304  11.375  0.00  0.00    +0.180 C 
BRANCH  24  25
ATOM     25  O   LIG    1       31.021 -16.092  11.881  0.00  0.00    -0.393 OA
ATOM     26  H   LIG    1       30.107 -16.066  11.547  0.00  0.00    +0.209 HD
ENDBRANCH  24  25
ENDBRANCH  17  24
ENDBRANCH  16  17
ENDBRANCH  15  16
ENDBRANCH   4  15
TORSDOF 15
ENDMDL
MODEL 8
REMARK VINA RESULT:      -7.4      1.749      3.569
REMARK  Name = *****
REMARK                            x       y       z     vdW  Elec       q    Type
REMARK                         _______ _______ _______ _____ _____    ______ ____
ROOT
ATOM      1  C   LIG    1       26.721 -21.661   7.465  0.00  0.00    -0.047 A 
ATOM      2  C   LIG    1       28.007 -21.781   7.994  0.00  0.00    +0.004 A 
ATOM      3  C   LIG    1       29.029 -20.925   7.583  0.00  0.00    +0.004 A 
ATOM      4  C   LIG    1       28.775 -19.934   6.620  0.00  0.00    -0.047 A 
ATOM      5  C   LIG    1       27.495 -19.829   6.076  0.00  0.00    +0.004 A 
ATOM      6  C   LIG    1       26.473 -20.684   6.486  0.00  0.00    +0.004 A 
ENDROOT
BRANCH   1   7
ATOM      7  C   LIG    1       25.613 -22.586   7.898  0.00  0.00    +0.035 C 
BRANCH   7   8
ATOM      8  C   LIG    1       25.450 -23.732   6.905  0.00  0.00    +0.005 C 
BRANCH   8   9
ATOM      9  C   LIG    1       24.012 -23.841   6.396  0.00  0.00    +0.000 C 
BRANCH   9  10
ATOM     10  C   LIG    1       23.119 -22.726   6.944  0.00  0.00    +0.000 C 
BRANCH  10  11
ATOM     11  C   LIG    1       22.591 -21.809   5.840  0.00  0.00    -0.000 C 
BRANCH  11  12
ATOM     12  C   LIG    1       22.990 -20.357   6.070  0.00  0.00    -0.000 C 
BRANCH  12  14
ATOM     13  C   LIG    1       22.228 -18.596   4.447  0.00  0.00    +0.004 C 
ATOM     14  C   LIG    1       23.271 -19.660   4.740  0.00  0.00    -0.003 C 
ENDBRANCH  12  14
ENDBRANCH  11  12
ENDBRANCH  10  11
ENDBRANCH   9  10
ENDBRANCH   8   9
ENDBRANCH   7   8
ENDBRANCH   1   7
BRANCH   4  15
ATOM     15  C   LIG    1       29.865 -18.977   6.207  0.00  0.00    +0.037 C 
BRANCH  15  16
ATOM     16  C   LIG    1       31.142 -19.202   7.031  0.00  0.00    +0.031 C 
BRANCH  16  17
ATOM     17  C   LIG    1       31.212 -18.398   8.354  0.00  0.00    +0.064 C 
BRANCH  17  18
ATOM     18  N   LIG    1       32.331 -17.409   8.238  0.00  0.00    -0.321 NA
ATOM     19  H   LIG    1       33.079 -17.690   8.878  0.00  0.00    +0.119 HD
ATOM     20  H   LIG    1       32.753 -17.507   7.312  0.00  0.00    +0.119 HD
ENDBRANCH  17  18
BRANCH  17  21
ATOM     21  C   LIG    1       31.532 -19.316   9.560  0.00  0.00    +0.180 C 
BRANCH  21  22
ATOM     22  O   LIG    1       30.797 -18.913  10.715  0.00  0.00    -0.393 OA
ATOM     23  H   LIG    1       30.149 -19.630  10.871  0.00  0.00    +0.209 HD
ENDBRANCH  21  22
ENDBRANCH  17  21
BRANCH  17  24
ATOM     24  C   LIG    1       29.905 -17.605   8.615  0.00  0.00    +0.180 C 
BRANCH  24  25
ATOM     25  O   LIG    1       30.128 -16.558   9.562  0.00  0.00    -0.393 OA
ATOM     26  H   LIG    1       30.912 -16.077   9.242  0.00  0.00    +0.209 HD
ENDBRANCH  24  25
ENDBRANCH  17  24
ENDBRANCH  16  17
ENDBRANCH  15  16
ENDBRANCH   4  15
TORSDOF 15
ENDMDL
MODEL 9
REMARK VINA RESULT:      -7.4      2.922      4.344
REMARK  Name = *****
REMARK                            x       y       z     vdW  Elec       q    Type
REMARK                         _______ _______ _______ _____ _____    ______ ____
ROOT
ATOM      1  C   LIG    1       27.789 -19.924   6.294  0.00  0.00    -0.047 A 
ATOM      2  C   LIG    1       28.666 -19.111   5.575  0.00  0.00    +0.004 A 
ATOM      3  C   LIG    1       29.874 -18.695   6.135  0.00  0.00    +0.004 A 
ATOM      4  C   LIG    1       30.217 -19.086   7.441  0.00  0.00    -0.047 A 
ATOM      5  C   LIG    1       29.330 -19.881   8.167  0.00  0.00    +0.004 A 
ATOM      6  C   LIG    1       28.122 -20.296   7.607  0.00  0.00    +0.004 A 
ENDROOT
BRANCH   1   7
ATOM      7  C   LIG    1       26.479 -20.371   5.699  0.00  0.00    +0.035 C 
BRANCH   7   8
ATOM      8  C   LIG    1       25.778 -21.364   6.622  0.00  0.00    +0.005 C 
BRANCH   8   9
ATOM      9  C   LIG    1       24.685 -20.691   7.452  0.00  0.00    +0.000 C 
BRANCH   9  10
ATOM     10  C   LIG    1       23.284 -21.162   7.055  0.00  0.00    +0.000 C 
BRANCH  10  11
ATOM     11  C   LIG    1       23.002 -20.958   5.566  0.00  0.00    -0.000 C 
BRANCH  11  12
ATOM     12  C   LIG    1       22.534 -19.539   5.268  0.00  0.00    -0.000 C 
BRANCH  12  14
ATOM     13  C   LIG    1       24.077 -20.057   3.354  0.00  0.00    +0.004 C 
ATOM     14  C   LIG    1       23.253 -18.982   4.041  0.00  0.00    -0.003 C 
ENDBRANCH  12  14
ENDBRANCH  11  12
ENDBRANCH  10  11
ENDBRANCH   9  10
ENDBRANCH   8   9
ENDBRANCH   7   8
ENDBRANCH   1   7
BRANCH   4  15
ATOM     15  C   LIG    1       31.542 -18.677   8.033  0.00  0.00    +0.037 C 
BRANCH  15  16
ATOM     16  C   LIG    1       31.455 -18.564   9.562  0.00  0.00    +0.031 C 
BRANCH  16  17
ATOM     17  C   LIG    1       31.565 -17.119  10.114  0.00  0.00    +0.064 C 
BRANCH  17  18
ATOM     18  N   LIG    1       30.298 -16.395   9.775  0.00  0.00    -0.321 NA
ATOM     19  H   LIG    1       29.665 -17.051   9.310  0.00  0.00    +0.119 HD
ATOM     20  H   LIG    1       29.816 -16.165  10.646  0.00  0.00    +0.119 HD
ENDBRANCH  17  18
BRANCH  17  21
ATOM     21  C   LIG    1       32.730 -16.345   9.449  0.00  0.00    +0.180 C 
BRANCH  21  22
ATOM     22  O   LIG    1       32.694 -14.964   9.808  0.00  0.00    -0.393 OA
ATOM     23  H   LIG    1       31.938 -14.877  10.423  0.00  0.00    +0.209 HD
ENDBRANCH  21  22
ENDBRANCH  17  21
BRANCH  17  24
ATOM     24  C   LIG    1       31.721 -17.104  11.657  0.00  0.00    +0.180 C 
BRANCH  24  25
ATOM     25  O   LIG    1       31.266 -15.862  12.200  0.00  0.00    -0.393 OA
ATOM     26  H   LIG    1       30.441 -15.655  11.726  0.00  0.00    +0.209 HD
ENDBRANCH  24  25
ENDBRANCH  17  24
ENDBRANCH  16  17
ENDBRANCH  15  16
ENDBRANCH   4  15
TORSDOF 15
ENDMDL
