MODEL 1
REMARK VINA RESULT:      -8.4      0.000      0.000
REMARK  Name = *****
REMARK                            x       y       z     vdW  Elec       q    Type
REMARK                         _______ _______ _______ _____ _____    ______ ____
ROOT
ATOM      1  N   LIG    1       25.806 -21.324   6.024  0.00  0.00    -0.298 N 
ATOM      2  C   LIG    1       25.153 -20.404   5.173  0.00  0.00    +0.048 A 
ATOM      3  C   LIG    1       23.762 -20.457   4.964  0.00  0.00    +0.034 A 
ATOM      4  C   LIG    1       23.134 -19.509   4.141  0.00  0.00    +0.017 A 
ATOM      5  C   LIG    1       23.882 -18.529   3.491  0.00  0.00    +0.001 A 
ATOM      6  C   LIG    1       25.261 -18.494   3.649  0.00  0.00    +0.002 A 
ATOM      7  S   LIG    1       22.723 -21.670   5.764  0.00  0.00    -0.086 S 
ATOM      8  C   LIG    1       23.927 -22.908   6.223  0.00  0.00    +0.034 A 
ATOM      9  C   LIG    1       23.455 -24.198   6.515  0.00  0.00    +0.017 A 
ATOM     10  C   LIG    1       24.343 -25.218   6.854  0.00  0.00    +0.001 A 
ATOM     11  C   LIG    1       25.706 -24.958   6.901  0.00  0.00    +0.002 A 
ATOM     12  C   LIG    1       26.178 -23.669   6.638  0.00  0.00    +0.024 A 
ATOM     13  C   LIG    1       25.891 -19.425   4.479  0.00  0.00    +0.024 A 
ATOM     14  C   LIG    1       25.299 -22.615   6.320  0.00  0.00    +0.048 A 
ENDROOT
BRANCH   1  15
ATOM     15  C   LIG    1       26.790 -20.781   6.998  0.00  0.00    +0.116 C 
BRANCH  15  19
ATOM     16  C   LIG    1       30.373 -18.222   8.015  0.00  0.00    +0.105 C 
ATOM     17  N   LIG    1       29.443 -19.333   7.871  0.00  0.00    -0.305 NA
ATOM     18  C   LIG    1       28.934 -19.447   6.503  0.00  0.00    +0.089 C 
ATOM     19  C   LIG    1       28.260 -20.816   6.513  0.00  0.00    +0.022 C 
ATOM     20  C   LIG    1       29.135 -21.633   7.480  0.00  0.00    +0.021 C 
ATOM     21  C   LIG    1       30.057 -20.625   8.161  0.00  0.00    +0.084 C 
ENDBRANCH  15  19
ENDBRANCH   1  15
TORSDOF 2
ENDMDL
MODEL 2
REMARK VINA RESULT:      -8.4      1.803      5.212
REMARK  Name = *****
REMARK                            x       y       z     vdW  Elec       q    Type
REMARK                         _______ _______ _______ _____ _____    ______ ____
ROOT
ATOM      1  N   LIG    1       25.530 -21.323   6.582  0.00  0.00    -0.298 N 
ATOM      2  C   LIG    1       24.517 -20.678   5.837  0.00  0.00    +0.048 A 
ATOM      3  C   LIG    1       24.825 -19.853   4.739  0.00  0.00    +0.034 A 
ATOM      4  C   LIG    1       23.797 -19.253   3.993  0.00  0.00    +0.017 A 
ATOM      5  C   LIG    1       22.463 -19.435   4.354  0.00  0.00    +0.001 A 
ATOM      6  C   LIG    1       22.147 -20.206   5.464  0.00  0.00    +0.002 A 
ATOM      7  S   LIG    1       26.505 -19.574   4.198  0.00  0.00    -0.086 S 
ATOM      8  C   LIG    1       27.421 -20.036   5.661  0.00  0.00    +0.034 A 
ATOM      9  C   LIG    1       28.743 -19.576   5.773  0.00  0.00    +0.017 A 
ATOM     10  C   LIG    1       29.505 -19.878   6.901  0.00  0.00    +0.001 A 
ATOM     11  C   LIG    1       28.952 -20.635   7.924  0.00  0.00    +0.002 A 
ATOM     12  C   LIG    1       27.645 -21.117   7.806  0.00  0.00    +0.024 A 
ATOM     13  C   LIG    1       23.164 -20.818   6.200  0.00  0.00    +0.024 A 
ATOM     14  C   LIG    1       26.864 -20.850   6.664  0.00  0.00    +0.048 A 
ENDROOT
BRANCH   1  15
ATOM     15  C   LIG    1       25.336 -22.761   6.905  0.00  0.00    +0.116 C 
BRANCH  15  19
ATOM     16  C   LIG    1       25.843 -26.750   4.845  0.00  0.00    +0.105 C 
ATOM     17  N   LIG    1       25.369 -25.661   5.686  0.00  0.00    -0.305 NA
ATOM     18  C   LIG    1       25.227 -24.412   4.935  0.00  0.00    +0.089 C 
ATOM     19  C   LIG    1       24.443 -23.530   5.901  0.00  0.00    +0.022 C 
ATOM     20  C   LIG    1       23.534 -24.533   6.635  0.00  0.00    +0.021 C 
ATOM     21  C   LIG    1       24.047 -25.918   6.253  0.00  0.00    +0.084 C 
ENDBRANCH  15  19
ENDBRANCH   1  15
TORSDOF 2
ENDMDL
MODEL 3
REMARK VINA RESULT:      -7.2      1.098      1.424
REMARK  Name = *****
REMARK                            x       y       z     vdW  Elec       q    Type
REMARK                         _______ _______ _______ _____ _____    ______ ____
ROOT
ATOM      1  N   LIG    1       25.345 -21.594   5.347  0.00  0.00    -0.298 N 
ATOM      2  C   LIG    1       24.450 -20.579   4.939  0.00  0.00    +0.048 A 
ATOM      3  C   LIG    1       23.115 -20.553   5.388  0.00  0.00    +0.034 A 
ATOM      4  C   LIG    1       22.257 -19.513   4.997  0.00  0.00    +0.017 A 
ATOM      5  C   LIG    1       22.702 -18.517   4.130  0.00  0.00    +0.001 A 
ATOM      6  C   LIG    1       24.001 -18.557   3.640  0.00  0.00    +0.002 A 
ATOM      7  S   LIG    1       22.462 -21.782   6.510  0.00  0.00    -0.086 S 
ATOM      8  C   LIG    1       23.645 -23.105   6.300  0.00  0.00    +0.034 A 
ATOM      9  C   LIG    1       23.259 -24.393   6.706  0.00  0.00    +0.017 A 
ATOM     10  C   LIG    1       24.123 -25.476   6.546  0.00  0.00    +0.001 A 
ATOM     11  C   LIG    1       25.374 -25.281   5.977  0.00  0.00    +0.002 A 
ATOM     12  C   LIG    1       25.773 -23.997   5.595  0.00  0.00    +0.024 A 
ATOM     13  C   LIG    1       24.865 -19.580   4.038  0.00  0.00    +0.024 A 
ATOM     14  C   LIG    1       24.929 -22.882   5.772  0.00  0.00    +0.048 A 
ENDROOT
BRANCH   1  15
ATOM     15  C   LIG    1       26.702 -21.177   5.788  0.00  0.00    +0.116 C 
BRANCH  15  19
ATOM     16  C   LIG    1       30.410 -20.534   8.289  0.00  0.00    +0.105 C 
ATOM     17  N   LIG    1       29.061 -20.469   7.745  0.00  0.00    -0.305 NA
ATOM     18  C   LIG    1       28.496 -21.801   7.524  0.00  0.00    +0.089 C 
ATOM     19  C   LIG    1       27.023 -21.500   7.268  0.00  0.00    +0.022 C 
ATOM     20  C   LIG    1       26.753 -20.277   8.164  0.00  0.00    +0.021 C 
ATOM     21  C   LIG    1       28.122 -19.799   8.640  0.00  0.00    +0.084 C 
ENDBRANCH  15  19
ENDBRANCH   1  15
TORSDOF 2
ENDMDL
MODEL 4
REMARK VINA RESULT:      -6.3      1.724      4.358
REMARK  Name = *****
REMARK                            x       y       z     vdW  Elec       q    Type
REMARK                         _______ _______ _______ _____ _____    ______ ____
ROOT
ATOM      1  N   LIG    1       25.255 -22.699   6.974  0.00  0.00    -0.298 N 
ATOM      2  C   LIG    1       25.369 -24.008   6.454  0.00  0.00    +0.048 A 
ATOM      3  C   LIG    1       25.035 -24.299   5.118  0.00  0.00    +0.034 A 
ATOM      4  C   LIG    1       25.192 -25.602   4.617  0.00  0.00    +0.017 A 
ATOM      5  C   LIG    1       25.643 -26.628   5.445  0.00  0.00    +0.001 A 
ATOM      6  C   LIG    1       25.930 -26.366   6.777  0.00  0.00    +0.002 A 
ATOM      7  S   LIG    1       24.460 -23.044   3.983  0.00  0.00    -0.086 S 
ATOM      8  C   LIG    1       23.922 -21.773   5.118  0.00  0.00    +0.034 A 
ATOM      9  C   LIG    1       23.041 -20.794   4.628  0.00  0.00    +0.017 A 
ATOM     10  C   LIG    1       22.562 -19.789   5.467  0.00  0.00    +0.001 A 
ATOM     11  C   LIG    1       22.954 -19.756   6.798  0.00  0.00    +0.002 A 
ATOM     12  C   LIG    1       23.851 -20.712   7.283  0.00  0.00    +0.024 A 
ATOM     13  C   LIG    1       25.791 -25.069   7.278  0.00  0.00    +0.024 A 
ATOM     14  C   LIG    1       24.372 -21.721   6.449  0.00  0.00    +0.048 A 
ENDROOT
BRANCH   1  15
ATOM     15  C   LIG    1       26.395 -22.174   7.773  0.00  0.00    +0.116 C 
BRANCH  15  19
ATOM     16  C   LIG    1       30.321 -19.961   8.089  0.00  0.00    +0.105 C 
ATOM     17  N   LIG    1       29.117 -20.608   7.589  0.00  0.00    -0.305 NA
ATOM     18  C   LIG    1       27.921 -20.176   8.316  0.00  0.00    +0.089 C 
ATOM     19  C   LIG    1       26.790 -20.714   7.445  0.00  0.00    +0.022 C 
ATOM     20  C   LIG    1       27.363 -20.610   6.020  0.00  0.00    +0.021 C 
ATOM     21  C   LIG    1       28.846 -20.296   6.188  0.00  0.00    +0.084 C 
ENDBRANCH  15  19
ENDBRANCH   1  15
TORSDOF 2
ENDMDL
MODEL 5
REMARK VINA RESULT:      -6.1      6.527     10.134
REMARK  Name = *****
REMARK                            x       y       z     vdW  Elec       q    Type
REMARK                         _______ _______ _______ _____ _____    ______ ____
ROOT
ATOM      1  N   LIG    1       24.756 -30.557   7.136  0.00  0.00    -0.298 N 
ATOM      2  C   LIG    1       24.568 -30.663   8.533  0.00  0.00    +0.048 A 
ATOM      3  C   LIG    1       25.530 -31.273   9.360  0.00  0.00    +0.034 A 
ATOM      4  C   LIG    1       25.335 -31.333  10.749  0.00  0.00    +0.017 A 
ATOM      5  C   LIG    1       24.170 -30.825  11.322  0.00  0.00    +0.001 A 
ATOM      6  C   LIG    1       23.190 -30.264  10.514  0.00  0.00    +0.002 A 
ATOM      7  S   LIG    1       27.057 -31.939   8.714  0.00  0.00    -0.086 S 
ATOM      8  C   LIG    1       26.646 -32.133   6.986  0.00  0.00    +0.034 A 
ATOM      9  C   LIG    1       27.443 -33.000   6.220  0.00  0.00    +0.017 A 
ATOM     10  C   LIG    1       27.162 -33.217   4.872  0.00  0.00    +0.001 A 
ATOM     11  C   LIG    1       26.083 -32.575   4.281  0.00  0.00    +0.002 A 
ATOM     12  C   LIG    1       25.302 -31.691   5.032  0.00  0.00    +0.024 A 
ATOM     13  C   LIG    1       23.386 -30.187   9.133  0.00  0.00    +0.024 A 
ATOM     14  C   LIG    1       25.583 -31.433   6.388  0.00  0.00    +0.048 A 
ENDROOT
BRANCH   1  15
ATOM     15  C   LIG    1       24.470 -29.242   6.502  0.00  0.00    +0.116 C 
BRANCH  15  19
ATOM     16  C   LIG    1       24.966 -25.117   4.727  0.00  0.00    +0.105 C 
ATOM     17  N   LIG    1       24.954 -26.259   5.629  0.00  0.00    -0.305 NA
ATOM     18  C   LIG    1       25.561 -27.444   5.020  0.00  0.00    +0.089 C 
ATOM     19  C   LIG    1       25.725 -28.384   6.210  0.00  0.00    +0.022 C 
ATOM     20  C   LIG    1       26.013 -27.424   7.379  0.00  0.00    +0.021 C 
ATOM     21  C   LIG    1       25.720 -26.023   6.850  0.00  0.00    +0.084 C 
ENDBRANCH  15  19
ENDBRANCH   1  15
TORSDOF 2
ENDMDL
MODEL 6
REMARK VINA RESULT:      -6.0      6.043      9.596
REMARK  Name = *****
REMARK                            x       y       z     vdW  Elec       q    Type
REMARK                         _______ _______ _______ _____ _____    ______ ____
ROOT
ATOM      1  N   LIG    1       25.421 -29.752   7.258  0.00  0.00    -0.298 N 
ATOM      2  C   LIG    1       25.523 -30.944   6.506  0.00  0.00    +0.048 A 
ATOM      3  C   LIG    1       25.574 -32.205   7.131  0.00  0.00    +0.034 A 
ATOM      4  C   LIG    1       25.639 -33.376   6.358  0.00  0.00    +0.017 A 
ATOM      5  C   LIG    1       25.693 -33.303   4.967  0.00  0.00    +0.001 A 
ATOM      6  C   LIG    1       25.693 -32.065   4.339  0.00  0.00    +0.002 A 
ATOM      7  S   LIG    1       25.498 -32.393   8.906  0.00  0.00    -0.086 S 
ATOM      8  C   LIG    1       25.955 -30.753   9.447  0.00  0.00    +0.034 A 
ATOM      9  C   LIG    1       26.400 -30.606  10.772  0.00  0.00    +0.017 A 
ATOM     10  C   LIG    1       26.797 -29.358  11.251  0.00  0.00    +0.001 A 
ATOM     11  C   LIG    1       26.758 -28.253  10.413  0.00  0.00    +0.002 A 
ATOM     12  C   LIG    1       26.292 -28.390   9.102  0.00  0.00    +0.024 A 
ATOM     13  C   LIG    1       25.612 -30.897   5.102  0.00  0.00    +0.024 A 
ATOM     14  C   LIG    1       25.858 -29.634   8.602  0.00  0.00    +0.048 A 
ENDROOT
BRANCH   1  15
ATOM     15  C   LIG    1       24.424 -28.742   6.814  0.00  0.00    +0.116 C 
BRANCH  15  19
ATOM     16  C   LIG    1       24.297 -24.252   6.326  0.00  0.00    +0.105 C 
ATOM     17  N   LIG    1       24.739 -25.629   6.495  0.00  0.00    -0.305 NA
ATOM     18  C   LIG    1       24.094 -26.532   5.540  0.00  0.00    +0.089 C 
ATOM     19  C   LIG    1       24.916 -27.809   5.682  0.00  0.00    +0.022 C 
ATOM     20  C   LIG    1       26.332 -27.285   5.983  0.00  0.00    +0.021 C 
ATOM     21  C   LIG    1       26.173 -25.794   6.269  0.00  0.00    +0.084 C 
ENDBRANCH  15  19
ENDBRANCH   1  15
TORSDOF 2
ENDMDL
MODEL 7
REMARK VINA RESULT:      -5.7      6.844      9.133
REMARK  Name = *****
REMARK                            x       y       z     vdW  Elec       q    Type
REMARK                         _______ _______ _______ _____ _____    ______ ____
ROOT
ATOM      1  N   LIG    1       25.930 -29.659   8.545  0.00  0.00    -0.298 N 
ATOM      2  C   LIG    1       25.519 -28.722   7.570  0.00  0.00    +0.048 A 
ATOM      3  C   LIG    1       24.696 -29.097   6.492  0.00  0.00    +0.034 A 
ATOM      4  C   LIG    1       24.273 -28.139   5.557  0.00  0.00    +0.017 A 
ATOM      5  C   LIG    1       24.693 -26.814   5.662  0.00  0.00    +0.001 A 
ATOM      6  C   LIG    1       25.545 -26.439   6.693  0.00  0.00    +0.002 A 
ATOM      7  S   LIG    1       24.099 -30.769   6.284  0.00  0.00    -0.086 S 
ATOM      8  C   LIG    1       25.256 -31.677   7.299  0.00  0.00    +0.034 A 
ATOM      9  C   LIG    1       25.369 -33.059   7.079  0.00  0.00    +0.017 A 
ATOM     10  C   LIG    1       26.272 -33.824   7.818  0.00  0.00    +0.001 A 
ATOM     11  C   LIG    1       27.068 -33.213   8.777  0.00  0.00    +0.002 A 
ATOM     12  C   LIG    1       26.941 -31.842   9.018  0.00  0.00    +0.024 A 
ATOM     13  C   LIG    1       25.957 -27.385   7.635  0.00  0.00    +0.024 A 
ATOM     14  C   LIG    1       26.017 -31.053   8.305  0.00  0.00    +0.048 A 
ENDROOT
BRANCH   1  15
ATOM     15  C   LIG    1       25.822 -29.257   9.973  0.00  0.00    +0.116 C 
BRANCH  15  19
ATOM     16  C   LIG    1       26.710 -27.450  14.017  0.00  0.00    +0.105 C 
ATOM     17  N   LIG    1       26.721 -28.287  12.827  0.00  0.00    -0.305 NA
ATOM     18  C   LIG    1       26.748 -27.491  11.598  0.00  0.00    +0.089 C 
ATOM     19  C   LIG    1       27.070 -28.534  10.533  0.00  0.00    +0.022 C 
ATOM     20  C   LIG    1       27.987 -29.523  11.275  0.00  0.00    +0.021 C 
ATOM     21  C   LIG    1       27.900 -29.146  12.751  0.00  0.00    +0.084 C 
ENDBRANCH  15  19
ENDBRANCH   1  15
TORSDOF 2
ENDMDL
MODEL 8
REMARK VINA RESULT:      -5.7      6.681     10.054
REMARK  Name = *****
REMARK                            x       y       z     vdW  Elec       q    Type
REMARK                         _______ _______ _______ _____ _____    ______ ____
ROOT
ATOM      1  N   LIG    1       24.253 -29.857   7.325  0.00  0.00    -0.298 N 
ATOM      2  C   LIG    1       24.742 -28.615   6.862  0.00  0.00    +0.048 A 
ATOM      3  C   LIG    1       25.725 -27.901   7.573  0.00  0.00    +0.034 A 
ATOM      4  C   LIG    1       26.219 -26.686   7.071  0.00  0.00    +0.017 A 
ATOM      5  C   LIG    1       25.716 -26.153   5.886  0.00  0.00    +0.001 A 
ATOM      6  C   LIG    1       24.712 -26.822   5.199  0.00  0.00    +0.002 A 
ATOM      7  S   LIG    1       26.435 -28.513   9.094  0.00  0.00    -0.086 S 
ATOM      8  C   LIG    1       25.202 -29.704   9.596  0.00  0.00    +0.034 A 
ATOM      9  C   LIG    1       25.196 -30.107  10.942  0.00  0.00    +0.017 A 
ATOM     10  C   LIG    1       24.244 -31.014  11.406  0.00  0.00    +0.001 A 
ATOM     11  C   LIG    1       23.291 -31.520  10.534  0.00  0.00    +0.002 A 
ATOM     12  C   LIG    1       23.308 -31.143   9.188  0.00  0.00    +0.024 A 
ATOM     13  C   LIG    1       24.227 -28.039   5.684  0.00  0.00    +0.024 A 
ATOM     14  C   LIG    1       24.277 -30.250   8.688  0.00  0.00    +0.048 A 
ENDROOT
BRANCH   1  15
ATOM     15  C   LIG    1       24.142 -30.964   6.338  0.00  0.00    +0.116 C 
BRANCH  15  19
ATOM     16  C   LIG    1       27.377 -33.823   7.670  0.00  0.00    +0.105 C 
ATOM     17  N   LIG    1       26.291 -33.179   6.945  0.00  0.00    -0.305 NA
ATOM     18  C   LIG    1       26.561 -31.760   6.704  0.00  0.00    +0.089 C 
ATOM     19  C   LIG    1       25.484 -31.384   5.691  0.00  0.00    +0.022 C 
ATOM     20  C   LIG    1       25.312 -32.672   4.866  0.00  0.00    +0.021 C 
ATOM     21  C   LIG    1       26.075 -33.757   5.622  0.00  0.00    +0.084 C 
ENDBRANCH  15  19
ENDBRANCH   1  15
TORSDOF 2
ENDMDL
