MODEL 1
REMARK VINA RESULT:      -4.3      0.000      0.000
REMARK  Name = *****
REMARK                            x       y       z     vdW  Elec       q    Type
REMARK                         _______ _______ _______ _____ _____    ______ ____
ROOT
ATOM      1  C   LIG    1       29.917 -20.047   8.148  0.00  0.00    +0.049 C 
ATOM      2  C   LIG    1       31.340 -20.492   8.422  0.00  0.00    +0.219 C 
ENDROOT
BRANCH   2   3
ATOM      3  C   LIG    1       31.358 -21.834   9.155  0.00  0.00    +0.333 C 
ATOM      4  O   LIG    1       30.729 -22.091  10.169  0.00  0.00    -0.248 OA
BRANCH   3   5
ATOM      5  O   LIG    1       32.172 -22.726   8.532  0.00  0.00    -0.479 OA
ATOM      6  H   LIG    1       31.782 -22.888   7.638  0.00  0.00    +0.295 HD
ENDBRANCH   3   5
ENDBRANCH   2   3
BRANCH   2   7
ATOM      7  O   LIG    1       31.998 -19.515   9.249  0.00  0.00    -0.381 OA
ATOM      8  H   LIG    1       32.941 -19.530   9.001  0.00  0.00    +0.210 HD
ENDBRANCH   2   7
TORSDOF 3
ENDMDL
MODEL 2
REMARK VINA RESULT:      -4.2      1.991      3.474
REMARK  Name = *****
REMARK                            x       y       z     vdW  Elec       q    Type
REMARK                         _______ _______ _______ _____ _____    ______ ____
ROOT
ATOM      1  C   LIG    1       31.184 -19.229   7.273  0.00  0.00    +0.049 C 
ATOM      2  C   LIG    1       31.294 -19.279   8.785  0.00  0.00    +0.219 C 
ENDROOT
BRANCH   2   3
ATOM      3  C   LIG    1       31.971 -18.018   9.323  0.00  0.00    +0.333 C 
ATOM      4  O   LIG    1       32.239 -17.808  10.496  0.00  0.00    -0.248 OA
BRANCH   3   5
ATOM      5  O   LIG    1       32.247 -17.142   8.323  0.00  0.00    -0.479 OA
ATOM      6  H   LIG    1       31.483 -17.176   7.697  0.00  0.00    +0.295 HD
ENDBRANCH   3   5
ENDBRANCH   2   3
BRANCH   2   7
ATOM      7  O   LIG    1       32.086 -20.418   9.170  0.00  0.00    -0.381 OA
ATOM      8  H   LIG    1       32.951 -20.317   8.731  0.00  0.00    +0.210 HD
ENDBRANCH   2   7
TORSDOF 3
ENDMDL
MODEL 3
REMARK VINA RESULT:      -4.2      2.163      2.781
REMARK  Name = *****
REMARK                            x       y       z     vdW  Elec       q    Type
REMARK                         _______ _______ _______ _____ _____    ______ ____
ROOT
ATOM      1  C   LIG    1       30.365 -17.650   9.772  0.00  0.00    +0.049 C 
ATOM      2  C   LIG    1       31.147 -17.893   8.496  0.00  0.00    +0.219 C 
ENDROOT
BRANCH   2   3
ATOM      3  C   LIG    1       31.624 -19.343   8.418  0.00  0.00    +0.333 C 
ATOM      4  O   LIG    1       31.998 -20.015   9.367  0.00  0.00    -0.248 OA
BRANCH   3   5
ATOM      5  O   LIG    1       31.580 -19.810   7.143  0.00  0.00    -0.479 OA
ATOM      6  H   LIG    1       32.500 -20.084   6.909  0.00  0.00    +0.295 HD
ENDBRANCH   3   5
ENDBRANCH   2   3
BRANCH   2   7
ATOM      7  O   LIG    1       32.302 -17.034   8.471  0.00  0.00    -0.381 OA
ATOM      8  H   LIG    1       32.300 -16.588   7.604  0.00  0.00    +0.210 HD
ENDBRANCH   2   7
TORSDOF 3
ENDMDL
MODEL 4
REMARK VINA RESULT:      -4.2      1.142      1.209
REMARK  Name = *****
REMARK                            x       y       z     vdW  Elec       q    Type
REMARK                         _______ _______ _______ _____ _____    ______ ____
ROOT
ATOM      1  C   LIG    1       31.107 -19.143   9.342  0.00  0.00    +0.049 C 
ATOM      2  C   LIG    1       30.855 -20.357   8.468  0.00  0.00    +0.219 C 
ENDROOT
BRANCH   2   3
ATOM      3  C   LIG    1       31.252 -21.642   9.194  0.00  0.00    +0.333 C 
ATOM      4  O   LIG    1       30.753 -22.048  10.232  0.00  0.00    -0.248 OA
BRANCH   3   5
ATOM      5  O   LIG    1       32.246 -22.294   8.536  0.00  0.00    -0.479 OA
ATOM      6  H   LIG    1       31.813 -23.008   8.007  0.00  0.00    +0.295 HD
ENDBRANCH   3   5
ENDBRANCH   2   3
BRANCH   2   7
ATOM      7  O   LIG    1       31.641 -20.253   7.266  0.00  0.00    -0.381 OA
ATOM      8  H   LIG    1       31.011 -20.148   6.529  0.00  0.00    +0.210 HD
ENDBRANCH   2   7
TORSDOF 3
ENDMDL
MODEL 5
REMARK VINA RESULT:      -4.2      1.898      2.276
REMARK  Name = *****
REMARK                            x       y       z     vdW  Elec       q    Type
REMARK                         _______ _______ _______ _____ _____    ______ ____
ROOT
ATOM      1  C   LIG    1       30.170 -18.568   7.260  0.00  0.00    +0.049 C 
ATOM      2  C   LIG    1       31.537 -18.782   7.881  0.00  0.00    +0.219 C 
ENDROOT
BRANCH   2   3
ATOM      3  C   LIG    1       31.415 -19.491   9.231  0.00  0.00    +0.333 C 
ATOM      4  O   LIG    1       30.716 -19.119  10.161  0.00  0.00    -0.248 OA
BRANCH   3   5
ATOM      5  O   LIG    1       32.189 -20.606   9.275  0.00  0.00    -0.479 OA
ATOM      6  H   LIG    1       31.797 -21.196   9.964  0.00  0.00    +0.295 HD
ENDBRANCH   3   5
ENDBRANCH   2   3
BRANCH   2   7
ATOM      7  O   LIG    1       32.172 -17.508   8.094  0.00  0.00    -0.381 OA
ATOM      8  H   LIG    1       31.530 -16.827   7.817  0.00  0.00    +0.210 HD
ENDBRANCH   2   7
TORSDOF 3
ENDMDL
MODEL 6
REMARK VINA RESULT:      -4.2      2.275      3.124
REMARK  Name = *****
REMARK                            x       y       z     vdW  Elec       q    Type
REMARK                         _______ _______ _______ _____ _____    ______ ____
ROOT
ATOM      1  C   LIG    1       30.538 -17.700   9.974  0.00  0.00    +0.049 C 
ATOM      2  C   LIG    1       31.201 -17.710   8.609  0.00  0.00    +0.219 C 
ENDROOT
BRANCH   2   3
ATOM      3  C   LIG    1       31.655 -19.122   8.237  0.00  0.00    +0.333 C 
ATOM      4  O   LIG    1       31.663 -19.585   7.107  0.00  0.00    -0.248 OA
BRANCH   3   5
ATOM      5  O   LIG    1       32.059 -19.816   9.333  0.00  0.00    -0.479 OA
ATOM      6  H   LIG    1       32.741 -20.461   9.025  0.00  0.00    +0.295 HD
ENDBRANCH   3   5
ENDBRANCH   2   3
BRANCH   2   7
ATOM      7  O   LIG    1       32.358 -16.854   8.632  0.00  0.00    -0.381 OA
ATOM      8  H   LIG    1       32.966 -17.188   7.947  0.00  0.00    +0.210 HD
ENDBRANCH   2   7
TORSDOF 3
ENDMDL
MODEL 7
REMARK VINA RESULT:      -4.1      2.574      3.343
REMARK  Name = *****
REMARK                            x       y       z     vdW  Elec       q    Type
REMARK                         _______ _______ _______ _____ _____    ______ ____
ROOT
ATOM      1  C   LIG    1       30.182 -18.944   6.558  0.00  0.00    +0.049 C 
ATOM      2  C   LIG    1       30.224 -18.408   7.977  0.00  0.00    +0.219 C 
ENDROOT
BRANCH   2   3
ATOM      3  C   LIG    1       31.640 -18.492   8.547  0.00  0.00    +0.333 C 
ATOM      4  O   LIG    1       32.084 -19.427   9.196  0.00  0.00    -0.248 OA
BRANCH   3   5
ATOM      5  O   LIG    1       32.363 -17.384   8.240  0.00  0.00    -0.479 OA
ATOM      6  H   LIG    1       32.116 -16.693   8.901  0.00  0.00    +0.295 HD
ENDBRANCH   3   5
ENDBRANCH   2   3
BRANCH   2   7
ATOM      7  O   LIG    1       29.351 -19.192   8.811  0.00  0.00    -0.381 OA
ATOM      8  H   LIG    1       28.964 -19.881   8.239  0.00  0.00    +0.210 HD
ENDBRANCH   2   7
TORSDOF 3
ENDMDL
MODEL 8
REMARK VINA RESULT:      -4.1      2.460      3.117
REMARK  Name = *****
REMARK                            x       y       z     vdW  Elec       q    Type
REMARK                         _______ _______ _______ _____ _____    ______ ____
ROOT
ATOM      1  C   LIG    1       30.290 -17.802   9.439  0.00  0.00    +0.049 C 
ATOM      2  C   LIG    1       31.493 -18.335   8.685  0.00  0.00    +0.219 C 
ENDROOT
BRANCH   2   3
ATOM      3  C   LIG    1       31.065 -18.978   7.365  0.00  0.00    +0.333 C 
ATOM      4  O   LIG    1       30.417 -18.427   6.489  0.00  0.00    -0.248 OA
BRANCH   3   5
ATOM      5  O   LIG    1       31.501 -20.262   7.278  0.00  0.00    -0.479 OA
ATOM      6  H   LIG    1       30.728 -20.805   6.987  0.00  0.00    +0.295 HD
ENDBRANCH   3   5
ENDBRANCH   2   3
BRANCH   2   7
ATOM      7  O   LIG    1       32.155 -19.334   9.482  0.00  0.00    -0.381 OA
ATOM      8  H   LIG    1       32.066 -20.178   9.001  0.00  0.00    +0.210 HD
ENDBRANCH   2   7
TORSDOF 3
ENDMDL
MODEL 9
REMARK VINA RESULT:      -4.0      2.245      3.261
REMARK  Name = *****
REMARK                            x       y       z     vdW  Elec       q    Type
REMARK                         _______ _______ _______ _____ _____    ______ ____
ROOT
ATOM      1  C   LIG    1       29.723 -20.193   7.681  0.00  0.00    +0.049 C 
ATOM      2  C   LIG    1       30.870 -19.392   7.094  0.00  0.00    +0.219 C 
ENDROOT
BRANCH   2   3
ATOM      3  C   LIG    1       31.676 -18.708   8.199  0.00  0.00    +0.333 C 
ATOM      4  O   LIG    1       31.953 -17.519   8.237  0.00  0.00    -0.248 OA
BRANCH   3   5
ATOM      5  O   LIG    1       32.055 -19.596   9.155  0.00  0.00    -0.479 OA
ATOM      6  H   LIG    1       31.557 -20.431   8.979  0.00  0.00    +0.295 HD
ENDBRANCH   3   5
ENDBRANCH   2   3
BRANCH   2   7
ATOM      7  O   LIG    1       30.346 -18.375   6.220  0.00  0.00    -0.381 OA
ATOM      8  H   LIG    1       30.965 -17.622   6.266  0.00  0.00    +0.210 HD
ENDBRANCH   2   7
TORSDOF 3
ENDMDL
