MODEL 1
REMARK VINA RESULT:      -9.1      0.000      0.000
REMARK  Name = *****
REMARK                            x       y       z     vdW  Elec       q    Type
REMARK                         _______ _______ _______ _____ _____    ______ ____
ROOT
ATOM      1  O   LIG    1       27.394 -21.340   8.658  0.00  0.00    -0.492 OA
ENDROOT
BRANCH   1   2
ATOM      2  C   LIG    1       26.287 -21.865   8.040  0.00  0.00    +0.121 A 
ATOM      3  C   LIG    1       25.206 -21.086   7.633  0.00  0.00    +0.050 A 
ATOM      4  C   LIG    1       24.145 -21.623   6.902  0.00  0.00    -0.030 A 
ATOM      5  C   LIG    1       24.148 -22.989   6.614  0.00  0.00    +0.005 A 
ATOM      6  C   LIG    1       25.189 -23.799   7.080  0.00  0.00    +0.004 A 
ATOM      7  C   LIG    1       26.252 -23.240   7.802  0.00  0.00    +0.045 A 
BRANCH   4   8
ATOM      8  C   LIG    1       23.045 -20.691   6.451  0.00  0.00    +0.119 C 
BRANCH   8   9
ATOM      9  N   LIG    1       22.700 -20.849   5.024  0.00  0.00    -0.298 NA
ATOM     10  C   LIG    1       21.802 -19.783   4.561  0.00  0.00    +0.085 C 
ATOM     11  C   LIG    1       22.477 -18.414   4.449  0.00  0.00    +0.015 C 
ATOM     12  C   LIG    1       23.760 -18.474   3.622  0.00  0.00    +0.002 C 
ATOM     13  C   LIG    1       24.660 -19.630   4.049  0.00  0.00    +0.015 C 
ATOM     14  C   LIG    1       23.873 -20.937   4.141  0.00  0.00    +0.085 C 
ENDBRANCH   8   9
ENDBRANCH   4   8
ENDBRANCH   1   2
BRANCH   1  15
ATOM     15  C   LIG    1       28.589 -21.338   7.855  0.00  0.00    +0.230 C 
BRANCH  15  16
ATOM     16  C   LIG    1       28.751 -19.990   7.176  0.00  0.00    +0.060 C 
BRANCH  16  17
ATOM     17  C   LIG    1       30.215 -19.730   6.836  0.00  0.00    +0.107 C 
BRANCH  17  19
ATOM     18  C   LIG    1       31.617 -18.824   8.665  0.00  0.00    +0.251 C 
ATOM     19  N   LIG    1       30.737 -18.640   7.623  0.00  0.00    -0.312 N 
ATOM     20  H   LIG    1       30.485 -17.689   7.360  0.00  0.00    +0.149 HD
ATOM     21  O   LIG    1       32.026 -19.929   9.012  0.00  0.00    -0.272 OA
BRANCH  18  22
ATOM     22  C   LIG    1       32.077 -17.527   9.345  0.00  0.00    +0.327 C 
BRANCH  22  23
ATOM     23  O   LIG    1       32.131 -17.625  10.771  0.00  0.00    -0.455 OA
BRANCH  23  25
ATOM     24  C   LIG    1       32.047 -16.289  12.697  0.00  0.00    +0.136 C 
ATOM     25  C   LIG    1       31.354 -16.728  11.442  0.00  0.00    +0.304 C 
ATOM     26  O   LIG    1       30.218 -16.418  11.143  0.00  0.00    -0.251 OA
ENDBRANCH  23  25
ENDBRANCH  22  23
ENDBRANCH  18  22
ENDBRANCH  17  19
ENDBRANCH  16  17
ENDBRANCH  15  16
ENDBRANCH   1  15
TORSDOF 10
ENDMDL
MODEL 2
REMARK VINA RESULT:      -9.0      2.360      4.430
REMARK  Name = *****
REMARK                            x       y       z     vdW  Elec       q    Type
REMARK                         _______ _______ _______ _____ _____    ______ ____
ROOT
ATOM      1  O   LIG    1       26.807 -21.642   8.525  0.00  0.00    -0.492 OA
ENDROOT
BRANCH   1   2
ATOM      2  C   LIG    1       25.679 -22.091   7.885  0.00  0.00    +0.121 A 
ATOM      3  C   LIG    1       25.552 -23.388   7.394  0.00  0.00    +0.050 A 
ATOM      4  C   LIG    1       24.354 -23.857   6.852  0.00  0.00    -0.030 A 
ATOM      5  C   LIG    1       23.269 -22.984   6.757  0.00  0.00    +0.005 A 
ATOM      6  C   LIG    1       23.403 -21.656   7.177  0.00  0.00    +0.004 A 
ATOM      7  C   LIG    1       24.610 -21.207   7.729  0.00  0.00    +0.045 A 
BRANCH   4   8
ATOM      8  C   LIG    1       24.290 -25.298   6.401  0.00  0.00    +0.119 C 
BRANCH   8   9
ATOM      9  N   LIG    1       25.617 -25.874   6.109  0.00  0.00    -0.298 NA
ATOM     10  C   LIG    1       26.042 -26.816   7.153  0.00  0.00    +0.085 C 
ATOM     11  C   LIG    1       25.254 -28.129   7.154  0.00  0.00    +0.015 C 
ATOM     12  C   LIG    1       25.230 -28.784   5.774  0.00  0.00    +0.002 C 
ATOM     13  C   LIG    1       24.867 -27.787   4.677  0.00  0.00    +0.015 C 
ATOM     14  C   LIG    1       25.705 -26.514   4.788  0.00  0.00    +0.085 C 
ENDBRANCH   8   9
ENDBRANCH   4   8
ENDBRANCH   1   2
BRANCH   1  15
ATOM     15  C   LIG    1       27.226 -20.317   8.149  0.00  0.00    +0.230 C 
BRANCH  15  16
ATOM     16  C   LIG    1       28.302 -20.400   7.081  0.00  0.00    +0.060 C 
BRANCH  16  17
ATOM     17  C   LIG    1       29.670 -20.637   7.713  0.00  0.00    +0.107 C 
BRANCH  17  19
ATOM     18  C   LIG    1       31.407 -19.342   8.912  0.00  0.00    +0.251 C 
ATOM     19  N   LIG    1       30.225 -19.402   8.209  0.00  0.00    -0.312 N 
ATOM     20  H   LIG    1       29.748 -18.531   7.982  0.00  0.00    +0.149 HD
ATOM     21  O   LIG    1       32.082 -20.333   9.176  0.00  0.00    -0.272 OA
BRANCH  18  22
ATOM     22  C   LIG    1       31.835 -17.924   9.313  0.00  0.00    +0.327 C 
BRANCH  22  23
ATOM     23  O   LIG    1       32.099 -17.789  10.713  0.00  0.00    -0.455 OA
BRANCH  23  25
ATOM     24  C   LIG    1       32.235 -16.146  12.381  0.00  0.00    +0.136 C 
ATOM     25  C   LIG    1       31.384 -16.816  11.345  0.00  0.00    +0.304 C 
ATOM     26  O   LIG    1       30.198 -16.601  11.189  0.00  0.00    -0.251 OA
ENDBRANCH  23  25
ENDBRANCH  22  23
ENDBRANCH  18  22
ENDBRANCH  17  19
ENDBRANCH  16  17
ENDBRANCH  15  16
ENDBRANCH   1  15
TORSDOF 10
ENDMDL
MODEL 3
REMARK VINA RESULT:      -8.5      2.880      9.004
REMARK  Name = *****
REMARK                            x       y       z     vdW  Elec       q    Type
REMARK                         _______ _______ _______ _____ _____    ______ ____
ROOT
ATOM      1  O   LIG    1       27.910 -19.569   5.563  0.00  0.00    -0.492 OA
ENDROOT
BRANCH   1   2
ATOM      2  C   LIG    1       28.843 -19.930   6.502  0.00  0.00    +0.121 A 
ATOM      3  C   LIG    1       29.883 -19.093   6.898  0.00  0.00    +0.050 A 
ATOM      4  C   LIG    1       30.749 -19.435   7.938  0.00  0.00    -0.030 A 
ATOM      5  C   LIG    1       30.595 -20.673   8.565  0.00  0.00    +0.005 A 
ATOM      6  C   LIG    1       29.602 -21.557   8.129  0.00  0.00    +0.004 A 
ATOM      7  C   LIG    1       28.734 -21.191   7.091  0.00  0.00    +0.045 A 
BRANCH   4   8
ATOM      8  C   LIG    1       31.812 -18.438   8.340  0.00  0.00    +0.119 C 
BRANCH   8   9
ATOM      9  N   LIG    1       31.257 -17.129   8.736  0.00  0.00    -0.298 NA
ATOM     10  C   LIG    1       30.161 -17.274   9.703  0.00  0.00    +0.085 C 
ATOM     11  C   LIG    1       30.620 -17.721  11.093  0.00  0.00    +0.015 C 
ATOM     12  C   LIG    1       31.743 -16.839  11.636  0.00  0.00    +0.002 C 
ATOM     13  C   LIG    1       32.847 -16.621  10.604  0.00  0.00    +0.015 C 
ATOM     14  C   LIG    1       32.267 -16.194   9.257  0.00  0.00    +0.085 C 
ENDBRANCH   8   9
ENDBRANCH   4   8
ENDBRANCH   1   2
BRANCH   1  15
ATOM     15  C   LIG    1       26.690 -20.332   5.600  0.00  0.00    +0.230 C 
BRANCH  15  16
ATOM     16  C   LIG    1       25.767 -19.883   4.481  0.00  0.00    +0.060 C 
BRANCH  16  17
ATOM     17  C   LIG    1       24.691 -20.932   4.217  0.00  0.00    +0.107 C 
BRANCH  17  19
ATOM     18  C   LIG    1       23.929 -22.413   6.049  0.00  0.00    +0.251 C 
ATOM     19  N   LIG    1       24.856 -22.065   5.094  0.00  0.00    -0.312 N 
ATOM     20  H   LIG    1       25.669 -22.665   4.962  0.00  0.00    +0.149 HD
ATOM     21  O   LIG    1       22.889 -21.787   6.236  0.00  0.00    -0.272 OA
BRANCH  18  22
ATOM     22  C   LIG    1       24.283 -23.675   6.848  0.00  0.00    +0.327 C 
BRANCH  22  23
ATOM     23  O   LIG    1       23.612 -24.849   6.377  0.00  0.00    -0.455 OA
BRANCH  23  25
ATOM     24  C   LIG    1       24.357 -27.056   6.107  0.00  0.00    +0.136 C 
ATOM     25  C   LIG    1       24.357 -25.655   5.571  0.00  0.00    +0.304 C 
ATOM     26  O   LIG    1       25.028 -25.283   4.628  0.00  0.00    -0.251 OA
ENDBRANCH  23  25
ENDBRANCH  22  23
ENDBRANCH  18  22
ENDBRANCH  17  19
ENDBRANCH  16  17
ENDBRANCH  15  16
ENDBRANCH   1  15
TORSDOF 10
ENDMDL
MODEL 4
REMARK VINA RESULT:      -8.4      2.565      8.226
REMARK  Name = *****
REMARK                            x       y       z     vdW  Elec       q    Type
REMARK                         _______ _______ _______ _____ _____    ______ ____
ROOT
ATOM      1  O   LIG    1       28.097 -19.168   5.321  0.00  0.00    -0.492 OA
ENDROOT
BRANCH   1   2
ATOM      2  C   LIG    1       28.939 -19.616   6.307  0.00  0.00    +0.121 A 
ATOM      3  C   LIG    1       29.991 -18.854   6.808  0.00  0.00    +0.050 A 
ATOM      4  C   LIG    1       30.761 -19.282   7.891  0.00  0.00    -0.030 A 
ATOM      5  C   LIG    1       30.496 -20.532   8.455  0.00  0.00    +0.005 A 
ATOM      6  C   LIG    1       29.492 -21.342   7.914  0.00  0.00    +0.004 A 
ATOM      7  C   LIG    1       28.721 -20.890   6.835  0.00  0.00    +0.045 A 
BRANCH   4   8
ATOM      8  C   LIG    1       31.843 -18.362   8.408  0.00  0.00    +0.119 C 
BRANCH   8   9
ATOM      9  N   LIG    1       31.332 -17.040   8.819  0.00  0.00    -0.298 NA
ATOM     10  C   LIG    1       30.228 -17.160   9.782  0.00  0.00    +0.085 C 
ATOM     11  C   LIG    1       30.670 -17.639  11.167  0.00  0.00    +0.015 C 
ATOM     12  C   LIG    1       31.820 -16.802  11.723  0.00  0.00    +0.002 C 
ATOM     13  C   LIG    1       32.933 -16.608  10.696  0.00  0.00    +0.015 C 
ATOM     14  C   LIG    1       32.370 -16.146   9.353  0.00  0.00    +0.085 C 
ENDBRANCH   8   9
ENDBRANCH   4   8
ENDBRANCH   1   2
BRANCH   1  15
ATOM     15  C   LIG    1       26.868 -19.907   5.196  0.00  0.00    +0.230 C 
BRANCH  15  16
ATOM     16  C   LIG    1       26.028 -19.326   4.073  0.00  0.00    +0.060 C 
BRANCH  16  17
ATOM     17  C   LIG    1       24.749 -20.135   3.882  0.00  0.00    +0.107 C 
BRANCH  17  19
ATOM     18  C   LIG    1       23.513 -20.908   5.884  0.00  0.00    +0.251 C 
ATOM     19  N   LIG    1       24.548 -21.041   4.987  0.00  0.00    -0.312 N 
ATOM     20  H   LIG    1       25.168 -21.844   5.073  0.00  0.00    +0.149 HD
ATOM     21  O   LIG    1       22.680 -20.008   5.821  0.00  0.00    -0.272 OA
BRANCH  18  22
ATOM     22  C   LIG    1       23.461 -22.001   6.960  0.00  0.00    +0.327 C 
BRANCH  22  23
ATOM     23  O   LIG    1       23.972 -21.573   8.226  0.00  0.00    -0.455 OA
BRANCH  23  25
ATOM     24  C   LIG    1       25.748 -22.994   7.654  0.00  0.00    +0.136 C 
ATOM     25  C   LIG    1       25.307 -21.776   8.409  0.00  0.00    +0.304 C 
ATOM     26  O   LIG    1       26.018 -21.146   9.167  0.00  0.00    -0.251 OA
ENDBRANCH  23  25
ENDBRANCH  22  23
ENDBRANCH  18  22
ENDBRANCH  17  19
ENDBRANCH  16  17
ENDBRANCH  15  16
ENDBRANCH   1  15
TORSDOF 10
ENDMDL
MODEL 5
REMARK VINA RESULT:      -8.3      2.448      8.636
REMARK  Name = *****
REMARK                            x       y       z     vdW  Elec       q    Type
REMARK                         _______ _______ _______ _____ _____    ______ ____
ROOT
ATOM      1  O   LIG    1       27.882 -21.821   7.609  0.00  0.00    -0.492 OA
ENDROOT
BRANCH   1   2
ATOM      2  C   LIG    1       28.538 -20.681   7.215  0.00  0.00    +0.121 A 
ATOM      3  C   LIG    1       29.573 -20.110   7.952  0.00  0.00    +0.050 A 
ATOM      4  C   LIG    1       30.303 -19.020   7.474  0.00  0.00    -0.030 A 
ATOM      5  C   LIG    1       29.951 -18.459   6.245  0.00  0.00    +0.005 A 
ATOM      6  C   LIG    1       28.866 -18.974   5.528  0.00  0.00    +0.004 A 
ATOM      7  C   LIG    1       28.153 -20.077   6.017  0.00  0.00    +0.045 A 
BRANCH   4   8
ATOM      8  C   LIG    1       31.449 -18.504   8.314  0.00  0.00    +0.119 C 
BRANCH   8   9
ATOM      9  N   LIG    1       31.282 -17.095   8.719  0.00  0.00    -0.298 NA
ATOM     10  C   LIG    1       30.140 -16.922   9.627  0.00  0.00    +0.085 C 
ATOM     11  C   LIG    1       30.372 -17.502  11.025  0.00  0.00    +0.015 C 
ATOM     12  C   LIG    1       31.672 -16.997  11.646  0.00  0.00    +0.002 C 
ATOM     13  C   LIG    1       32.846 -17.101  10.676  0.00  0.00    +0.015 C 
ATOM     14  C   LIG    1       32.491 -16.506   9.314  0.00  0.00    +0.085 C 
ENDBRANCH   8   9
ENDBRANCH   4   8
ENDBRANCH   1   2
BRANCH   1  15
ATOM     15  C   LIG    1       26.515 -21.912   7.167  0.00  0.00    +0.230 C 
BRANCH  15  16
ATOM     16  C   LIG    1       26.161 -23.361   6.884  0.00  0.00    +0.060 C 
BRANCH  16  17
ATOM     17  C   LIG    1       24.663 -23.592   7.056  0.00  0.00    +0.107 C 
BRANCH  17  19
ATOM     18  C   LIG    1       23.167 -21.711   6.461  0.00  0.00    +0.251 C 
ATOM     19  N   LIG    1       23.912 -22.812   6.104  0.00  0.00    -0.312 N 
ATOM     20  H   LIG    1       23.981 -23.054   5.117  0.00  0.00    +0.149 HD
ATOM     21  O   LIG    1       23.077 -21.307   7.617  0.00  0.00    -0.272 OA
BRANCH  18  22
ATOM     22  C   LIG    1       22.477 -21.003   5.286  0.00  0.00    +0.327 C 
BRANCH  22  23
ATOM     23  O   LIG    1       23.360 -20.731   4.193  0.00  0.00    -0.455 OA
BRANCH  23  25
ATOM     24  C   LIG    1       25.078 -19.237   3.633  0.00  0.00    +0.136 C 
ATOM     25  C   LIG    1       23.631 -19.412   3.985  0.00  0.00    +0.304 C 
ATOM     26  O   LIG    1       22.857 -18.495   4.176  0.00  0.00    -0.251 OA
ENDBRANCH  23  25
ENDBRANCH  22  23
ENDBRANCH  18  22
ENDBRANCH  17  19
ENDBRANCH  16  17
ENDBRANCH  15  16
ENDBRANCH   1  15
TORSDOF 10
ENDMDL
MODEL 6
REMARK VINA RESULT:      -8.2      3.816      7.389
REMARK  Name = *****
REMARK                            x       y       z     vdW  Elec       q    Type
REMARK                         _______ _______ _______ _____ _____    ______ ____
ROOT
ATOM      1  O   LIG    1       26.957 -22.085   7.263  0.00  0.00    -0.492 OA
ENDROOT
BRANCH   1   2
ATOM      2  C   LIG    1       25.725 -22.653   7.058  0.00  0.00    +0.121 A 
ATOM      3  C   LIG    1       25.558 -23.964   6.619  0.00  0.00    +0.050 A 
ATOM      4  C   LIG    1       24.298 -24.556   6.530  0.00  0.00    -0.030 A 
ATOM      5  C   LIG    1       23.170 -23.795   6.846  0.00  0.00    +0.005 A 
ATOM      6  C   LIG    1       23.316 -22.454   7.217  0.00  0.00    +0.004 A 
ATOM      7  C   LIG    1       24.590 -21.880   7.312  0.00  0.00    +0.045 A 
BRANCH   4   8
ATOM      8  C   LIG    1       24.217 -26.004   6.103  0.00  0.00    +0.119 C 
BRANCH   8   9
ATOM      9  N   LIG    1       25.533 -26.671   6.065  0.00  0.00    -0.298 NA
ATOM     10  C   LIG    1       25.787 -27.442   7.289  0.00  0.00    +0.085 C 
ATOM     11  C   LIG    1       24.930 -28.705   7.409  0.00  0.00    +0.015 C 
ATOM     12  C   LIG    1       25.019 -29.579   6.159  0.00  0.00    +0.002 C 
ATOM     13  C   LIG    1       24.835 -28.765   4.881  0.00  0.00    +0.015 C 
ATOM     14  C   LIG    1       25.727 -27.525   4.883  0.00  0.00    +0.085 C 
ENDBRANCH   8   9
ENDBRANCH   4   8
ENDBRANCH   1   2
BRANCH   1  15
ATOM     15  C   LIG    1       26.937 -20.661   7.477  0.00  0.00    +0.230 C 
BRANCH  15  16
ATOM     16  C   LIG    1       28.192 -20.035   6.896  0.00  0.00    +0.060 C 
BRANCH  16  17
ATOM     17  C   LIG    1       27.992 -19.694   5.423  0.00  0.00    +0.107 C 
BRANCH  17  19
ATOM     18  C   LIG    1       25.910 -19.373   4.120  0.00  0.00    +0.251 C 
ATOM     19  N   LIG    1       26.691 -20.122   4.971  0.00  0.00    -0.312 N 
ATOM     20  H   LIG    1       26.360 -21.043   5.252  0.00  0.00    +0.149 HD
ATOM     21  O   LIG    1       26.256 -18.280   3.680  0.00  0.00    -0.272 OA
BRANCH  18  22
ATOM     22  C   LIG    1       24.578 -20.031   3.736  0.00  0.00    +0.327 C 
BRANCH  22  23
ATOM     23  O   LIG    1       23.566 -19.088   3.371  0.00  0.00    -0.455 OA
BRANCH  23  25
ATOM     24  C   LIG    1       22.180 -20.134   4.947  0.00  0.00    +0.136 C 
ATOM     25  C   LIG    1       22.631 -18.843   4.332  0.00  0.00    +0.304 C 
ATOM     26  O   LIG    1       22.138 -17.759   4.574  0.00  0.00    -0.251 OA
ENDBRANCH  23  25
ENDBRANCH  22  23
ENDBRANCH  18  22
ENDBRANCH  17  19
ENDBRANCH  16  17
ENDBRANCH  15  16
ENDBRANCH   1  15
TORSDOF 10
ENDMDL
MODEL 7
REMARK VINA RESULT:      -8.0      4.592      8.574
REMARK  Name = *****
REMARK                            x       y       z     vdW  Elec       q    Type
REMARK                         _______ _______ _______ _____ _____    ______ ____
ROOT
ATOM      1  O   LIG    1       25.501 -24.958   6.631  0.00  0.00    -0.492 OA
ENDROOT
BRANCH   1   2
ATOM      2  C   LIG    1       25.278 -23.647   6.969  0.00  0.00    +0.121 A 
ATOM      3  C   LIG    1       26.306 -22.755   7.263  0.00  0.00    +0.050 A 
ATOM      4  C   LIG    1       26.063 -21.399   7.489  0.00  0.00    -0.030 A 
ATOM      5  C   LIG    1       24.745 -20.937   7.465  0.00  0.00    +0.005 A 
ATOM      6  C   LIG    1       23.695 -21.834   7.245  0.00  0.00    +0.004 A 
ATOM      7  C   LIG    1       23.959 -23.190   7.008  0.00  0.00    +0.045 A 
BRANCH   4   8
ATOM      8  C   LIG    1       27.246 -20.493   7.741  0.00  0.00    +0.119 C 
BRANCH   8   9
ATOM      9  N   LIG    1       28.489 -20.973   7.105  0.00  0.00    -0.298 NA
ATOM     10  C   LIG    1       28.765 -20.262   5.850  0.00  0.00    +0.085 C 
ATOM     11  C   LIG    1       29.196 -18.807   6.048  0.00  0.00    +0.015 C 
ATOM     12  C   LIG    1       30.352 -18.681   7.038  0.00  0.00    +0.002 C 
ATOM     13  C   LIG    1       30.102 -19.485   8.311  0.00  0.00    +0.015 C 
ATOM     14  C   LIG    1       29.664 -20.912   7.988  0.00  0.00    +0.085 C 
ENDBRANCH   8   9
ENDBRANCH   4   8
ENDBRANCH   1   2
BRANCH   1  15
ATOM     15  C   LIG    1       25.175 -25.294   5.269  0.00  0.00    +0.230 C 
BRANCH  15  16
ATOM     16  C   LIG    1       25.860 -26.592   4.881  0.00  0.00    +0.060 C 
BRANCH  16  17
ATOM     17  C   LIG    1       25.050 -27.793   5.361  0.00  0.00    +0.107 C 
BRANCH  17  19
ATOM     18  C   LIG    1       24.823 -29.180   7.400  0.00  0.00    +0.251 C 
ATOM     19  N   LIG    1       25.440 -28.170   6.698  0.00  0.00    -0.312 N 
ATOM     20  H   LIG    1       26.243 -27.705   7.118  0.00  0.00    +0.149 HD
ATOM     21  O   LIG    1       23.890 -29.838   6.949  0.00  0.00    -0.272 OA
BRANCH  18  22
ATOM     22  C   LIG    1       25.419 -29.444   8.790  0.00  0.00    +0.327 C 
BRANCH  22  23
ATOM     23  O   LIG    1       26.489 -28.555   9.123  0.00  0.00    -0.455 OA
BRANCH  23  25
ATOM     24  C   LIG    1       26.724 -27.832  11.342  0.00  0.00    +0.136 C 
ATOM     25  C   LIG    1       27.124 -28.830  10.297  0.00  0.00    +0.304 C 
ATOM     26  O   LIG    1       27.983 -29.676  10.452  0.00  0.00    -0.251 OA
ENDBRANCH  23  25
ENDBRANCH  22  23
ENDBRANCH  18  22
ENDBRANCH  17  19
ENDBRANCH  16  17
ENDBRANCH  15  16
ENDBRANCH   1  15
TORSDOF 10
ENDMDL
MODEL 8
REMARK VINA RESULT:      -8.0      3.555      5.827
REMARK  Name = *****
REMARK                            x       y       z     vdW  Elec       q    Type
REMARK                         _______ _______ _______ _____ _____    ______ ____
ROOT
ATOM      1  O   LIG    1       26.631 -22.650   7.180  0.00  0.00    -0.492 OA
ENDROOT
BRANCH   1   2
ATOM      2  C   LIG    1       25.716 -23.619   6.852  0.00  0.00    +0.121 A 
ATOM      3  C   LIG    1       26.049 -24.965   6.726  0.00  0.00    +0.050 A 
ATOM      4  C   LIG    1       25.081 -25.946   6.507  0.00  0.00    -0.030 A 
ATOM      5  C   LIG    1       23.747 -25.558   6.363  0.00  0.00    +0.005 A 
ATOM      6  C   LIG    1       23.406 -24.202   6.412  0.00  0.00    +0.004 A 
ATOM      7  C   LIG    1       24.390 -23.232   6.645  0.00  0.00    +0.045 A 
BRANCH   4   8
ATOM      8  C   LIG    1       25.527 -27.389   6.445  0.00  0.00    +0.119 C 
BRANCH   8   9
ATOM      9  N   LIG    1       24.402 -28.344   6.450  0.00  0.00    -0.298 NA
ATOM     10  C   LIG    1       24.412 -29.201   5.256  0.00  0.00    +0.085 C 
ATOM     11  C   LIG    1       25.544 -30.231   5.248  0.00  0.00    +0.015 C 
ATOM     12  C   LIG    1       25.582 -31.052   6.536  0.00  0.00    +0.002 C 
ATOM     13  C   LIG    1       25.491 -30.168   7.777  0.00  0.00    +0.015 C 
ATOM     14  C   LIG    1       24.337 -29.172   7.663  0.00  0.00    +0.085 C 
ENDBRANCH   8   9
ENDBRANCH   4   8
ENDBRANCH   1   2
BRANCH   1  15
ATOM     15  C   LIG    1       26.104 -21.562   7.962  0.00  0.00    +0.230 C 
BRANCH  15  16
ATOM     16  C   LIG    1       27.093 -20.411   7.976  0.00  0.00    +0.060 C 
BRANCH  16  17
ATOM     17  C   LIG    1       28.220 -20.656   6.977  0.00  0.00    +0.107 C 
BRANCH  17  19
ATOM     18  C   LIG    1       30.324 -20.111   8.162  0.00  0.00    +0.251 C 
ATOM     19  N   LIG    1       29.343 -19.794   7.251  0.00  0.00    -0.312 N 
ATOM     20  H   LIG    1       29.441 -18.939   6.707  0.00  0.00    +0.149 HD
ATOM     21  O   LIG    1       30.322 -21.150   8.817  0.00  0.00    -0.272 OA
BRANCH  18  22
ATOM     22  C   LIG    1       31.448 -19.072   8.273  0.00  0.00    +0.327 C 
BRANCH  22  23
ATOM     23  O   LIG    1       31.965 -18.937   9.600  0.00  0.00    -0.455 OA
BRANCH  23  25
ATOM     24  C   LIG    1       30.520 -17.160  10.102  0.00  0.00    +0.136 C 
ATOM     25  C   LIG    1       31.928 -17.673  10.109  0.00  0.00    +0.304 C 
ATOM     26  O   LIG    1       32.899 -17.006  10.407  0.00  0.00    -0.251 OA
ENDBRANCH  23  25
ENDBRANCH  22  23
ENDBRANCH  18  22
ENDBRANCH  17  19
ENDBRANCH  16  17
ENDBRANCH  15  16
ENDBRANCH   1  15
TORSDOF 10
ENDMDL
MODEL 9
REMARK VINA RESULT:      -7.8      5.488      9.872
REMARK  Name = *****
REMARK                            x       y       z     vdW  Elec       q    Type
REMARK                         _______ _______ _______ _____ _____    ______ ____
ROOT
ATOM      1  O   LIG    1       25.200 -24.791   6.739  0.00  0.00    -0.492 OA
ENDROOT
BRANCH   1   2
ATOM      2  C   LIG    1       25.074 -23.461   7.049  0.00  0.00    +0.121 A 
ATOM      3  C   LIG    1       26.163 -22.648   7.355  0.00  0.00    +0.050 A 
ATOM      4  C   LIG    1       26.023 -21.273   7.552  0.00  0.00    -0.030 A 
ATOM      5  C   LIG    1       24.747 -20.708   7.488  0.00  0.00    +0.005 A 
ATOM      6  C   LIG    1       23.635 -21.524   7.256  0.00  0.00    +0.004 A 
ATOM      7  C   LIG    1       23.795 -22.900   7.048  0.00  0.00    +0.045 A 
BRANCH   4   8
ATOM      8  C   LIG    1       27.268 -20.459   7.819  0.00  0.00    +0.119 C 
BRANCH   8   9
ATOM      9  N   LIG    1       28.467 -20.997   7.147  0.00  0.00    -0.298 NA
ATOM     10  C   LIG    1       28.744 -20.293   5.887  0.00  0.00    +0.085 C 
ATOM     11  C   LIG    1       29.253 -18.862   6.081  0.00  0.00    +0.015 C 
ATOM     12  C   LIG    1       30.441 -18.801   7.039  0.00  0.00    +0.002 C 
ATOM     13  C   LIG    1       30.186 -19.599   8.315  0.00  0.00    +0.015 C 
ATOM     14  C   LIG    1       29.668 -21.000   7.996  0.00  0.00    +0.085 C 
ENDBRANCH   8   9
ENDBRANCH   4   8
ENDBRANCH   1   2
BRANCH   1  15
ATOM     15  C   LIG    1       24.071 -25.359   6.049  0.00  0.00    +0.230 C 
BRANCH  15  16
ATOM     16  C   LIG    1       24.413 -26.755   5.562  0.00  0.00    +0.060 C 
BRANCH  16  17
ATOM     17  C   LIG    1       25.160 -27.535   6.640  0.00  0.00    +0.107 C 
BRANCH  17  19
ATOM     18  C   LIG    1       24.941 -29.928   6.042  0.00  0.00    +0.251 C 
ATOM     19  N   LIG    1       25.682 -28.770   6.109  0.00  0.00    -0.312 N 
ATOM     20  H   LIG    1       26.622 -28.769   5.717  0.00  0.00    +0.149 HD
ATOM     21  O   LIG    1       23.779 -30.005   6.432  0.00  0.00    -0.272 OA
BRANCH  18  22
ATOM     22  C   LIG    1       25.676 -31.116   5.408  0.00  0.00    +0.327 C 
BRANCH  22  23
ATOM     23  O   LIG    1       25.737 -32.264   6.260  0.00  0.00    -0.455 OA
BRANCH  23  25
ATOM     24  C   LIG    1       26.854 -32.108   8.316  0.00  0.00    +0.136 C 
ATOM     25  C   LIG    1       26.941 -32.472   6.864  0.00  0.00    +0.304 C 
ATOM     26  O   LIG    1       27.969 -32.784   6.297  0.00  0.00    -0.251 OA
ENDBRANCH  23  25
ENDBRANCH  22  23
ENDBRANCH  18  22
ENDBRANCH  17  19
ENDBRANCH  16  17
ENDBRANCH  15  16
ENDBRANCH   1  15
TORSDOF 10
ENDMDL
