MODEL 1
REMARK VINA RESULT:      -3.3      0.000      0.000
REMARK  Name = *****
REMARK                            x       y       z     vdW  Elec       q    Type
REMARK                         _______ _______ _______ _____ _____    ______ ____
ROOT
ATOM      1  C   LIG    1       22.057 -21.192   4.216  0.00  0.00    +0.134 C 
ATOM      2  N   LIG    1       23.024 -20.102   4.029  0.00  0.00    -0.159 NA
ATOM      3  S   LIG    1       22.493 -18.580   4.491  0.00  0.00    +0.064 S 
ATOM      4  O   LIG    1       22.356 -18.579   5.934  0.00  0.00    -0.153 OA
ATOM      5  O   LIG    1       21.385 -18.219   3.636  0.00  0.00    -0.153 OA
ATOM      6  C   LIG    1       23.850 -17.538   4.095  0.00  0.00    +0.128 A 
ATOM      7  C   LIG    1       25.073 -18.113   3.757  0.00  0.00    +0.057 A 
ATOM      8  C   LIG    1       26.096 -17.244   3.353  0.00  0.00    +0.047 A 
ATOM      9  C   LIG    1       25.938 -15.848   3.374  0.00  0.00    +0.069 A 
ATOM     10  C   LIG    1       24.718 -15.303   3.779  0.00  0.00    +0.125 A 
ATOM     11 CL   LIG    1       27.296 -14.912   2.866  0.00  0.00    -0.082 Cl
ATOM     12  N   LIG    1       25.284 -19.486   3.667  0.00  0.00    -0.325 N 
ATOM     13  H   LIG    1       26.262 -19.759   3.754  0.00  0.00    +0.148 HD
ATOM     14  C   LIG    1       23.662 -16.150   4.133  0.00  0.00    +0.060 A 
ATOM     15  C   LIG    1       24.408 -20.416   4.373  0.00  0.00    +0.172 C 
ENDROOT
BRANCH  10  16
ATOM     16  S   LIG    1       24.471 -13.559   3.878  0.00  0.00    +0.057 S 
ATOM     17  O   LIG    1       25.755 -12.903   3.932  0.00  0.00    -0.153 OA
ATOM     18  O   LIG    1       23.441 -13.292   4.854  0.00  0.00    -0.153 OA
BRANCH  16  19
ATOM     19  N   LIG    1       23.774 -13.181   2.402  0.00  0.00    -0.203 NA
ATOM     20  H   LIG    1       22.767 -13.064   2.509  0.00  0.00    +0.144 HD
ATOM     21  H   LIG    1       24.036 -13.877   1.701  0.00  0.00    +0.144 HD
ENDBRANCH  16  19
ENDBRANCH  10  16
BRANCH  15  22
ATOM     22  C   LIG    1       24.719 -20.479   5.894  0.00  0.00    +0.109 C 
BRANCH  22  23
ATOM     23  S   LIG    1       26.187 -21.539   6.249  0.00  0.00    -0.149 S 
BRANCH  23  24
ATOM     24  C   LIG    1       27.282 -20.296   7.059  0.00  0.00    +0.182 C 
BRANCH  24  25
ATOM     25  C   LIG    1       28.569 -19.910   6.331  0.00  0.00    +0.399 C 
ATOM     26  F   LIG    1       28.306 -19.576   5.047  0.00  0.00    -0.170 F 
ATOM     27  F   LIG    1       29.441 -20.945   6.309  0.00  0.00    -0.170 F 
ATOM     28  F   LIG    1       29.206 -18.862   6.896  0.00  0.00    -0.170 F 
ENDBRANCH  24  25
ENDBRANCH  23  24
ENDBRANCH  22  23
ENDBRANCH  15  22
TORSDOF 6
ENDMDL
MODEL 2
REMARK VINA RESULT:      -2.4      0.781      1.176
REMARK  Name = *****
REMARK                            x       y       z     vdW  Elec       q    Type
REMARK                         _______ _______ _______ _____ _____    ______ ____
ROOT
ATOM      1  C   LIG    1       22.122 -20.851   4.047  0.00  0.00    +0.134 C 
ATOM      2  N   LIG    1       23.097 -19.763   3.896  0.00  0.00    -0.159 NA
ATOM      3  S   LIG    1       22.560 -18.243   4.356  0.00  0.00    +0.064 S 
ATOM      4  O   LIG    1       22.383 -18.253   5.795  0.00  0.00    -0.153 OA
ATOM      5  O   LIG    1       21.477 -17.870   3.473  0.00  0.00    -0.153 OA
ATOM      6  C   LIG    1       23.931 -17.203   4.006  0.00  0.00    +0.128 A 
ATOM      7  C   LIG    1       25.161 -17.780   3.697  0.00  0.00    +0.057 A 
ATOM      8  C   LIG    1       26.198 -16.912   3.329  0.00  0.00    +0.047 A 
ATOM      9  C   LIG    1       26.044 -15.516   3.356  0.00  0.00    +0.069 A 
ATOM     10  C   LIG    1       24.816 -14.970   3.732  0.00  0.00    +0.125 A 
ATOM     11 CL   LIG    1       27.420 -14.581   2.894  0.00  0.00    -0.082 Cl
ATOM     12  N   LIG    1       25.369 -19.153   3.602  0.00  0.00    -0.325 N 
ATOM     13  H   LIG    1       26.344 -19.431   3.713  0.00  0.00    +0.148 HD
ATOM     14  C   LIG    1       23.747 -15.815   4.050  0.00  0.00    +0.060 A 
ATOM     15  C   LIG    1       24.470 -20.085   4.276  0.00  0.00    +0.172 C 
ENDROOT
BRANCH  10  16
ATOM     16  S   LIG    1       24.573 -13.225   3.838  0.00  0.00    +0.057 S 
ATOM     17  O   LIG    1       24.068 -12.741   2.576  0.00  0.00    -0.153 OA
ATOM     18  O   LIG    1       25.729 -12.634   4.470  0.00  0.00    -0.153 OA
BRANCH  16  19
ATOM     19  N   LIG    1       23.343 -13.073   4.966  0.00  0.00    -0.203 NA
ATOM     20  H   LIG    1       23.438 -12.193   5.472  0.00  0.00    +0.144 HD
ATOM     21  H   LIG    1       23.316 -13.896   5.570  0.00  0.00    +0.144 HD
ENDBRANCH  16  19
ENDBRANCH  10  16
BRANCH  15  22
ATOM     22  C   LIG    1       24.740 -20.162   5.804  0.00  0.00    +0.109 C 
BRANCH  22  23
ATOM     23  S   LIG    1       25.975 -21.468   6.218  0.00  0.00    -0.149 S 
BRANCH  23  24
ATOM     24  C   LIG    1       27.256 -20.435   7.050  0.00  0.00    +0.182 C 
BRANCH  24  25
ATOM     25  C   LIG    1       28.458 -19.995   6.215  0.00  0.00    +0.399 C 
ATOM     26  F   LIG    1       29.427 -20.938   6.245  0.00  0.00    -0.170 F 
ATOM     27  F   LIG    1       28.992 -18.851   6.704  0.00  0.00    -0.170 F 
ATOM     28  F   LIG    1       28.152 -19.773   4.919  0.00  0.00    -0.170 F 
ENDBRANCH  24  25
ENDBRANCH  23  24
ENDBRANCH  22  23
ENDBRANCH  15  22
TORSDOF 6
ENDMDL
