MODEL 1
REMARK VINA RESULT:      -9.1      0.000      0.000
REMARK  Name = *****
REMARK                            x       y       z     vdW  Elec       q    Type
REMARK                         _______ _______ _______ _____ _____    ______ ____
ROOT
ATOM      1  C   LIG    1       24.521 -21.908   7.419  0.00  0.00    +0.190 C 
ENDROOT
BRANCH   1   2
ATOM      2  C   LIG    1       24.696 -23.367   6.970  0.00  0.00    -0.005 A 
ATOM      3  C   LIG    1       25.950 -24.010   6.966  0.00  0.00    +0.007 A 
ATOM      4  C   LIG    1       26.098 -25.347   6.558  0.00  0.00    +0.000 A 
ATOM      5  C   LIG    1       24.993 -26.098   6.171  0.00  0.00    +0.000 A 
ATOM      6  C   LIG    1       23.743 -25.512   6.193  0.00  0.00    +0.000 A 
ATOM      7  C   LIG    1       23.605 -24.179   6.587  0.00  0.00    +0.007 A 
ENDBRANCH   1   2
BRANCH   1   8
ATOM      8  C   LIG    1       24.446 -20.815   6.285  0.00  0.00    +0.036 C 
ATOM      9  C   LIG    1       24.748 -21.371   4.874  0.00  0.00    +0.007 C 
ATOM     10  C   LIG    1       23.760 -20.801   3.885  0.00  0.00    +0.000 C 
ATOM     11  C   LIG    1       22.546 -20.475   4.717  0.00  0.00    +0.000 C 
ATOM     12  C   LIG    1       23.072 -20.125   6.105  0.00  0.00    +0.007 C 
ENDBRANCH   1   8
BRANCH   1  13
ATOM     13  C   LIG    1       25.749 -21.493   8.380  0.00  0.00    +0.344 C 
ATOM     14  O   LIG    1       25.704 -21.269   9.559  0.00  0.00    -0.247 OA
BRANCH  13  15
ATOM     15  O   LIG    1       26.900 -21.348   7.609  0.00  0.00    -0.454 OA
BRANCH  15  19
ATOM     16  C   LIG    1       30.933 -19.438   7.728  0.00  0.00    +0.192 C 
ATOM     17  N   LIG    1       29.704 -20.332   7.667  0.00  0.00    +0.242 N 
ATOM     18  C   LIG    1       28.460 -19.603   8.251  0.00  0.00    +0.178 C 
ATOM     19  C   LIG    1       27.309 -19.990   7.314  0.00  0.00    +0.226 C 
ATOM     20  C   LIG    1       27.999 -19.940   5.962  0.00  0.00    +0.101 C 
ATOM     21  C   LIG    1       29.326 -20.645   6.204  0.00  0.00    +0.136 C 
ATOM     22  C   LIG    1       29.981 -21.618   8.449  0.00  0.00    +0.192 C 
ENDBRANCH  15  19
ENDBRANCH  13  15
ENDBRANCH   1  13
BRANCH   1  23
ATOM     23  O   LIG    1       23.303 -21.817   8.182  0.00  0.00    -0.373 OA
ATOM     24  H   LIG    1       23.154 -22.698   8.565  0.00  0.00    +0.211 HD
ENDBRANCH   1  23
TORSDOF 6
ENDMDL
MODEL 2
REMARK VINA RESULT:      -8.7      0.706      1.126
REMARK  Name = *****
REMARK                            x       y       z     vdW  Elec       q    Type
REMARK                         _______ _______ _______ _____ _____    ______ ____
ROOT
ATOM      1  C   LIG    1       24.737 -21.613   7.322  0.00  0.00    +0.190 C 
ENDROOT
BRANCH   1   2
ATOM      2  C   LIG    1       24.778 -23.098   6.934  0.00  0.00    -0.005 A 
ATOM      3  C   LIG    1       25.981 -23.833   6.888  0.00  0.00    +0.007 A 
ATOM      4  C   LIG    1       26.007 -25.194   6.538  0.00  0.00    +0.000 A 
ATOM      5  C   LIG    1       24.829 -25.877   6.254  0.00  0.00    +0.000 A 
ATOM      6  C   LIG    1       23.628 -25.199   6.321  0.00  0.00    +0.000 A 
ATOM      7  C   LIG    1       23.611 -23.844   6.657  0.00  0.00    +0.007 A 
ENDBRANCH   1   2
BRANCH   1   8
ATOM      8  C   LIG    1       24.597 -20.571   6.146  0.00  0.00    +0.036 C 
ATOM      9  C   LIG    1       24.853 -21.183   4.749  0.00  0.00    +0.007 C 
ATOM     10  C   LIG    1       23.817 -20.673   3.777  0.00  0.00    +0.000 C 
ATOM     11  C   LIG    1       22.630 -20.332   4.642  0.00  0.00    +0.000 C 
ATOM     12  C   LIG    1       23.204 -19.913   5.992  0.00  0.00    +0.007 C 
ENDBRANCH   1   8
BRANCH   1  13
ATOM     13  C   LIG    1       26.085 -21.229   8.120  0.00  0.00    +0.344 C 
ATOM     14  O   LIG    1       26.446 -21.656   9.183  0.00  0.00    -0.247 OA
BRANCH  13  15
ATOM     15  O   LIG    1       26.762 -20.236   7.416  0.00  0.00    -0.454 OA
BRANCH  15  19
ATOM     16  C   LIG    1       31.123 -19.366   7.020  0.00  0.00    +0.192 C 
ATOM     17  N   LIG    1       29.674 -19.586   7.425  0.00  0.00    +0.242 N 
ATOM     18  C   LIG    1       28.741 -19.564   6.181  0.00  0.00    +0.178 C 
ATOM     19  C   LIG    1       27.728 -20.687   6.436  0.00  0.00    +0.226 C 
ATOM     20  C   LIG    1       28.620 -21.756   7.043  0.00  0.00    +0.101 C 
ATOM     21  C   LIG    1       29.482 -20.990   8.035  0.00  0.00    +0.136 C 
ATOM     22  C   LIG    1       29.261 -18.496   8.417  0.00  0.00    +0.192 C 
ENDBRANCH  15  19
ENDBRANCH  13  15
ENDBRANCH   1  13
BRANCH   1  23
ATOM     23  O   LIG    1       23.619 -21.411   8.207  0.00  0.00    -0.373 OA
ATOM     24  H   LIG    1       22.818 -21.533   7.668  0.00  0.00    +0.211 HD
ENDBRANCH   1  23
TORSDOF 6
ENDMDL
MODEL 3
REMARK VINA RESULT:      -8.7      0.952      3.555
REMARK  Name = *****
REMARK                            x       y       z     vdW  Elec       q    Type
REMARK                         _______ _______ _______ _____ _____    ______ ____
ROOT
ATOM      1  C   LIG    1       25.784 -22.104   6.947  0.00  0.00    +0.190 C 
ENDROOT
BRANCH   1   2
ATOM      2  C   LIG    1       24.879 -21.154   6.149  0.00  0.00    -0.005 A 
ATOM      3  C   LIG    1       25.234 -20.669   4.873  0.00  0.00    +0.007 A 
ATOM      4  C   LIG    1       24.396 -19.804   4.149  0.00  0.00    +0.000 A 
ATOM      5  C   LIG    1       23.160 -19.420   4.658  0.00  0.00    +0.000 A 
ATOM      6  C   LIG    1       22.764 -19.901   5.891  0.00  0.00    +0.000 A 
ATOM      7  C   LIG    1       23.607 -20.750   6.611  0.00  0.00    +0.007 A 
ENDBRANCH   1   2
BRANCH   1   8
ATOM      8  C   LIG    1       25.170 -23.495   7.363  0.00  0.00    +0.036 C 
ATOM      9  C   LIG    1       23.795 -23.779   6.715  0.00  0.00    +0.007 C 
ATOM     10  C   LIG    1       23.748 -25.209   6.235  0.00  0.00    +0.000 C 
ATOM     11  C   LIG    1       25.192 -25.565   5.985  0.00  0.00    +0.000 C 
ATOM     12  C   LIG    1       26.003 -24.742   6.979  0.00  0.00    +0.007 C 
ENDBRANCH   1   8
BRANCH   1  13
ATOM     13  C   LIG    1       26.252 -21.380   8.311  0.00  0.00    +0.344 C 
ATOM     14  O   LIG    1       25.563 -21.082   9.248  0.00  0.00    -0.247 OA
BRANCH  13  15
ATOM     15  O   LIG    1       27.606 -21.064   8.215  0.00  0.00    -0.454 OA
BRANCH  15  19
ATOM     16  C   LIG    1       31.547 -18.989   7.913  0.00  0.00    +0.192 C 
ATOM     17  N   LIG    1       30.356 -19.932   7.977  0.00  0.00    +0.242 N 
ATOM     18  C   LIG    1       29.154 -19.259   8.701  0.00  0.00    +0.178 C 
ATOM     19  C   LIG    1       27.924 -19.690   7.891  0.00  0.00    +0.226 C 
ATOM     20  C   LIG    1       28.460 -19.603   6.472  0.00  0.00    +0.101 C 
ATOM     21  C   LIG    1       29.833 -20.253   6.561  0.00  0.00    +0.136 C 
ATOM     22  C   LIG    1       30.769 -21.210   8.712  0.00  0.00    +0.192 C 
ENDBRANCH  15  19
ENDBRANCH  13  15
ENDBRANCH   1  13
BRANCH   1  23
ATOM     23  O   LIG    1       26.958 -22.375   6.158  0.00  0.00    -0.373 OA
ATOM     24  H   LIG    1       27.716 -22.050   6.674  0.00  0.00    +0.211 HD
ENDBRANCH   1  23
TORSDOF 6
ENDMDL
MODEL 4
REMARK VINA RESULT:      -8.3      1.255      3.885
REMARK  Name = *****
REMARK                            x       y       z     vdW  Elec       q    Type
REMARK                         _______ _______ _______ _____ _____    ______ ____
ROOT
ATOM      1  C   LIG    1       25.515 -21.472   6.731  0.00  0.00    +0.190 C 
ENDROOT
BRANCH   1   2
ATOM      2  C   LIG    1       24.595 -20.620   5.845  0.00  0.00    -0.005 A 
ATOM      3  C   LIG    1       24.982 -20.172   4.566  0.00  0.00    +0.007 A 
ATOM      4  C   LIG    1       24.130 -19.397   3.760  0.00  0.00    +0.000 A 
ATOM      5  C   LIG    1       22.849 -19.070   4.191  0.00  0.00    +0.000 A 
ATOM      6  C   LIG    1       22.422 -19.517   5.426  0.00  0.00    +0.000 A 
ATOM      7  C   LIG    1       23.278 -20.277   6.226  0.00  0.00    +0.007 A 
ENDBRANCH   1   2
BRANCH   1   8
ATOM      8  C   LIG    1       24.899 -22.787   7.345  0.00  0.00    +0.036 C 
ATOM      9  C   LIG    1       23.573 -23.216   6.674  0.00  0.00    +0.007 C 
ATOM     10  C   LIG    1       23.581 -24.708   6.448  0.00  0.00    +0.000 C 
ATOM     11  C   LIG    1       25.043 -25.062   6.349  0.00  0.00    +0.000 C 
ATOM     12  C   LIG    1       25.776 -24.058   7.232  0.00  0.00    +0.007 C 
ENDBRANCH   1   8
BRANCH   1  13
ATOM     13  C   LIG    1       26.037 -20.584   7.973  0.00  0.00    +0.344 C 
ATOM     14  O   LIG    1       25.487 -20.416   9.027  0.00  0.00    -0.247 OA
BRANCH  13  15
ATOM     15  O   LIG    1       27.224 -19.950   7.610  0.00  0.00    -0.454 OA
BRANCH  15  19
ATOM     16  C   LIG    1       31.508 -19.162   6.633  0.00  0.00    +0.192 C 
ATOM     17  N   LIG    1       30.000 -19.185   6.834  0.00  0.00    +0.242 N 
ATOM     18  C   LIG    1       29.501 -20.631   7.116  0.00  0.00    +0.178 C 
ATOM     19  C   LIG    1       28.437 -20.466   8.209  0.00  0.00    +0.226 C 
ATOM     20  C   LIG    1       29.075 -19.402   9.084  0.00  0.00    +0.101 C 
ATOM     21  C   LIG    1       29.602 -18.379   8.088  0.00  0.00    +0.136 C 
ATOM     22  C   LIG    1       29.321 -18.623   5.583  0.00  0.00    +0.192 C 
ENDBRANCH  15  19
ENDBRANCH  13  15
ENDBRANCH   1  13
BRANCH   1  23
ATOM     23  O   LIG    1       26.658 -21.862   5.947  0.00  0.00    -0.373 OA
ATOM     24  H   LIG    1       26.357 -21.894   5.022  0.00  0.00    +0.211 HD
ENDBRANCH   1  23
TORSDOF 6
ENDMDL
MODEL 5
REMARK VINA RESULT:      -8.1      2.098      5.633
REMARK  Name = *****
REMARK                            x       y       z     vdW  Elec       q    Type
REMARK                         _______ _______ _______ _____ _____    ______ ____
ROOT
ATOM      1  C   LIG    1       26.171 -21.017   6.981  0.00  0.00    +0.190 C 
ENDROOT
BRANCH   1   2
ATOM      2  C   LIG    1       25.084 -20.529   6.012  0.00  0.00    -0.005 A 
ATOM      3  C   LIG    1       25.362 -20.206   4.668  0.00  0.00    +0.007 A 
ATOM      4  C   LIG    1       24.358 -19.766   3.788  0.00  0.00    +0.000 A 
ATOM      5  C   LIG    1       23.038 -19.665   4.210  0.00  0.00    +0.000 A 
ATOM      6  C   LIG    1       22.721 -20.003   5.511  0.00  0.00    +0.000 A 
ATOM      7  C   LIG    1       23.725 -20.427   6.384  0.00  0.00    +0.007 A 
ENDBRANCH   1   2
BRANCH   1   8
ATOM      8  C   LIG    1       27.654 -21.026   6.446  0.00  0.00    +0.036 C 
ATOM      9  C   LIG    1       28.130 -19.649   5.929  0.00  0.00    +0.007 C 
ATOM     10  C   LIG    1       29.534 -19.385   6.416  0.00  0.00    +0.000 C 
ATOM     11  C   LIG    1       29.650 -20.200   7.678  0.00  0.00    +0.000 C 
ATOM     12  C   LIG    1       28.741 -21.408   7.480  0.00  0.00    +0.007 C 
ENDBRANCH   1   8
BRANCH   1  13
ATOM     13  C   LIG    1       25.838 -22.526   7.445  0.00  0.00    +0.344 C 
ATOM     14  O   LIG    1       25.559 -22.900   8.551  0.00  0.00    -0.247 OA
BRANCH  13  15
ATOM     15  O   LIG    1       26.002 -23.381   6.358  0.00  0.00    -0.454 OA
BRANCH  15  19
ATOM     16  C   LIG    1       24.539 -27.348   4.925  0.00  0.00    +0.192 C 
ATOM     17  N   LIG    1       25.193 -26.149   5.594  0.00  0.00    +0.242 N 
ATOM     18  C   LIG    1       25.119 -24.895   4.678  0.00  0.00    +0.178 C 
ATOM     19  C   LIG    1       24.801 -23.736   5.632  0.00  0.00    +0.226 C 
ATOM     20  C   LIG    1       23.804 -24.393   6.572  0.00  0.00    +0.101 C 
ATOM     21  C   LIG    1       24.427 -25.749   6.872  0.00  0.00    +0.136 C 
ATOM     22  C   LIG    1       26.651 -26.488   5.912  0.00  0.00    +0.192 C 
ENDBRANCH  15  19
ENDBRANCH  13  15
ENDBRANCH   1  13
BRANCH   1  23
ATOM     23  O   LIG    1       26.144 -20.173   8.148  0.00  0.00    -0.373 OA
ATOM     24  H   LIG    1       26.163 -20.768   8.917  0.00  0.00    +0.211 HD
ENDBRANCH   1  23
TORSDOF 6
ENDMDL
MODEL 6
REMARK VINA RESULT:      -7.9      2.403      5.660
REMARK  Name = *****
REMARK                            x       y       z     vdW  Elec       q    Type
REMARK                         _______ _______ _______ _____ _____    ______ ____
ROOT
ATOM      1  C   LIG    1       24.032 -21.978   7.014  0.00  0.00    +0.190 C 
ENDROOT
BRANCH   1   2
ATOM      2  C   LIG    1       23.729 -21.111   5.783  0.00  0.00    -0.005 A 
ATOM      3  C   LIG    1       22.837 -20.020   5.831  0.00  0.00    +0.007 A 
ATOM      4  C   LIG    1       22.571 -19.228   4.700  0.00  0.00    +0.000 A 
ATOM      5  C   LIG    1       23.210 -19.479   3.492  0.00  0.00    +0.000 A 
ATOM      6  C   LIG    1       24.116 -20.519   3.414  0.00  0.00    +0.000 A 
ATOM      7  C   LIG    1       24.366 -21.309   4.538  0.00  0.00    +0.007 A 
ENDBRANCH   1   2
BRANCH   1   8
ATOM      8  C   LIG    1       25.536 -22.057   7.480  0.00  0.00    +0.036 C 
ATOM      9  C   LIG    1       26.498 -21.230   6.595  0.00  0.00    +0.007 C 
ATOM     10  C   LIG    1       27.475 -20.484   7.471  0.00  0.00    +0.000 C 
ATOM     11  C   LIG    1       26.748 -20.317   8.781  0.00  0.00    +0.000 C 
ATOM     12  C   LIG    1       25.828 -21.528   8.905  0.00  0.00    +0.007 C 
ENDBRANCH   1   8
BRANCH   1  13
ATOM     13  C   LIG    1       23.557 -23.494   6.732  0.00  0.00    +0.344 C 
ATOM     14  O   LIG    1       22.455 -23.865   6.432  0.00  0.00    -0.247 OA
BRANCH  13  15
ATOM     15  O   LIG    1       24.626 -24.356   6.969  0.00  0.00    -0.454 OA
BRANCH  15  19
ATOM     16  C   LIG    1       26.113 -28.117   5.080  0.00  0.00    +0.192 C 
ATOM     17  N   LIG    1       25.392 -26.998   5.814  0.00  0.00    +0.242 N 
ATOM     18  C   LIG    1       26.366 -25.828   6.133  0.00  0.00    +0.178 C 
ATOM     19  C   LIG    1       25.545 -24.558   5.870  0.00  0.00    +0.226 C 
ATOM     20  C   LIG    1       24.778 -24.957   4.621  0.00  0.00    +0.101 C 
ATOM     21  C   LIG    1       24.301 -26.370   4.922  0.00  0.00    +0.136 C 
ATOM     22  C   LIG    1       24.790 -27.554   7.107  0.00  0.00    +0.192 C 
ENDBRANCH  15  19
ENDBRANCH  13  15
ENDBRANCH   1  13
BRANCH   1  23
ATOM     23  O   LIG    1       23.268 -21.468   8.123  0.00  0.00    -0.373 OA
ATOM     24  H   LIG    1       22.475 -21.053   7.740  0.00  0.00    +0.211 HD
ENDBRANCH   1  23
TORSDOF 6
ENDMDL
MODEL 7
REMARK VINA RESULT:      -7.8      2.235      5.481
REMARK  Name = *****
REMARK                            x       y       z     vdW  Elec       q    Type
REMARK                         _______ _______ _______ _____ _____    ______ ____
ROOT
ATOM      1  C   LIG    1       25.528 -21.260   6.011  0.00  0.00    +0.190 C 
ENDROOT
BRANCH   1   2
ATOM      2  C   LIG    1       26.829 -20.518   6.351  0.00  0.00    -0.005 A 
ATOM      3  C   LIG    1       27.392 -20.537   7.644  0.00  0.00    +0.007 A 
ATOM      4  C   LIG    1       28.587 -19.860   7.943  0.00  0.00    +0.000 A 
ATOM      5  C   LIG    1       29.278 -19.168   6.955  0.00  0.00    +0.000 A 
ATOM      6  C   LIG    1       28.775 -19.154   5.669  0.00  0.00    +0.000 A 
ATOM      7  C   LIG    1       27.581 -19.818   5.381  0.00  0.00    +0.007 A 
ENDBRANCH   1   2
BRANCH   1   8
ATOM      8  C   LIG    1       24.180 -20.468   6.216  0.00  0.00    +0.036 C 
ATOM      9  C   LIG    1       23.868 -19.477   5.071  0.00  0.00    +0.007 C 
ATOM     10  C   LIG    1       22.408 -19.572   4.704  0.00  0.00    +0.000 C 
ATOM     11  C   LIG    1       22.014 -20.971   5.102  0.00  0.00    +0.000 C 
ATOM     12  C   LIG    1       22.897 -21.331   6.292  0.00  0.00    +0.007 C 
ENDBRANCH   1   8
BRANCH   1  13
ATOM     13  C   LIG    1       25.420 -22.595   6.909  0.00  0.00    +0.344 C 
ATOM     14  O   LIG    1       25.185 -22.662   8.085  0.00  0.00    -0.247 OA
BRANCH  13  15
ATOM     15  O   LIG    1       25.728 -23.700   6.118  0.00  0.00    -0.454 OA
BRANCH  15  19
ATOM     16  C   LIG    1       24.998 -27.945   4.944  0.00  0.00    +0.192 C 
ATOM     17  N   LIG    1       25.420 -26.610   5.538  0.00  0.00    +0.242 N 
ATOM     18  C   LIG    1       25.162 -25.451   4.534  0.00  0.00    +0.178 C 
ATOM     19  C   LIG    1       24.625 -24.302   5.399  0.00  0.00    +0.226 C 
ATOM     20  C   LIG    1       23.727 -25.055   6.365  0.00  0.00    +0.101 C 
ATOM     21  C   LIG    1       24.560 -26.262   6.771  0.00  0.00    +0.136 C 
ATOM     22  C   LIG    1       26.905 -26.673   5.905  0.00  0.00    +0.192 C 
ENDBRANCH  15  19
ENDBRANCH  13  15
ENDBRANCH   1  13
BRANCH   1  23
ATOM     23  O   LIG    1       25.585 -21.654   4.626  0.00  0.00    -0.373 OA
ATOM     24  H   LIG    1       26.243 -22.368   4.573  0.00  0.00    +0.211 HD
ENDBRANCH   1  23
TORSDOF 6
ENDMDL
MODEL 8
REMARK VINA RESULT:      -7.5      2.518      5.289
REMARK  Name = *****
REMARK                            x       y       z     vdW  Elec       q    Type
REMARK                         _______ _______ _______ _____ _____    ______ ____
ROOT
ATOM      1  C   LIG    1       24.184 -22.058   5.428  0.00  0.00    +0.190 C 
ENDROOT
BRANCH   1   2
ATOM      2  C   LIG    1       25.203 -21.421   6.384  0.00  0.00    -0.005 A 
ATOM      3  C   LIG    1       26.355 -20.752   5.922  0.00  0.00    +0.007 A 
ATOM      4  C   LIG    1       27.279 -20.167   6.805  0.00  0.00    +0.000 A 
ATOM      5  C   LIG    1       27.067 -20.202   8.179  0.00  0.00    +0.000 A 
ATOM      6  C   LIG    1       25.933 -20.820   8.668  0.00  0.00    +0.000 A 
ATOM      7  C   LIG    1       25.026 -21.410   7.785  0.00  0.00    +0.007 A 
ENDBRANCH   1   2
BRANCH   1   8
ATOM      8  C   LIG    1       23.142 -21.092   4.746  0.00  0.00    +0.036 C 
ATOM      9  C   LIG    1       22.686 -19.933   5.663  0.00  0.00    +0.007 C 
ATOM     10  C   LIG    1       22.650 -18.648   4.873  0.00  0.00    +0.000 C 
ATOM     11  C   LIG    1       23.650 -18.863   3.766  0.00  0.00    +0.000 C 
ATOM     12  C   LIG    1       23.634 -20.360   3.474  0.00  0.00    +0.007 C 
ENDBRANCH   1   8
BRANCH   1  13
ATOM     13  C   LIG    1       23.329 -23.173   6.221  0.00  0.00    +0.344 C 
ATOM     14  O   LIG    1       22.555 -22.991   7.120  0.00  0.00    -0.247 OA
BRANCH  13  15
ATOM     15  O   LIG    1       23.685 -24.436   5.751  0.00  0.00    -0.454 OA
BRANCH  15  19
ATOM     16  C   LIG    1       26.439 -27.936   5.436  0.00  0.00    +0.192 C 
ATOM     17  N   LIG    1       25.635 -26.651   5.311  0.00  0.00    +0.242 N 
ATOM     18  C   LIG    1       24.286 -26.766   6.077  0.00  0.00    +0.178 C 
ATOM     19  C   LIG    1       24.104 -25.398   6.749  0.00  0.00    +0.226 C 
ATOM     20  C   LIG    1       25.525 -25.097   7.193  0.00  0.00    +0.101 C 
ATOM     21  C   LIG    1       26.372 -25.475   5.987  0.00  0.00    +0.136 C 
ATOM     22  C   LIG    1       25.381 -26.361   3.830  0.00  0.00    +0.192 C 
ENDBRANCH  15  19
ENDBRANCH  13  15
ENDBRANCH   1  13
BRANCH   1  23
ATOM     23  O   LIG    1       24.910 -22.716   4.372  0.00  0.00    -0.373 OA
ATOM     24  H   LIG    1       25.605 -23.242   4.804  0.00  0.00    +0.211 HD
ENDBRANCH   1  23
TORSDOF 6
ENDMDL
MODEL 9
REMARK VINA RESULT:      -7.3      1.264      2.193
REMARK  Name = *****
REMARK                            x       y       z     vdW  Elec       q    Type
REMARK                         _______ _______ _______ _____ _____    ______ ____
ROOT
ATOM      1  C   LIG    1       24.494 -21.342   6.257  0.00  0.00    +0.190 C 
ENDROOT
BRANCH   1   2
ATOM      2  C   LIG    1       24.674 -22.863   6.370  0.00  0.00    -0.005 A 
ATOM      3  C   LIG    1       25.919 -23.456   6.664  0.00  0.00    +0.007 A 
ATOM      4  C   LIG    1       26.072 -24.849   6.771  0.00  0.00    +0.000 A 
ATOM      5  C   LIG    1       24.980 -25.697   6.620  0.00  0.00    +0.000 A 
ATOM      6  C   LIG    1       23.738 -25.152   6.362  0.00  0.00    +0.000 A 
ATOM      7  C   LIG    1       23.595 -23.767   6.245  0.00  0.00    +0.007 A 
ENDBRANCH   1   2
BRANCH   1   8
ATOM      8  C   LIG    1       23.335 -20.827   5.321  0.00  0.00    +0.036 C 
ATOM      9  C   LIG    1       22.647 -19.544   5.842  0.00  0.00    +0.007 C 
ATOM     10  C   LIG    1       22.430 -18.587   4.696  0.00  0.00    +0.000 C 
ATOM     11  C   LIG    1       23.502 -18.949   3.699  0.00  0.00    +0.000 C 
ATOM     12  C   LIG    1       23.753 -20.442   3.881  0.00  0.00    +0.007 C 
ENDBRANCH   1   8
BRANCH   1  13
ATOM     13  C   LIG    1       25.859 -20.680   5.710  0.00  0.00    +0.344 C 
ATOM     14  O   LIG    1       26.282 -20.713   4.586  0.00  0.00    -0.247 OA
BRANCH  13  15
ATOM     15  O   LIG    1       26.545 -20.106   6.778  0.00  0.00    -0.454 OA
BRANCH  15  19
ATOM     16  C   LIG    1       30.968 -19.505   6.751  0.00  0.00    +0.192 C 
ATOM     17  N   LIG    1       29.450 -19.432   6.706  0.00  0.00    +0.242 N 
ATOM     18  C   LIG    1       28.836 -20.836   6.443  0.00  0.00    +0.178 C 
ATOM     19  C   LIG    1       27.607 -20.900   7.360  0.00  0.00    +0.226 C 
ATOM     20  C   LIG    1       28.137 -20.218   8.610  0.00  0.00    +0.101 C 
ATOM     21  C   LIG    1       28.880 -19.004   8.075  0.00  0.00    +0.136 C 
ATOM     22  C   LIG    1       29.029 -18.454   5.607  0.00  0.00    +0.192 C 
ENDBRANCH  15  19
ENDBRANCH  13  15
ENDBRANCH   1  13
BRANCH   1  23
ATOM     23  O   LIG    1       24.240 -20.822   7.576  0.00  0.00    -0.373 OA
ATOM     24  H   LIG    1       24.513 -19.888   7.558  0.00  0.00    +0.211 HD
ENDBRANCH   1  23
TORSDOF 6
ENDMDL
