MODEL 1
REMARK VINA RESULT:      -6.3      0.000      0.000
REMARK  Name = *****
REMARK                            x       y       z     vdW  Elec       q    Type
REMARK                         _______ _______ _______ _____ _____    ______ ____
ROOT
ATOM      1  C   LIG    1       24.792 -30.644   8.376  0.00  0.00    +0.176 C 
ATOM      2  C   LIG    1       25.937 -30.603   9.462  0.00  0.00    +0.018 C 
ATOM      3  C   LIG    1       27.027 -31.656   9.185  0.00  0.00    +0.016 C 
ATOM      4  C   LIG    1       25.189 -30.904  10.782  0.00  0.00    +0.006 C 
ATOM      5  C   LIG    1       26.000 -30.583  12.065  0.00  0.00    +0.019 C 
ATOM      6  C   LIG    1       26.746 -29.229  12.098  0.00  0.00    +0.004 C 
ATOM      7  C   LIG    1       27.483 -28.994  10.772  0.00  0.00    +0.005 C 
ATOM      8  C   LIG    1       25.825 -28.072  12.576  0.00  0.00    +0.024 C 
ATOM      9  C   LIG    1       25.172 -28.410  13.927  0.00  0.00    -0.038 C 
ATOM     10  C   LIG    1       24.896 -27.450  14.831  0.00  0.00    +0.050 C 
ATOM     11  C   LIG    1       25.151 -26.015  14.563  0.00  0.00    +0.156 C 
ATOM     12  O   LIG    1       24.841 -25.180  15.410  0.00  0.00    -0.293 OA
ATOM     13  C   LIG    1       25.706 -25.624  13.222  0.00  0.00    +0.079 C 
ATOM     14  C   LIG    1       24.856 -29.824  14.189  0.00  0.00    -0.051 C 
ATOM     15  C   LIG    1       24.140 -30.208  15.463  0.00  0.00    +0.044 C 
ATOM     16  C   LIG    1       26.581 -26.731  12.654  0.00  0.00    +0.016 C 
ATOM     17  C   LIG    1       25.197 -30.790  13.317  0.00  0.00    -0.019 C 
ATOM     18  C   LIG    1       23.814 -30.232  10.615  0.00  0.00    +0.009 C 
ATOM     19  C   LIG    1       26.600 -29.193   9.542  0.00  0.00    +0.011 C 
ATOM     20  C   LIG    1       23.636 -29.935   9.121  0.00  0.00    +0.057 C 
ENDROOT
BRANCH   1  21
ATOM     21  C   LIG    1       24.347 -32.101   8.004  0.00  0.00    +0.174 C 
ATOM     22  O   LIG    1       24.996 -32.793   7.210  0.00  0.00    -0.293 OA
ATOM     23  C   LIG    1       23.023 -32.624   8.518  0.00  0.00    +0.090 C 
ENDBRANCH   1  21
BRANCH   1  24
ATOM     24  O   LIG    1       25.216 -29.836   7.262  0.00  0.00    -0.450 OA
BRANCH  24  26
ATOM     25  C   LIG    1       24.482 -27.819   6.328  0.00  0.00    +0.136 C 
ATOM     26  C   LIG    1       24.278 -29.296   6.444  0.00  0.00    +0.305 C 
ATOM     27  O   LIG    1       23.359 -29.913   5.919  0.00  0.00    -0.251 OA
ENDBRANCH  24  26
ENDBRANCH   1  24
TORSDOF 3
ENDMDL
MODEL 2
REMARK VINA RESULT:      -6.1      1.397      1.583
REMARK  Name = *****
REMARK                            x       y       z     vdW  Elec       q    Type
REMARK                         _______ _______ _______ _____ _____    ______ ____
ROOT
ATOM      1  C   LIG    1       25.100 -30.306   8.201  0.00  0.00    +0.176 C 
ATOM      2  C   LIG    1       25.910 -30.135   9.545  0.00  0.00    +0.018 C 
ATOM      3  C   LIG    1       27.304 -30.785   9.461  0.00  0.00    +0.016 C 
ATOM      4  C   LIG    1       25.022 -30.847  10.592  0.00  0.00    +0.006 C 
ATOM      5  C   LIG    1       25.393 -30.535  12.066  0.00  0.00    +0.019 C 
ATOM      6  C   LIG    1       25.660 -29.054  12.419  0.00  0.00    +0.004 C 
ATOM      7  C   LIG    1       26.560 -28.406  11.357  0.00  0.00    +0.005 C 
ATOM      8  C   LIG    1       24.346 -28.293  12.751  0.00  0.00    +0.024 C 
ATOM      9  C   LIG    1       23.551 -29.019  13.849  0.00  0.00    -0.038 C 
ATOM     10  C   LIG    1       22.802 -28.337  14.737  0.00  0.00    +0.050 C 
ATOM     11  C   LIG    1       22.655 -26.865  14.683  0.00  0.00    +0.156 C 
ATOM     12  O   LIG    1       21.925 -26.302  15.497  0.00  0.00    -0.293 OA
ATOM     13  C   LIG    1       23.342 -26.117  13.575  0.00  0.00    +0.079 C 
ATOM     14  C   LIG    1       23.636 -30.488  13.884  0.00  0.00    -0.051 C 
ATOM     15  C   LIG    1       22.813 -31.263  14.887  0.00  0.00    +0.044 C 
ATOM     16  C   LIG    1       24.617 -26.828  13.150  0.00  0.00    +0.016 C 
ATOM     17  C   LIG    1       24.440 -31.163  13.042  0.00  0.00    -0.019 C 
ATOM     18  C   LIG    1       23.578 -30.561  10.140  0.00  0.00    +0.009 C 
ATOM     19  C   LIG    1       26.073 -28.631   9.928  0.00  0.00    +0.011 C 
ATOM     20  C   LIG    1       23.648 -30.078   8.686  0.00  0.00    +0.057 C 
ENDROOT
BRANCH   1  21
ATOM     21  C   LIG    1       25.218 -31.745   7.589  0.00  0.00    +0.174 C 
ATOM     22  O   LIG    1       24.616 -32.707   8.080  0.00  0.00    -0.293 OA
ATOM     23  C   LIG    1       26.195 -31.991   6.460  0.00  0.00    +0.090 C 
ENDBRANCH   1  21
BRANCH   1  24
ATOM     24  O   LIG    1       25.487 -29.237   7.318  0.00  0.00    -0.450 OA
BRANCH  24  26
ATOM     25  C   LIG    1       24.650 -27.230   6.450  0.00  0.00    +0.136 C 
ATOM     26  C   LIG    1       24.569 -28.724   6.461  0.00  0.00    +0.305 C 
ATOM     27  O   LIG    1       23.749 -29.379   5.828  0.00  0.00    -0.251 OA
ENDBRANCH  24  26
ENDBRANCH   1  24
TORSDOF 3
ENDMDL
MODEL 3
REMARK VINA RESULT:      -5.9      1.849      2.776
REMARK  Name = *****
REMARK                            x       y       z     vdW  Elec       q    Type
REMARK                         _______ _______ _______ _____ _____    ______ ____
ROOT
ATOM      1  C   LIG    1       25.400 -31.457   9.313  0.00  0.00    +0.176 C 
ATOM      2  C   LIG    1       25.283 -31.379  10.886  0.00  0.00    +0.018 C 
ATOM      3  C   LIG    1       25.148 -32.777  11.520  0.00  0.00    +0.016 C 
ATOM      4  C   LIG    1       24.005 -30.536  11.108  0.00  0.00    +0.006 C 
ATOM      5  C   LIG    1       23.835 -30.000  12.554  0.00  0.00    +0.019 C 
ATOM      6  C   LIG    1       25.085 -29.376  13.217  0.00  0.00    +0.004 C 
ATOM      7  C   LIG    1       26.315 -30.263  12.979  0.00  0.00    +0.005 C 
ATOM      8  C   LIG    1       25.249 -27.876  12.845  0.00  0.00    +0.024 C 
ATOM      9  C   LIG    1       23.967 -27.087  13.159  0.00  0.00    -0.038 C 
ATOM     10  C   LIG    1       24.016 -25.798  13.548  0.00  0.00    +0.050 C 
ATOM     11  C   LIG    1       25.291 -25.049  13.644  0.00  0.00    +0.156 C 
ATOM     12  O   LIG    1       25.269 -23.862  13.964  0.00  0.00    -0.293 OA
ATOM     13  C   LIG    1       26.564 -25.750  13.261  0.00  0.00    +0.079 C 
ATOM     14  C   LIG    1       22.685 -27.795  13.013  0.00  0.00    -0.051 C 
ATOM     15  C   LIG    1       21.388 -27.051  13.229  0.00  0.00    +0.044 C 
ATOM     16  C   LIG    1       26.468 -27.241  13.544  0.00  0.00    +0.016 C 
ATOM     17  C   LIG    1       22.640 -29.102  12.695  0.00  0.00    -0.019 C 
ATOM     18  C   LIG    1       24.006 -29.512   9.959  0.00  0.00    +0.009 C 
ATOM     19  C   LIG    1       26.511 -30.652  11.515  0.00  0.00    +0.011 C 
ATOM     20  C   LIG    1       24.997 -30.020   8.903  0.00  0.00    +0.057 C 
ENDROOT
BRANCH   1  21
ATOM     21  C   LIG    1       24.396 -32.476   8.669  0.00  0.00    +0.174 C 
ATOM     22  O   LIG    1       24.303 -33.638   9.080  0.00  0.00    -0.293 OA
ATOM     23  C   LIG    1       23.625 -32.073   7.432  0.00  0.00    +0.090 C 
ENDBRANCH   1  21
BRANCH   1  24
ATOM     24  O   LIG    1       26.784 -31.681   8.987  0.00  0.00    -0.450 OA
BRANCH  24  26
ATOM     25  C   LIG    1       27.689 -33.772   8.448  0.00  0.00    +0.136 C 
ATOM     26  C   LIG    1       27.095 -32.494   7.947  0.00  0.00    +0.305 C 
ATOM     27  O   LIG    1       26.964 -32.207   6.762  0.00  0.00    -0.251 OA
ENDBRANCH  24  26
ENDBRANCH   1  24
TORSDOF 3
ENDMDL
MODEL 4
REMARK VINA RESULT:      -5.4      3.187      3.794
REMARK  Name = *****
REMARK                            x       y       z     vdW  Elec       q    Type
REMARK                         _______ _______ _______ _____ _____    ______ ____
ROOT
ATOM      1  C   LIG    1       24.593 -31.004  10.182  0.00  0.00    +0.176 C 
ATOM      2  C   LIG    1       24.652 -30.437  11.654  0.00  0.00    +0.018 C 
ATOM      3  C   LIG    1       25.942 -30.861  12.380  0.00  0.00    +0.016 C 
ATOM      4  C   LIG    1       23.402 -31.054  12.325  0.00  0.00    +0.006 C 
ATOM      5  C   LIG    1       23.008 -30.394  13.673  0.00  0.00    +0.019 C 
ATOM      6  C   LIG    1       23.008 -28.849  13.719  0.00  0.00    +0.004 C 
ATOM      7  C   LIG    1       24.278 -28.296  13.057  0.00  0.00    +0.005 C 
ATOM      8  C   LIG    1       21.664 -28.254  13.213  0.00  0.00    +0.024 C 
ATOM      9  C   LIG    1       20.473 -28.860  13.973  0.00  0.00    -0.038 C 
ATOM     10  C   LIG    1       19.360 -28.139  14.218  0.00  0.00    +0.050 C 
ATOM     11  C   LIG    1       19.194 -26.751  13.731  0.00  0.00    +0.156 C 
ATOM     12  O   LIG    1       18.140 -26.157  13.951  0.00  0.00    -0.293 OA
ATOM     13  C   LIG    1       20.295 -26.144  12.906  0.00  0.00    +0.079 C 
ATOM     14  C   LIG    1       20.594 -30.258  14.415  0.00  0.00    -0.051 C 
ATOM     15  C   LIG    1       19.425 -30.934  15.095  0.00  0.00    +0.044 C 
ATOM     16  C   LIG    1       21.647 -26.716  13.303  0.00  0.00    +0.016 C 
ATOM     17  C   LIG    1       21.731 -30.954  14.233  0.00  0.00    -0.019 C 
ATOM     18  C   LIG    1       22.341 -31.098  11.211  0.00  0.00    +0.009 C 
ATOM     19  C   LIG    1       24.545 -28.881  11.672  0.00  0.00    +0.011 C 
ATOM     20  C   LIG    1       23.078 -30.916   9.878  0.00  0.00    +0.057 C 
ENDROOT
BRANCH   1  21
ATOM     21  C   LIG    1       25.052 -32.500  10.079  0.00  0.00    +0.174 C 
ATOM     22  O   LIG    1       26.237 -32.824  10.216  0.00  0.00    -0.293 OA
ATOM     23  C   LIG    1       24.048 -33.555   9.666  0.00  0.00    +0.090 C 
ENDBRANCH   1  21
BRANCH   1  24
ATOM     24  O   LIG    1       25.309 -30.090   9.331  0.00  0.00    -0.450 OA
BRANCH  24  26
ATOM     25  C   LIG    1       24.608 -28.987   7.389  0.00  0.00    +0.136 C 
ATOM     26  C   LIG    1       25.206 -30.221   7.985  0.00  0.00    +0.305 C 
ATOM     27  O   LIG    1       25.503 -31.225   7.348  0.00  0.00    -0.251 OA
ENDBRANCH  24  26
ENDBRANCH   1  24
TORSDOF 3
ENDMDL
MODEL 5
REMARK VINA RESULT:      -5.2      2.707      7.209
REMARK  Name = *****
REMARK                            x       y       z     vdW  Elec       q    Type
REMARK                         _______ _______ _______ _____ _____    ______ ____
ROOT
ATOM      1  C   LIG    1       23.625 -30.657  11.869  0.00  0.00    +0.176 C 
ATOM      2  C   LIG    1       24.944 -30.171  11.150  0.00  0.00    +0.018 C 
ATOM      3  C   LIG    1       25.711 -29.138  11.998  0.00  0.00    +0.016 C 
ATOM      4  C   LIG    1       24.424 -29.543   9.836  0.00  0.00    +0.006 C 
ATOM      5  C   LIG    1       25.521 -29.295   8.767  0.00  0.00    +0.019 C 
ATOM      6  C   LIG    1       26.527 -30.443   8.522  0.00  0.00    +0.004 C 
ATOM      7  C   LIG    1       27.021 -31.013   9.859  0.00  0.00    +0.005 C 
ATOM      8  C   LIG    1       25.984 -31.481   7.501  0.00  0.00    +0.024 C 
ATOM      9  C   LIG    1       25.554 -30.795   6.194  0.00  0.00    -0.038 C 
ATOM     10  C   LIG    1       25.671 -31.419   5.005  0.00  0.00    +0.050 C 
ATOM     11  C   LIG    1       26.166 -32.810   4.887  0.00  0.00    +0.156 C 
ATOM     12  O   LIG    1       26.212 -33.341   3.779  0.00  0.00    -0.293 OA
ATOM     13  C   LIG    1       26.515 -33.555   6.145  0.00  0.00    +0.079 C 
ATOM     14  C   LIG    1       25.005 -29.433   6.295  0.00  0.00    -0.051 C 
ATOM     15  C   LIG    1       24.490 -28.739   5.056  0.00  0.00    +0.044 C 
ATOM     16  C   LIG    1       27.007 -32.600   7.222  0.00  0.00    +0.016 C 
ATOM     17  C   LIG    1       24.955 -28.785   7.473  0.00  0.00    -0.019 C 
ATOM     18  C   LIG    1       23.217 -30.411   9.437  0.00  0.00    +0.009 C 
ATOM     19  C   LIG    1       25.892 -31.366  10.825  0.00  0.00    +0.011 C 
ATOM     20  C   LIG    1       22.814 -31.220  10.677  0.00  0.00    +0.057 C 
ENDROOT
BRANCH   1  21
ATOM     21  C   LIG    1       22.818 -29.488  12.533  0.00  0.00    +0.174 C 
ATOM     22  O   LIG    1       23.310 -28.788  13.426  0.00  0.00    -0.293 OA
ATOM     23  C   LIG    1       21.360 -29.299  12.175  0.00  0.00    +0.090 C 
ENDBRANCH   1  21
BRANCH   1  24
ATOM     24  O   LIG    1       23.982 -31.731  12.759  0.00  0.00    -0.450 OA
BRANCH  24  26
ATOM     25  C   LIG    1       23.562 -31.923  15.054  0.00  0.00    +0.136 C 
ATOM     26  C   LIG    1       23.071 -32.170  13.663  0.00  0.00    +0.305 C 
ATOM     27  O   LIG    1       22.021 -32.740  13.389  0.00  0.00    -0.251 OA
ENDBRANCH  24  26
ENDBRANCH   1  24
TORSDOF 3
ENDMDL
MODEL 6
REMARK VINA RESULT:      -5.2      4.208      5.144
REMARK  Name = *****
REMARK                            x       y       z     vdW  Elec       q    Type
REMARK                         _______ _______ _______ _____ _____    ______ ____
ROOT
ATOM      1  C   LIG    1       23.190 -30.765  10.895  0.00  0.00    +0.176 C 
ATOM      2  C   LIG    1       23.150 -30.298  12.403  0.00  0.00    +0.018 C 
ATOM      3  C   LIG    1       24.389 -30.775  13.184  0.00  0.00    +0.016 C 
ATOM      4  C   LIG    1       21.858 -30.953  12.946  0.00  0.00    +0.006 C 
ATOM      5  C   LIG    1       21.374 -30.384  14.306  0.00  0.00    +0.019 C 
ATOM      6  C   LIG    1       21.370 -28.845  14.455  0.00  0.00    +0.004 C 
ATOM      7  C   LIG    1       22.682 -28.254  13.918  0.00  0.00    +0.005 C 
ATOM      8  C   LIG    1       20.064 -28.212  13.901  0.00  0.00    +0.024 C 
ATOM      9  C   LIG    1       18.824 -28.862  14.537  0.00  0.00    -0.038 C 
ATOM     10  C   LIG    1       17.698 -28.155  14.755  0.00  0.00    +0.050 C 
ATOM     11  C   LIG    1       17.564 -26.736  14.352  0.00  0.00    +0.156 C 
ATOM     12  O   LIG    1       16.497 -26.154  14.541  0.00  0.00    -0.293 OA
ATOM     13  C   LIG    1       18.717 -26.080  13.646  0.00  0.00    +0.079 C 
ATOM     14  C   LIG    1       18.915 -30.288  14.892  0.00  0.00    -0.051 C 
ATOM     15  C   LIG    1       17.704 -31.002  15.444  0.00  0.00    +0.044 C 
ATOM     16  C   LIG    1       20.040 -26.683  14.094  0.00  0.00    +0.016 C 
ATOM     17  C   LIG    1       20.063 -30.974  14.739  0.00  0.00    -0.019 C 
ATOM     18  C   LIG    1       20.874 -30.918  11.762  0.00  0.00    +0.009 C 
ATOM     19  C   LIG    1       23.042 -28.746  12.519  0.00  0.00    +0.011 C 
ATOM     20  C   LIG    1       21.699 -30.650  10.497  0.00  0.00    +0.057 C 
ENDROOT
BRANCH   1  21
ATOM     21  C   LIG    1       23.655 -32.252  10.723  0.00  0.00    +0.174 C 
ATOM     22  O   LIG    1       24.809 -32.605  10.993  0.00  0.00    -0.293 OA
ATOM     23  C   LIG    1       22.716 -33.251  10.082  0.00  0.00    +0.090 C 
ENDBRANCH   1  21
BRANCH   1  24
ATOM     24  O   LIG    1       23.962 -29.798  10.158  0.00  0.00    -0.450 OA
BRANCH  24  26
ATOM     25  C   LIG    1       25.801 -30.051   8.732  0.00  0.00    +0.136 C 
ATOM     26  C   LIG    1       24.313 -30.072   8.877  0.00  0.00    +0.305 C 
ATOM     27  O   LIG    1       23.528 -30.253   7.953  0.00  0.00    -0.251 OA
ENDBRANCH  24  26
ENDBRANCH   1  24
TORSDOF 3
ENDMDL
MODEL 7
REMARK VINA RESULT:      -4.9      8.251     10.444
REMARK  Name = *****
REMARK                            x       y       z     vdW  Elec       q    Type
REMARK                         _______ _______ _______ _____ _____    ______ ____
ROOT
ATOM      1  C   LIG    1       24.462 -21.118   7.071  0.00  0.00    +0.176 C 
ATOM      2  C   LIG    1       25.802 -21.144   6.235  0.00  0.00    +0.018 C 
ATOM      3  C   LIG    1       25.646 -21.945   4.929  0.00  0.00    +0.016 C 
ATOM      4  C   LIG    1       26.808 -21.824   7.194  0.00  0.00    +0.006 C 
ATOM      5  C   LIG    1       28.294 -21.670   6.775  0.00  0.00    +0.019 C 
ATOM      6  C   LIG    1       28.751 -20.261   6.333  0.00  0.00    +0.004 C 
ATOM      7  C   LIG    1       27.725 -19.645   5.371  0.00  0.00    +0.005 C 
ATOM      8  C   LIG    1       29.161 -19.378   7.545  0.00  0.00    +0.024 C 
ATOM      9  C   LIG    1       30.215 -20.086   8.411  0.00  0.00    -0.038 C 
ATOM     10  C   LIG    1       31.164 -19.390   9.067  0.00  0.00    +0.050 C 
ATOM     11  C   LIG    1       31.221 -17.911   9.039  0.00  0.00    +0.156 C 
ATOM     12  O   LIG    1       32.086 -17.329   9.691  0.00  0.00    -0.293 OA
ATOM     13  C   LIG    1       30.159 -17.167   8.278  0.00  0.00    +0.079 C 
ATOM     14  C   LIG    1       30.140 -21.554   8.500  0.00  0.00    -0.051 C 
ATOM     15  C   LIG    1       31.097 -22.300   9.401  0.00  0.00    +0.044 C 
ATOM     16  C   LIG    1       29.661 -17.989   7.099  0.00  0.00    +0.016 C 
ATOM     17  C   LIG    1       29.237 -22.253   7.789  0.00  0.00    -0.019 C 
ATOM     18  C   LIG    1       26.403 -21.338   8.597  0.00  0.00    +0.009 C 
ATOM     19  C   LIG    1       26.291 -19.703   5.893  0.00  0.00    +0.011 C 
ATOM     20  C   LIG    1       24.987 -20.758   8.482  0.00  0.00    +0.057 C 
ENDROOT
BRANCH   1  21
ATOM     21  C   LIG    1       23.744 -22.510   7.129  0.00  0.00    +0.174 C 
ATOM     22  O   LIG    1       22.604 -22.632   7.593  0.00  0.00    -0.293 OA
ATOM     23  C   LIG    1       24.511 -23.755   6.738  0.00  0.00    +0.090 C 
ENDBRANCH   1  21
BRANCH   1  24
ATOM     24  O   LIG    1       23.653 -20.038   6.568  0.00  0.00    -0.450 OA
BRANCH  24  26
ATOM     25  C   LIG    1       23.177 -19.106   4.474  0.00  0.00    +0.136 C 
ATOM     26  C   LIG    1       22.933 -20.226   5.434  0.00  0.00    +0.305 C 
ATOM     27  O   LIG    1       22.149 -21.148   5.240  0.00  0.00    -0.251 OA
ENDBRANCH  24  26
ENDBRANCH   1  24
TORSDOF 3
ENDMDL
MODEL 8
REMARK VINA RESULT:      -4.9      1.928      6.913
REMARK  Name = *****
REMARK                            x       y       z     vdW  Elec       q    Type
REMARK                         _______ _______ _______ _____ _____    ______ ____
ROOT
ATOM      1  C   LIG    1       25.936 -28.645  12.653  0.00  0.00    +0.176 C 
ATOM      2  C   LIG    1       25.045 -29.823  12.094  0.00  0.00    +0.018 C 
ATOM      3  C   LIG    1       24.216 -30.490  13.208  0.00  0.00    +0.016 C 
ATOM      4  C   LIG    1       26.082 -30.805  11.501  0.00  0.00    +0.006 C 
ATOM      5  C   LIG    1       25.476 -31.890  10.571  0.00  0.00    +0.019 C 
ATOM      6  C   LIG    1       24.441 -31.413   9.527  0.00  0.00    +0.004 C 
ATOM      7  C   LIG    1       23.430 -30.458  10.176  0.00  0.00    +0.005 C 
ATOM      8  C   LIG    1       25.122 -30.900   8.228  0.00  0.00    +0.024 C 
ATOM      9  C   LIG    1       26.083 -31.955   7.656  0.00  0.00    -0.038 C 
ATOM     10  C   LIG    1       26.281 -32.075   6.328  0.00  0.00    +0.050 C 
ATOM     11  C   LIG    1       25.634 -31.172   5.348  0.00  0.00    +0.156 C 
ATOM     12  O   LIG    1       25.885 -31.303   4.151  0.00  0.00    -0.293 OA
ATOM     13  C   LIG    1       24.755 -30.067   5.863  0.00  0.00    +0.079 C 
ATOM     14  C   LIG    1       26.781 -32.825   8.616  0.00  0.00    -0.051 C 
ATOM     15  C   LIG    1       27.799 -33.825   8.120  0.00  0.00    +0.044 C 
ATOM     16  C   LIG    1       24.088 -30.470   7.169  0.00  0.00    +0.016 C 
ATOM     17  C   LIG    1       26.530 -32.752   9.936  0.00  0.00    -0.019 C 
ATOM     18  C   LIG    1       27.191 -29.906  10.927  0.00  0.00    +0.009 C 
ATOM     19  C   LIG    1       24.083 -29.329  10.970  0.00  0.00    +0.011 C 
ATOM     20  C   LIG    1       27.002 -28.511  11.539  0.00  0.00    +0.057 C 
ENDROOT
BRANCH   1  21
ATOM     21  C   LIG    1       26.647 -28.997  14.005  0.00  0.00    +0.174 C 
ATOM     22  O   LIG    1       26.003 -29.191  15.043  0.00  0.00    -0.293 OA
ATOM     23  C   LIG    1       28.158 -28.964  14.077  0.00  0.00    +0.090 C 
ENDBRANCH   1  21
BRANCH   1  24
ATOM     24  O   LIG    1       25.122 -27.458  12.685  0.00  0.00    -0.450 OA
BRANCH  24  26
ATOM     25  C   LIG    1       24.712 -25.842  14.329  0.00  0.00    +0.136 C 
ATOM     26  C   LIG    1       25.623 -26.330  13.248  0.00  0.00    +0.305 C 
ATOM     27  O   LIG    1       26.643 -25.754  12.888  0.00  0.00    -0.251 OA
ENDBRANCH  24  26
ENDBRANCH   1  24
TORSDOF 3
ENDMDL
MODEL 9
REMARK VINA RESULT:      -4.3      2.374      7.211
REMARK  Name = *****
REMARK                            x       y       z     vdW  Elec       q    Type
REMARK                         _______ _______ _______ _____ _____    ______ ____
ROOT
ATOM      1  C   LIG    1       25.365 -29.793  12.376  0.00  0.00    +0.176 C 
ATOM      2  C   LIG    1       26.294 -30.069  11.130  0.00  0.00    +0.018 C 
ATOM      3  C   LIG    1       27.734 -29.576  11.369  0.00  0.00    +0.016 C 
ATOM      4  C   LIG    1       25.611 -29.275   9.991  0.00  0.00    +0.006 C 
ATOM      5  C   LIG    1       26.106 -29.642   8.568  0.00  0.00    +0.019 C 
ATOM      6  C   LIG    1       26.243 -31.148   8.245  0.00  0.00    +0.004 C 
ATOM      7  C   LIG    1       26.943 -31.879   9.399  0.00  0.00    +0.005 C 
ATOM      8  C   LIG    1       24.897 -31.763   7.769  0.00  0.00    +0.024 C 
ATOM      9  C   LIG    1       24.314 -30.966   6.591  0.00  0.00    -0.038 C 
ATOM     10  C   LIG    1       23.596 -31.571   5.624  0.00  0.00    +0.050 C 
ATOM     11  C   LIG    1       23.281 -33.017   5.660  0.00  0.00    +0.156 C 
ATOM     12  O   LIG    1       22.587 -33.505   4.770  0.00  0.00    -0.293 OA
ATOM     13  C   LIG    1       23.754 -33.824   6.837  0.00  0.00    +0.079 C 
ATOM     14  C   LIG    1       24.565 -29.516   6.566  0.00  0.00    -0.051 C 
ATOM     15  C   LIG    1       23.949 -28.666   5.479  0.00  0.00    +0.044 C 
ATOM     16  C   LIG    1       25.046 -33.253   7.402  0.00  0.00    +0.016 C 
ATOM     17  C   LIG    1       25.341 -28.925   7.493  0.00  0.00    -0.019 C 
ATOM     18  C   LIG    1       24.104 -29.394  10.280  0.00  0.00    +0.009 C 
ATOM     19  C   LIG    1       26.329 -31.586  10.766  0.00  0.00    +0.011 C 
ATOM     20  C   LIG    1       23.959 -29.864  11.733  0.00  0.00    +0.057 C 
ENDROOT
BRANCH   1  21
ATOM     21  C   LIG    1       25.574 -28.369  12.998  0.00  0.00    +0.174 C 
ATOM     22  O   LIG    1       26.657 -28.030  13.488  0.00  0.00    -0.293 OA
ATOM     23  C   LIG    1       24.389 -27.437  13.128  0.00  0.00    +0.090 C 
ENDBRANCH   1  21
BRANCH   1  24
ATOM     24  O   LIG    1       25.530 -30.888  13.296  0.00  0.00    -0.450 OA
BRANCH  24  26
ATOM     25  C   LIG    1       24.525 -30.760  15.406  0.00  0.00    +0.136 C 
ATOM     26  C   LIG    1       24.463 -31.311  14.017  0.00  0.00    +0.305 C 
ATOM     27  O   LIG    1       23.598 -32.081  13.615  0.00  0.00    -0.251 OA
ENDBRANCH  24  26
ENDBRANCH   1  24
TORSDOF 3
ENDMDL
