MODEL 1
REMARK VINA RESULT:      -0.4      0.000      0.000
REMARK  Name = *****
REMARK                            x       y       z     vdW  Elec       q    Type
REMARK                         _______ _______ _______ _____ _____    ______ ____
ROOT
ATOM      1  CA  LIG    1       25.166 -17.115   3.228  0.00  0.00    +0.190 C 
ATOM      2  C   LIG    1       24.377 -15.796   3.000  0.00  0.00    +0.165 C 
ATOM      3  S   LIG    1       23.618 -14.988   4.451  0.00  0.00    -0.127 S 
ATOM      4  C   LIG    1       24.952 -13.739   4.698  0.00  0.00    +0.042 C 
ATOM      5  CA  LIG    1       25.844 -13.783   3.430  0.00  0.00    +0.201 C 
ATOM      6  C   LIG    1       25.756 -14.127   5.950  0.00  0.00    +0.025 C 
ATOM      7  C   LIG    1       24.239 -12.410   4.980  0.00  0.00    +0.025 C 
ATOM      8  N   LIG    1       25.672 -15.107   2.804  0.00  0.00    -0.271 N 
ATOM      9  C   LIG    1       26.386 -16.173   3.295  0.00  0.00    +0.240 C 
ATOM     10  O   LIG    1       27.514 -16.231   3.754  0.00  0.00    -0.273 OA
ENDROOT
BRANCH   1  12
ATOM     11  C   LIG    1       24.739 -19.295   4.397  0.00  0.00    +0.254 C 
ATOM     12  N   LIG    1       24.847 -17.910   4.447  0.00  0.00    -0.299 N 
ATOM     13  H   LIG    1       24.752 -17.437   5.339  0.00  0.00    +0.150 HD
ATOM     14  O   LIG    1       24.978 -19.915   3.363  0.00  0.00    -0.272 OA
BRANCH  11  16
ATOM     15  C   LIG    1       22.859 -20.351   5.682  0.00  0.00    +0.062 C 
ATOM     16  C   LIG    1       24.337 -19.946   5.741  0.00  0.00    +0.255 C 
BRANCH  16  17
ATOM     17  O   LIG    1       25.158 -21.072   6.069  0.00  0.00    -0.480 OA
BRANCH  17  18
ATOM     18  C   LIG    1       26.504 -20.813   6.191  0.00  0.00    +0.122 A 
ATOM     19  C   LIG    1       27.381 -21.572   6.971  0.00  0.00    +0.045 A 
ATOM     20  C   LIG    1       28.734 -21.247   7.054  0.00  0.00    +0.004 A 
ATOM     21  C   LIG    1       29.229 -20.157   6.349  0.00  0.00    +0.000 A 
ATOM     22  C   LIG    1       28.369 -19.400   5.554  0.00  0.00    +0.004 A 
ATOM     23  C   LIG    1       27.011 -19.732   5.467  0.00  0.00    +0.045 A 
ENDBRANCH  17  18
ENDBRANCH  16  17
ENDBRANCH  11  16
ENDBRANCH   1  12
BRANCH   5  24
ATOM     24  C   LIG    1       25.569 -12.642   2.441  0.00  0.00    +0.327 C 
ATOM     25  O   LIG    1       24.485 -12.456   1.905  0.00  0.00    -0.249 OA
BRANCH  24  26
ATOM     26  OXT LIG    1       26.629 -11.842   2.187  0.00  0.00    -0.479 OA
ATOM     27  HXT LIG    1       27.007 -11.473   3.009  0.00  0.00    +0.295 HD
ENDBRANCH  24  26
ENDBRANCH   5  24
TORSDOF 6
ENDMDL
MODEL 2
REMARK VINA RESULT:       0.3      1.390      3.625
REMARK  Name = *****
REMARK                            x       y       z     vdW  Elec       q    Type
REMARK                         _______ _______ _______ _____ _____    ______ ____
ROOT
ATOM      1  CA  LIG    1       26.428 -17.397   3.322  0.00  0.00    +0.190 C 
ATOM      2  C   LIG    1       25.476 -16.254   2.874  0.00  0.00    +0.165 C 
ATOM      3  S   LIG    1       24.227 -15.660   4.067  0.00  0.00    -0.127 S 
ATOM      4  C   LIG    1       25.176 -14.179   4.620  0.00  0.00    +0.042 C 
ATOM      5  CA  LIG    1       26.351 -14.005   3.623  0.00  0.00    +0.201 C 
ATOM      6  C   LIG    1       25.696 -14.440   6.044  0.00  0.00    +0.025 C 
ATOM      7  C   LIG    1       24.163 -13.028   4.684  0.00  0.00    +0.025 C 
ATOM      8  N   LIG    1       26.613 -15.316   3.000  0.00  0.00    -0.271 N 
ATOM      9  C   LIG    1       27.377 -16.234   3.679  0.00  0.00    +0.240 C 
ATOM     10  O   LIG    1       28.339 -16.081   4.412  0.00  0.00    -0.273 OA
ENDROOT
BRANCH   1  12
ATOM     11  C   LIG    1       25.573 -19.588   4.200  0.00  0.00    +0.254 C 
ATOM     12  N   LIG    1       25.976 -18.278   4.435  0.00  0.00    -0.299 N 
ATOM     13  H   LIG    1       26.006 -17.932   5.388  0.00  0.00    +0.150 HD
ATOM     14  O   LIG    1       25.649 -20.085   3.079  0.00  0.00    -0.272 OA
BRANCH  11  16
ATOM     15  C   LIG    1       26.219 -20.427   6.475  0.00  0.00    +0.062 C 
ATOM     16  C   LIG    1       25.073 -20.330   5.461  0.00  0.00    +0.255 C 
BRANCH  16  17
ATOM     17  O   LIG    1       23.928 -19.701   6.047  0.00  0.00    -0.480 OA
BRANCH  17  18
ATOM     18  C   LIG    1       22.798 -19.671   5.264  0.00  0.00    +0.122 A 
ATOM     19  C   LIG    1       22.339 -18.536   4.590  0.00  0.00    +0.045 A 
ATOM     20  C   LIG    1       21.179 -18.578   3.817  0.00  0.00    +0.004 A 
ATOM     21  C   LIG    1       20.464 -19.764   3.706  0.00  0.00    +0.000 A 
ATOM     22  C   LIG    1       20.918 -20.909   4.359  0.00  0.00    +0.004 A 
ATOM     23  C   LIG    1       22.088 -20.866   5.130  0.00  0.00    +0.045 A 
ENDBRANCH  17  18
ENDBRANCH  16  17
ENDBRANCH  11  16
ENDBRANCH   1  12
BRANCH   5  24
ATOM     24  C   LIG    1       26.113 -12.910   2.573  0.00  0.00    +0.327 C 
ATOM     25  O   LIG    1       25.155 -12.896   1.813  0.00  0.00    -0.249 OA
BRANCH  24  26
ATOM     26  OXT LIG    1       27.059 -11.944   2.537  0.00  0.00    -0.479 OA
ATOM     27  HXT LIG    1       27.040 -11.454   1.693  0.00  0.00    +0.295 HD
ENDBRANCH  24  26
ENDBRANCH   5  24
TORSDOF 6
ENDMDL
MODEL 3
REMARK VINA RESULT:       0.4      1.688      3.250
REMARK  Name = *****
REMARK                            x       y       z     vdW  Elec       q    Type
REMARK                         _______ _______ _______ _____ _____    ______ ____
ROOT
ATOM      1  CA  LIG    1       27.797 -16.145   3.913  0.00  0.00    +0.190 C 
ATOM      2  C   LIG    1       26.831 -15.462   2.906  0.00  0.00    +0.165 C 
ATOM      3  S   LIG    1       25.081 -15.985   2.906  0.00  0.00    -0.127 S 
ATOM      4  C   LIG    1       24.458 -14.577   3.920  0.00  0.00    +0.042 C 
ATOM      5  CA  LIG    1       25.607 -13.537   3.993  0.00  0.00    +0.201 C 
ATOM      6  C   LIG    1       24.106 -15.106   5.321  0.00  0.00    +0.025 C 
ATOM      7  C   LIG    1       23.162 -14.111   3.245  0.00  0.00    +0.025 C 
ATOM      8  N   LIG    1       26.876 -14.249   3.751  0.00  0.00    -0.271 N 
ATOM      9  C   LIG    1       27.470 -14.920   4.793  0.00  0.00    +0.240 C 
ATOM     10  O   LIG    1       27.526 -14.653   5.981  0.00  0.00    -0.273 OA
ENDROOT
BRANCH   1  12
ATOM     11  C   LIG    1       28.334 -18.286   5.108  0.00  0.00    +0.254 C 
ATOM     12  N   LIG    1       27.415 -17.486   4.439  0.00  0.00    -0.299 N 
ATOM     13  H   LIG    1       26.456 -17.802   4.347  0.00  0.00    +0.150 HD
ATOM     14  O   LIG    1       29.468 -17.883   5.356  0.00  0.00    -0.272 OA
BRANCH  11  16
ATOM     15  C   LIG    1       28.878 -20.451   6.257  0.00  0.00    +0.062 C 
ATOM     16  C   LIG    1       27.781 -19.669   5.522  0.00  0.00    +0.255 C 
BRANCH  16  17
ATOM     17  O   LIG    1       26.604 -19.567   6.331  0.00  0.00    -0.480 OA
BRANCH  17  18
ATOM     18  C   LIG    1       25.462 -20.113   5.793  0.00  0.00    +0.122 A 
ATOM     19  C   LIG    1       24.354 -20.515   6.545  0.00  0.00    +0.045 A 
ATOM     20  C   LIG    1       23.231 -21.067   5.932  0.00  0.00    +0.004 A 
ATOM     21  C   LIG    1       23.200 -21.220   4.552  0.00  0.00    +0.000 A 
ATOM     22  C   LIG    1       24.290 -20.808   3.786  0.00  0.00    +0.004 A 
ATOM     23  C   LIG    1       25.416 -20.248   4.404  0.00  0.00    +0.045 A 
ENDBRANCH  17  18
ENDBRANCH  16  17
ENDBRANCH  11  16
ENDBRANCH   1  12
BRANCH   5  24
ATOM     24  C   LIG    1       25.426 -12.350   3.036  0.00  0.00    +0.327 C 
ATOM     25  O   LIG    1       24.465 -11.594   3.067  0.00  0.00    -0.249 OA
BRANCH  24  26
ATOM     26  OXT LIG    1       26.419 -12.195   2.131  0.00  0.00    -0.479 OA
ATOM     27  HXT LIG    1       27.274 -12.516   2.475  0.00  0.00    +0.295 HD
ENDBRANCH  24  26
ENDBRANCH   5  24
TORSDOF 6
ENDMDL
MODEL 4
REMARK VINA RESULT:       1.5      2.454      3.877
REMARK  Name = *****
REMARK                            x       y       z     vdW  Elec       q    Type
REMARK                         _______ _______ _______ _____ _____    ______ ____
ROOT
ATOM      1  CA  LIG    1       23.536 -14.169   4.138  0.00  0.00    +0.190 C 
ATOM      2  C   LIG    1       24.855 -14.057   4.952  0.00  0.00    +0.165 C 
ATOM      3  S   LIG    1       25.973 -15.501   4.977  0.00  0.00    -0.127 S 
ATOM      4  C   LIG    1       27.129 -14.873   3.684  0.00  0.00    +0.042 C 
ATOM      5  CA  LIG    1       26.780 -13.378   3.463  0.00  0.00    +0.201 C 
ATOM      6  C   LIG    1       26.906 -15.686   2.398  0.00  0.00    +0.025 C 
ATOM      7  C   LIG    1       28.543 -15.171   4.200  0.00  0.00    +0.025 C 
ATOM      8  N   LIG    1       25.384 -13.172   3.891  0.00  0.00    -0.271 N 
ATOM      9  C   LIG    1       24.367 -13.496   3.026  0.00  0.00    +0.240 C 
ATOM     10  O   LIG    1       24.298 -13.407   1.812  0.00  0.00    -0.273 OA
ENDROOT
BRANCH   1  12
ATOM     11  C   LIG    1       22.329 -16.254   4.844  0.00  0.00    +0.254 C 
ATOM     12  N   LIG    1       23.005 -15.534   3.865  0.00  0.00    -0.299 N 
ATOM     13  H   LIG    1       23.098 -15.928   2.935  0.00  0.00    +0.150 HD
ATOM     14  O   LIG    1       22.081 -15.758   5.941  0.00  0.00    -0.272 OA
BRANCH  11  16
ATOM     15  C   LIG    1       20.746 -17.573   3.412  0.00  0.00    +0.062 C 
ATOM     16  C   LIG    1       21.910 -17.676   4.405  0.00  0.00    +0.255 C 
BRANCH  16  17
ATOM     17  O   LIG    1       22.997 -18.415   3.838  0.00  0.00    -0.480 OA
BRANCH  17  18
ATOM     18  C   LIG    1       23.525 -19.405   4.634  0.00  0.00    +0.122 A 
ATOM     19  C   LIG    1       24.815 -19.923   4.491  0.00  0.00    +0.045 A 
ATOM     20  C   LIG    1       25.282 -20.931   5.332  0.00  0.00    +0.004 A 
ATOM     21  C   LIG    1       24.461 -21.433   6.333  0.00  0.00    +0.000 A 
ATOM     22  C   LIG    1       23.177 -20.916   6.499  0.00  0.00    +0.004 A 
ATOM     23  C   LIG    1       22.712 -19.897   5.657  0.00  0.00    +0.045 A 
ENDBRANCH  17  18
ENDBRANCH  16  17
ENDBRANCH  11  16
ENDBRANCH   1  12
BRANCH   5  24
ATOM     24  C   LIG    1       27.742 -12.409   4.163  0.00  0.00    +0.327 C 
ATOM     25  O   LIG    1       28.651 -11.823   3.591  0.00  0.00    -0.249 OA
BRANCH  24  26
ATOM     26  OXT LIG    1       27.520 -12.246   5.487  0.00  0.00    -0.479 OA
ATOM     27  HXT LIG    1       27.566 -11.306   5.748  0.00  0.00    +0.295 HD
ENDBRANCH  24  26
ENDBRANCH   5  24
TORSDOF 6
ENDMDL
