MODEL 1
REMARK VINA RESULT:      -3.1      0.000      0.000
REMARK  Name = *****
REMARK                            x       y       z     vdW  Elec       q    Type
REMARK                         _______ _______ _______ _____ _____    ______ ____
ROOT
ATOM      1  O   LIG    1       23.048 -15.270   3.457  0.00  0.00    -0.458 OA
ENDROOT
BRANCH   1   2
ATOM      2  C   LIG    1       23.392 -13.974   3.991  0.00  0.00    +0.180 C 
ATOM      3  C   LIG    1       24.028 -13.132   2.770  0.00  0.00    +0.063 C 
ATOM      4  C   LIG    1       25.585 -13.322   2.555  0.00  0.00    +0.061 C 
ATOM      5  N   LIG    1       25.939 -14.306   3.566  0.00  0.00    -0.289 NA
ATOM      6  C   LIG    1       25.632 -13.548   4.812  0.00  0.00    +0.061 C 
ATOM      7  C   LIG    1       26.880 -12.910   5.359  0.00  0.00    +0.030 C 
ATOM      8  C   LIG    1       27.565 -12.388   4.034  0.00  0.00    +0.060 C 
ATOM      9  C   LIG    1       28.277 -13.623   3.541  0.00  0.00    +0.150 C 
ATOM     10  O   LIG    1       29.475 -13.667   3.291  0.00  0.00    -0.296 OA
ATOM     11  C   LIG    1       27.328 -14.801   3.422  0.00  0.00    +0.159 C 
ATOM     12  C   LIG    1       26.533 -12.074   2.850  0.00  0.00    +0.030 C 
ATOM     13  C   LIG    1       24.336 -14.145   5.265  0.00  0.00    +0.063 C 
ENDBRANCH   1   2
BRANCH   1  15
ATOM     14  O   LIG    1       22.010 -16.210   5.269  0.00  0.00    -0.245 OA
ATOM     15  C   LIG    1       22.834 -16.268   4.363  0.00  0.00    +0.342 C 
BRANCH  15  16
ATOM     16  C   LIG    1       23.686 -17.424   4.108  0.00  0.00    +0.084 C 
ATOM     17  C   LIG    1       23.445 -18.792   4.465  0.00  0.00    +0.014 C 
ATOM     18  C   LIG    1       24.531 -19.545   4.010  0.00  0.00    +0.047 C 
ATOM     19  C   LIG    1       24.625 -20.930   4.191  0.00  0.00    +0.026 C 
ATOM     20  C   LIG    1       23.572 -21.571   4.847  0.00  0.00    +0.002 C 
ATOM     21  C   LIG    1       22.471 -20.853   5.308  0.00  0.00    +0.001 C 
ATOM     22  N   LIG    1       25.400 -18.674   3.397  0.00  0.00    -0.360 NA
ATOM     23  H   LIG    1       26.274 -18.943   2.967  0.00  0.00    +0.165 HD
ATOM     24  C   LIG    1       22.397 -19.467   5.127  0.00  0.00    +0.011 C 
ATOM     25  C   LIG    1       24.903 -17.401   3.445  0.00  0.00    +0.098 C 
ENDBRANCH  15  16
ENDBRANCH   1  15
TORSDOF 3
ENDMDL
MODEL 2
REMARK VINA RESULT:      -2.8      2.391      3.918
REMARK  Name = *****
REMARK                            x       y       z     vdW  Elec       q    Type
REMARK                         _______ _______ _______ _____ _____    ______ ____
ROOT
ATOM      1  O   LIG    1       27.462 -16.943   4.898  0.00  0.00    -0.458 OA
ENDROOT
BRANCH   1   2
ATOM      2  C   LIG    1       27.525 -16.202   3.661  0.00  0.00    +0.180 C 
ATOM      3  C   LIG    1       28.087 -14.736   4.036  0.00  0.00    +0.063 C 
ATOM      4  C   LIG    1       26.989 -13.682   4.469  0.00  0.00    +0.061 C 
ATOM      5  N   LIG    1       25.758 -14.457   4.438  0.00  0.00    -0.289 NA
ATOM      6  C   LIG    1       25.676 -14.790   2.988  0.00  0.00    +0.061 C 
ATOM      7  C   LIG    1       24.781 -13.813   2.274  0.00  0.00    +0.030 C 
ATOM      8  C   LIG    1       25.214 -12.450   2.948  0.00  0.00    +0.060 C 
ATOM      9  C   LIG    1       24.395 -12.451   4.213  0.00  0.00    +0.150 C 
ATOM     10  O   LIG    1       23.641 -11.542   4.539  0.00  0.00    -0.296 OA
ATOM     11  C   LIG    1       24.605 -13.724   5.011  0.00  0.00    +0.159 C 
ATOM     12  C   LIG    1       26.720 -12.447   3.496  0.00  0.00    +0.030 C 
ATOM     13  C   LIG    1       26.103 -16.223   2.941  0.00  0.00    +0.063 C 
ENDBRANCH   1   2
BRANCH   1  15
ATOM     14  O   LIG    1       29.449 -18.075   4.791  0.00  0.00    -0.245 OA
ATOM     15  C   LIG    1       28.238 -18.062   4.982  0.00  0.00    +0.342 C 
BRANCH  15  16
ATOM     16  C   LIG    1       27.458 -19.238   5.351  0.00  0.00    +0.084 C 
ATOM     17  C   LIG    1       26.220 -19.687   4.783  0.00  0.00    +0.014 C 
ATOM     18  C   LIG    1       25.852 -20.860   5.448  0.00  0.00    +0.047 C 
ATOM     19  C   LIG    1       24.685 -21.572   5.144  0.00  0.00    +0.026 C 
ATOM     20  C   LIG    1       23.873 -21.079   4.120  0.00  0.00    +0.002 C 
ATOM     21  C   LIG    1       24.213 -19.917   3.432  0.00  0.00    +0.001 C 
ATOM     22  N   LIG    1       26.825 -21.119   6.383  0.00  0.00    -0.360 NA
ATOM     23  H   LIG    1       26.823 -21.913   7.009  0.00  0.00    +0.165 HD
ATOM     24  C   LIG    1       25.378 -19.212   3.754  0.00  0.00    +0.011 C 
ATOM     25  C   LIG    1       27.796 -20.158   6.332  0.00  0.00    +0.098 C 
ENDBRANCH  15  16
ENDBRANCH   1  15
TORSDOF 3
ENDMDL
MODEL 3
REMARK VINA RESULT:      -2.5      1.981      7.117
REMARK  Name = *****
REMARK                            x       y       z     vdW  Elec       q    Type
REMARK                         _______ _______ _______ _____ _____    ______ ____
ROOT
ATOM      1  O   LIG    1       26.384 -17.198   3.564  0.00  0.00    -0.458 OA
ENDROOT
BRANCH   1   2
ATOM      2  C   LIG    1       26.622 -18.618   3.665  0.00  0.00    +0.180 C 
ATOM      3  C   LIG    1       25.719 -19.314   2.522  0.00  0.00    +0.063 C 
ATOM      4  C   LIG    1       24.234 -19.657   2.949  0.00  0.00    +0.061 C 
ATOM      5  N   LIG    1       24.155 -19.142   4.307  0.00  0.00    -0.289 NA
ATOM      6  C   LIG    1       25.152 -20.012   4.993  0.00  0.00    +0.061 C 
ATOM      7  C   LIG    1       24.464 -21.171   5.662  0.00  0.00    +0.030 C 
ATOM      8  C   LIG    1       23.399 -21.572   4.566  0.00  0.00    +0.060 C 
ATOM      9  C   LIG    1       22.280 -20.600   4.846  0.00  0.00    +0.150 C 
ATOM     10  O   LIG    1       21.122 -20.936   5.063  0.00  0.00    -0.296 OA
ATOM     11  C   LIG    1       22.776 -19.167   4.849  0.00  0.00    +0.159 C 
ATOM     12  C   LIG    1       23.834 -21.196   3.070  0.00  0.00    +0.030 C 
ATOM     13  C   LIG    1       26.337 -19.113   5.153  0.00  0.00    +0.063 C 
ENDBRANCH   1   2
BRANCH   1  15
ATOM     14  O   LIG    1       28.387 -16.759   4.581  0.00  0.00    -0.245 OA
ATOM     15  C   LIG    1       27.394 -16.377   3.974  0.00  0.00    +0.342 C 
BRANCH  15  16
ATOM     16  C   LIG    1       27.161 -14.992   3.580  0.00  0.00    +0.084 C 
ATOM     17  C   LIG    1       25.908 -14.299   3.498  0.00  0.00    +0.014 C 
ATOM     18  C   LIG    1       26.176 -12.991   3.085  0.00  0.00    +0.047 C 
ATOM     19  C   LIG    1       25.174 -12.031   2.900  0.00  0.00    +0.026 C 
ATOM     20  C   LIG    1       23.855 -12.414   3.156  0.00  0.00    +0.002 C 
ATOM     21  C   LIG    1       23.552 -13.707   3.576  0.00  0.00    +0.001 C 
ATOM     22  N   LIG    1       27.537 -12.887   2.923  0.00  0.00    -0.360 NA
ATOM     23  H   LIG    1       28.018 -12.047   2.634  0.00  0.00    +0.165 HD
ATOM     24  C   LIG    1       24.566 -14.657   3.747  0.00  0.00    +0.011 C 
ATOM     25  C   LIG    1       28.139 -14.078   3.221  0.00  0.00    +0.098 C 
ENDBRANCH  15  16
ENDBRANCH   1  15
TORSDOF 3
ENDMDL
MODEL 4
REMARK VINA RESULT:      -0.5      1.457      2.348
REMARK  Name = *****
REMARK                            x       y       z     vdW  Elec       q    Type
REMARK                         _______ _______ _______ _____ _____    ______ ____
ROOT
ATOM      1  O   LIG    1       24.223 -16.322   4.427  0.00  0.00    -0.458 OA
ENDROOT
BRANCH   1   2
ATOM      2  C   LIG    1       24.779 -15.696   3.252  0.00  0.00    +0.180 C 
ATOM      3  C   LIG    1       26.340 -16.106   3.212  0.00  0.00    +0.063 C 
ATOM      4  C   LIG    1       27.309 -15.157   4.028  0.00  0.00    +0.061 C 
ATOM      5  N   LIG    1       26.399 -14.195   4.630  0.00  0.00    -0.289 NA
ATOM      6  C   LIG    1       25.852 -13.530   3.414  0.00  0.00    +0.061 C 
ATOM      7  C   LIG    1       26.604 -12.258   3.129  0.00  0.00    +0.030 C 
ATOM      8  C   LIG    1       28.091 -12.707   3.420  0.00  0.00    +0.060 C 
ATOM      9  C   LIG    1       28.177 -12.556   4.918  0.00  0.00    +0.150 C 
ATOM     10  O   LIG    1       29.029 -11.885   5.489  0.00  0.00    -0.296 OA
ATOM     11  C   LIG    1       27.066 -13.316   5.618  0.00  0.00    +0.159 C 
ATOM     12  C   LIG    1       28.350 -14.273   3.202  0.00  0.00    +0.030 C 
ATOM     13  C   LIG    1       24.487 -14.129   3.281  0.00  0.00    +0.063 C 
ENDBRANCH   1   2
BRANCH   1  15
ATOM     14  O   LIG    1       21.997 -15.798   4.312  0.00  0.00    -0.245 OA
ATOM     15  C   LIG    1       22.894 -16.630   4.386  0.00  0.00    +0.342 C 
BRANCH  15  16
ATOM     16  C   LIG    1       22.670 -18.071   4.414  0.00  0.00    +0.084 C 
ATOM     17  C   LIG    1       23.651 -19.113   4.506  0.00  0.00    +0.014 C 
ATOM     18  C   LIG    1       22.972 -20.334   4.507  0.00  0.00    +0.047 C 
ATOM     19  C   LIG    1       23.627 -21.569   4.587  0.00  0.00    +0.026 C 
ATOM     20  C   LIG    1       25.020 -21.558   4.681  0.00  0.00    +0.002 C 
ATOM     21  C   LIG    1       25.729 -20.360   4.690  0.00  0.00    +0.001 C 
ATOM     22  N   LIG    1       21.629 -20.051   4.422  0.00  0.00    -0.360 NA
ATOM     23  H   LIG    1       20.897 -20.747   4.408  0.00  0.00    +0.165 HD
ATOM     24  C   LIG    1       25.060 -19.134   4.600  0.00  0.00    +0.011 C 
ATOM     25  C   LIG    1       21.435 -18.699   4.370  0.00  0.00    +0.098 C 
ENDBRANCH  15  16
ENDBRANCH   1  15
TORSDOF 3
ENDMDL
MODEL 5
REMARK VINA RESULT:      -0.2      1.963      6.528
REMARK  Name = *****
REMARK                            x       y       z     vdW  Elec       q    Type
REMARK                         _______ _______ _______ _____ _____    ______ ____
ROOT
ATOM      1  O   LIG    1       23.172 -16.838   3.471  0.00  0.00    -0.458 OA
ENDROOT
BRANCH   1   2
ATOM      2  C   LIG    1       22.502 -18.106   3.634  0.00  0.00    +0.180 C 
ATOM      3  C   LIG    1       22.353 -18.341   5.225  0.00  0.00    +0.063 C 
ATOM      4  C   LIG    1       23.588 -19.041   5.924  0.00  0.00    +0.061 C 
ATOM      5  N   LIG    1       24.537 -19.200   4.833  0.00  0.00    -0.289 NA
ATOM      6  C   LIG    1       23.788 -20.135   3.946  0.00  0.00    +0.061 C 
ATOM      7  C   LIG    1       24.222 -21.555   4.193  0.00  0.00    +0.030 C 
ATOM      8  C   LIG    1       24.334 -21.571   5.770  0.00  0.00    +0.060 C 
ATOM      9  C   LIG    1       25.708 -20.993   5.994  0.00  0.00    +0.150 C 
ATOM     10  O   LIG    1       26.586 -21.548   6.643  0.00  0.00    -0.296 OA
ATOM     11  C   LIG    1       25.869 -19.656   5.295  0.00  0.00    +0.159 C 
ATOM     12  C   LIG    1       23.377 -20.514   6.500  0.00  0.00    +0.030 C 
ATOM     13  C   LIG    1       23.295 -19.244   2.849  0.00  0.00    +0.063 C 
ENDBRANCH   1   2
BRANCH   1  15
ATOM     14  O   LIG    1       21.981 -15.955   5.215  0.00  0.00    -0.245 OA
ATOM     15  C   LIG    1       22.876 -15.867   4.382  0.00  0.00    +0.342 C 
BRANCH  15  16
ATOM     16  C   LIG    1       23.768 -14.719   4.262  0.00  0.00    +0.084 C 
ATOM     17  C   LIG    1       25.169 -14.722   3.956  0.00  0.00    +0.014 C 
ATOM     18  C   LIG    1       25.600 -13.392   3.940  0.00  0.00    +0.047 C 
ATOM     19  C   LIG    1       26.924 -13.025   3.673  0.00  0.00    +0.026 C 
ATOM     20  C   LIG    1       27.838 -14.047   3.401  0.00  0.00    +0.002 C 
ATOM     21  C   LIG    1       27.442 -15.381   3.401  0.00  0.00    +0.001 C 
ATOM     22  N   LIG    1       24.507 -12.608   4.222  0.00  0.00    -0.360 NA
ATOM     23  H   LIG    1       24.523 -11.599   4.271  0.00  0.00    +0.165 HD
ATOM     24  C   LIG    1       26.115 -15.732   3.680  0.00  0.00    +0.011 C 
ATOM     25  C   LIG    1       23.402 -13.390   4.412  0.00  0.00    +0.098 C 
ENDBRANCH  15  16
ENDBRANCH   1  15
TORSDOF 3
ENDMDL
MODEL 6
REMARK VINA RESULT:      -0.2      2.134      3.238
REMARK  Name = *****
REMARK                            x       y       z     vdW  Elec       q    Type
REMARK                         _______ _______ _______ _____ _____    ______ ____
ROOT
ATOM      1  O   LIG    1       24.060 -17.877   3.280  0.00  0.00    -0.458 OA
ENDROOT
BRANCH   1   2
ATOM      2  C   LIG    1       24.757 -17.095   4.273  0.00  0.00    +0.180 C 
ATOM      3  C   LIG    1       23.714 -15.975   4.786  0.00  0.00    +0.063 C 
ATOM      4  C   LIG    1       23.681 -14.641   3.935  0.00  0.00    +0.061 C 
ATOM      5  N   LIG    1       24.629 -14.910   2.864  0.00  0.00    -0.289 NA
ATOM      6  C   LIG    1       25.893 -15.051   3.641  0.00  0.00    +0.061 C 
ATOM      7  C   LIG    1       26.654 -13.752   3.645  0.00  0.00    +0.030 C 
ATOM      8  C   LIG    1       25.483 -12.710   3.851  0.00  0.00    +0.060 C 
ATOM      9  C   LIG    1       24.967 -12.535   2.446  0.00  0.00    +0.150 C 
ATOM     10  O   LIG    1       24.868 -11.450   1.885  0.00  0.00    -0.296 OA
ATOM     11  C   LIG    1       24.615 -13.867   1.812  0.00  0.00    +0.159 C 
ATOM     12  C   LIG    1       24.214 -13.306   4.627  0.00  0.00    +0.030 C 
ATOM     13  C   LIG    1       26.117 -16.530   3.663  0.00  0.00    +0.063 C 
ENDBRANCH   1   2
BRANCH   1  15
ATOM     14  O   LIG    1       21.859 -18.503   3.237  0.00  0.00    -0.245 OA
ATOM     15  C   LIG    1       22.985 -18.597   3.712  0.00  0.00    +0.342 C 
BRANCH  15  16
ATOM     16  C   LIG    1       23.341 -19.511   4.791  0.00  0.00    +0.084 C 
ATOM     17  C   LIG    1       24.650 -19.963   5.166  0.00  0.00    +0.014 C 
ATOM     18  C   LIG    1       24.503 -20.820   6.260  0.00  0.00    +0.047 C 
ATOM     19  C   LIG    1       25.587 -21.447   6.886  0.00  0.00    +0.026 C 
ATOM     20  C   LIG    1       26.865 -21.181   6.388  0.00  0.00    +0.002 C 
ATOM     21  C   LIG    1       27.049 -20.326   5.305  0.00  0.00    +0.001 C 
ATOM     22  N   LIG    1       23.160 -20.889   6.544  0.00  0.00    -0.360 NA
ATOM     23  H   LIG    1       22.760 -21.435   7.295  0.00  0.00    +0.165 HD
ATOM     24  C   LIG    1       25.953 -19.715   4.685  0.00  0.00    +0.011 C 
ATOM     25  C   LIG    1       22.454 -20.105   5.675  0.00  0.00    +0.098 C 
ENDBRANCH  15  16
ENDBRANCH   1  15
TORSDOF 3
ENDMDL
MODEL 7
REMARK VINA RESULT:      -0.1      1.990      3.397
REMARK  Name = *****
REMARK                            x       y       z     vdW  Elec       q    Type
REMARK                         _______ _______ _______ _____ _____    ______ ____
ROOT
ATOM      1  O   LIG    1       26.551 -16.813   2.953  0.00  0.00    -0.458 OA
ENDROOT
BRANCH   1   2
ATOM      2  C   LIG    1       27.245 -15.586   3.265  0.00  0.00    +0.180 C 
ATOM      3  C   LIG    1       26.723 -15.126   4.722  0.00  0.00    +0.063 C 
ATOM      4  C   LIG    1       25.411 -14.241   4.721  0.00  0.00    +0.061 C 
ATOM      5  N   LIG    1       25.054 -14.182   3.312  0.00  0.00    -0.289 NA
ATOM      6  C   LIG    1       26.227 -13.447   2.759  0.00  0.00    +0.061 C 
ATOM      7  C   LIG    1       25.918 -11.979   2.639  0.00  0.00    +0.030 C 
ATOM      8  C   LIG    1       25.141 -11.717   3.990  0.00  0.00    +0.060 C 
ATOM      9  C   LIG    1       23.742 -12.155   3.638  0.00  0.00    +0.150 C 
ATOM     10  O   LIG    1       22.751 -11.447   3.767  0.00  0.00    -0.296 OA
ATOM     11  C   LIG    1       23.725 -13.567   3.083  0.00  0.00    +0.159 C 
ATOM     12  C   LIG    1       25.543 -12.718   5.175  0.00  0.00    +0.030 C 
ATOM     13  C   LIG    1       27.024 -14.526   2.096  0.00  0.00    +0.063 C 
ENDBRANCH   1   2
BRANCH   1  15
ATOM     14  O   LIG    1       27.525 -18.118   4.562  0.00  0.00    -0.245 OA
ATOM     15  C   LIG    1       26.538 -17.773   3.923  0.00  0.00    +0.342 C 
BRANCH  15  16
ATOM     16  C   LIG    1       25.202 -18.323   4.125  0.00  0.00    +0.084 C 
ATOM     17  C   LIG    1       24.833 -19.482   4.884  0.00  0.00    +0.014 C 
ATOM     18  C   LIG    1       23.444 -19.617   4.799  0.00  0.00    +0.047 C 
ATOM     19  C   LIG    1       22.741 -20.651   5.428  0.00  0.00    +0.026 C 
ATOM     20  C   LIG    1       23.476 -21.572   6.178  0.00  0.00    +0.002 C 
ATOM     21  C   LIG    1       24.859 -21.464   6.291  0.00  0.00    +0.001 C 
ATOM     22  N   LIG    1       22.983 -18.581   4.022  0.00  0.00    -0.360 NA
ATOM     23  H   LIG    1       22.011 -18.423   3.795  0.00  0.00    +0.165 HD
ATOM     24  C   LIG    1       25.548 -20.429   5.648  0.00  0.00    +0.011 C 
ATOM     25  C   LIG    1       24.026 -17.796   3.616  0.00  0.00    +0.098 C 
ENDBRANCH  15  16
ENDBRANCH   1  15
TORSDOF 3
ENDMDL
