MODEL 1
REMARK VINA RESULT:      -6.2      0.000      0.000
REMARK  Name = *****
REMARK                            x       y       z     vdW  Elec       q    Type
REMARK                         _______ _______ _______ _____ _____    ______ ____
ROOT
ATOM      1  C   LIG    1       23.508 -30.864   8.225  0.00  0.00    +0.169 C 
ATOM      2  C   LIG    1       23.951 -32.109   7.366  0.00  0.00    +0.084 C 
ATOM      3  C   LIG    1       25.423 -32.515   7.628  0.00  0.00    +0.042 C 
ATOM      4  C   LIG    1       25.931 -31.945   8.951  0.00  0.00    +0.084 C 
ATOM      5  C   LIG    1       25.911 -30.393   8.876  0.00  0.00    +0.163 C 
ATOM      6  C   LIG    1       24.632 -29.794   8.229  0.00  0.00    +0.182 C 
ENDROOT
BRANCH   2   7
ATOM      7  N   LIG    1       23.786 -31.928   5.908  0.00  0.00    -0.325 NA
ATOM      8  H   LIG    1       24.272 -32.699   5.438  0.00  0.00    +0.118 HD
ATOM      9  H   LIG    1       24.278 -31.089   5.606  0.00  0.00    +0.118 HD
ENDBRANCH   2   7
BRANCH   4  10
ATOM     10  N   LIG    1       27.293 -32.426   9.251  0.00  0.00    -0.325 NA
ATOM     11  H   LIG    1       27.829 -32.482   8.380  0.00  0.00    +0.118 HD
ATOM     12  H   LIG    1       27.782 -31.726   9.809  0.00  0.00    +0.118 HD
ENDBRANCH   4  10
BRANCH   5  13
ATOM     13  O   LIG    1       26.146 -29.802  10.165  0.00  0.00    -0.388 OA
ATOM     14  H   LIG    1       27.074 -29.481  10.165  0.00  0.00    +0.210 HD
ENDBRANCH   5  13
BRANCH   6  15
ATOM     15  O   LIG    1       24.822 -29.400   6.860  0.00  0.00    -0.340 OA
BRANCH  15  16
ATOM     16  C   LIG    1       24.848 -28.013   6.547  0.00  0.00    +0.282 C 
ATOM     17  C   LIG    1       26.062 -27.195   7.010  0.00  0.00    +0.202 C 
ATOM     18  C   LIG    1       25.785 -25.903   6.240  0.00  0.00    +0.186 C 
ATOM     19  C   LIG    1       25.387 -26.479   4.871  0.00  0.00    +0.178 C 
ATOM     20  O   LIG    1       24.658 -27.706   5.162  0.00  0.00    -0.341 OA
BRANCH  17  21
ATOM     21  O   LIG    1       26.187 -27.027   8.412  0.00  0.00    -0.384 OA
ATOM     22  H   LIG    1       27.154 -27.020   8.627  0.00  0.00    +0.210 HD
ENDBRANCH  17  21
BRANCH  19  23
ATOM     23  C   LIG    1       26.548 -26.778   3.904  0.00  0.00    +0.190 C 
BRANCH  23  24
ATOM     24  O   LIG    1       27.668 -27.384   4.538  0.00  0.00    -0.392 OA
ATOM     25  H   LIG    1       27.323 -28.095   5.113  0.00  0.00    +0.209 HD
ENDBRANCH  23  24
ENDBRANCH  19  23
BRANCH  18  26
ATOM     26  O   LIG    1       24.589 -25.242   6.733  0.00  0.00    -0.341 OA
BRANCH  26  27
ATOM     27  C   LIG    1       24.758 -23.888   7.166  0.00  0.00    +0.270 C 
ATOM     28  C   LIG    1       23.987 -22.985   6.147  0.00  0.00    +0.139 C 
ATOM     29  C   LIG    1       24.151 -21.506   6.549  0.00  0.00    +0.167 C 
ATOM     30  C   LIG    1       25.645 -21.158   6.694  0.00  0.00    +0.175 C 
ATOM     31  C   LIG    1       26.354 -22.188   7.607  0.00  0.00    +0.166 C 
ATOM     32  O   LIG    1       26.135 -23.533   7.146  0.00  0.00    -0.343 OA
BRANCH  28  33
ATOM     33  N   LIG    1       24.501 -23.168   4.753  0.00  0.00    -0.321 NA
ATOM     34  H   LIG    1       24.456 -22.273   4.264  0.00  0.00    +0.119 HD
ATOM     35  H   LIG    1       23.833 -23.780   4.271  0.00  0.00    +0.119 HD
ENDBRANCH  28  33
BRANCH  30  36
ATOM     36  O   LIG    1       26.254 -21.110   5.398  0.00  0.00    -0.387 OA
ATOM     37  H   LIG    1       25.960 -20.257   4.997  0.00  0.00    +0.210 HD
ENDBRANCH  30  36
BRANCH  29  38
ATOM     38  O   LIG    1       23.449 -21.251   7.768  0.00  0.00    -0.387 OA
ATOM     39  H   LIG    1       24.121 -21.055   8.446  0.00  0.00    +0.210 HD
ENDBRANCH  29  38
BRANCH  31  40
ATOM     40  C   LIG    1       27.875 -21.940   7.635  0.00  0.00    +0.112 C 
BRANCH  40  41
ATOM     41  N   LIG    1       28.212 -20.550   7.967  0.00  0.00    -0.328 NA
ATOM     42  H   LIG    1       28.294 -20.009   7.108  0.00  0.00    +0.118 HD
ATOM     43  H   LIG    1       27.469 -20.129   8.521  0.00  0.00    +0.118 HD
ENDBRANCH  40  41
ENDBRANCH  31  40
ENDBRANCH  26  27
ENDBRANCH  18  26
ENDBRANCH  15  16
ENDBRANCH   6  15
BRANCH   1  44
ATOM     44  O   LIG    1       23.160 -31.330   9.554  0.00  0.00    -0.342 OA
BRANCH  44  49
ATOM     45  C   LIG    1       20.508 -31.843  10.563  0.00  0.00    +0.166 C 
ATOM     46  C   LIG    1       20.922 -32.281  11.984  0.00  0.00    +0.175 C 
ATOM     47  C   LIG    1       22.409 -32.011  12.251  0.00  0.00    +0.167 C 
ATOM     48  C   LIG    1       22.714 -30.555  11.876  0.00  0.00    +0.139 C 
ATOM     49  C   LIG    1       22.415 -30.403  10.353  0.00  0.00    +0.270 C 
ATOM     50  O   LIG    1       21.015 -30.556  10.167  0.00  0.00    -0.343 OA
BRANCH  48  51
ATOM     51  N   LIG    1       24.054 -30.125  12.345  0.00  0.00    -0.321 NA
ATOM     52  H   LIG    1       24.693 -30.908  12.170  0.00  0.00    +0.119 HD
ATOM     53  H   LIG    1       24.024 -30.069  13.366  0.00  0.00    +0.119 HD
ENDBRANCH  48  51
BRANCH  47  54
ATOM     54  O   LIG    1       22.683 -32.252  13.645  0.00  0.00    -0.387 OA
ATOM     55  H   LIG    1       22.164 -33.046  13.873  0.00  0.00    +0.210 HD
ENDBRANCH  47  54
BRANCH  46  56
ATOM     56  O   LIG    1       20.653 -33.677  12.177  0.00  0.00    -0.387 OA
ATOM     57  H   LIG    1       19.735 -33.720  12.512  0.00  0.00    +0.210 HD
ENDBRANCH  46  56
BRANCH  45  58
ATOM     58  C   LIG    1       18.971 -31.801  10.393  0.00  0.00    +0.112 C 
BRANCH  58  59
ATOM     59  N   LIG    1       18.465 -30.626   9.667  0.00  0.00    -0.328 NA
ATOM     60  H   LIG    1       18.032 -29.965  10.306  0.00  0.00    +0.118 HD
ATOM     61  H   LIG    1       17.735 -30.922   9.021  0.00  0.00    +0.118 HD
ENDBRANCH  58  59
ENDBRANCH  45  58
ENDBRANCH  44  49
ENDBRANCH   1  44
TORSDOF 22
ENDMDL
MODEL 2
REMARK VINA RESULT:      -5.8      1.391      1.561
REMARK  Name = *****
REMARK                            x       y       z     vdW  Elec       q    Type
REMARK                         _______ _______ _______ _____ _____    ______ ____
ROOT
ATOM      1  C   LIG    1       23.532 -30.824   8.368  0.00  0.00    +0.169 C 
ATOM      2  C   LIG    1       24.082 -32.092   7.611  0.00  0.00    +0.084 C 
ATOM      3  C   LIG    1       25.572 -32.373   7.930  0.00  0.00    +0.042 C 
ATOM      4  C   LIG    1       26.006 -31.675   9.218  0.00  0.00    +0.084 C 
ATOM      5  C   LIG    1       25.880 -30.138   9.030  0.00  0.00    +0.163 C 
ATOM      6  C   LIG    1       24.579 -29.679   8.315  0.00  0.00    +0.182 C 
ENDROOT
BRANCH   2   7
ATOM      7  N   LIG    1       23.941 -32.028   6.140  0.00  0.00    -0.325 NA
ATOM      8  H   LIG    1       22.939 -32.022   5.919  0.00  0.00    +0.118 HD
ATOM      9  H   LIG    1       24.293 -32.887   5.722  0.00  0.00    +0.118 HD
ENDBRANCH   2   7
BRANCH   4  10
ATOM     10  N   LIG    1       27.390 -32.035   9.579  0.00  0.00    -0.325 NA
ATOM     11  H   LIG    1       27.505 -31.956  10.593  0.00  0.00    +0.118 HD
ATOM     12  H   LIG    1       27.544 -33.024   9.379  0.00  0.00    +0.118 HD
ENDBRANCH   4  10
BRANCH   5  13
ATOM     13  O   LIG    1       26.042 -29.441  10.276  0.00  0.00    -0.388 OA
ATOM     14  H   LIG    1       25.919 -28.485  10.084  0.00  0.00    +0.210 HD
ENDBRANCH   5  13
BRANCH   6  15
ATOM     15  O   LIG    1       24.775 -29.372   6.925  0.00  0.00    -0.340 OA
BRANCH  15  16
ATOM     16  C   LIG    1       24.807 -28.007   6.526  0.00  0.00    +0.282 C 
ATOM     17  C   LIG    1       26.006 -27.156   6.968  0.00  0.00    +0.202 C 
ATOM     18  C   LIG    1       25.746 -25.916   6.111  0.00  0.00    +0.186 C 
ATOM     19  C   LIG    1       25.386 -26.579   4.772  0.00  0.00    +0.178 C 
ATOM     20  O   LIG    1       24.653 -27.788   5.120  0.00  0.00    -0.341 OA
BRANCH  17  21
ATOM     21  O   LIG    1       26.094 -26.900   8.360  0.00  0.00    -0.384 OA
ATOM     22  H   LIG    1       25.326 -26.324   8.606  0.00  0.00    +0.210 HD
ENDBRANCH  17  21
BRANCH  19  23
ATOM     23  C   LIG    1       26.573 -26.934   3.857  0.00  0.00    +0.190 C 
BRANCH  23  24
ATOM     24  O   LIG    1       27.734 -27.342   4.570  0.00  0.00    -0.392 OA
ATOM     25  H   LIG    1       27.562 -27.177   5.518  0.00  0.00    +0.209 HD
ENDBRANCH  23  24
ENDBRANCH  19  23
BRANCH  18  26
ATOM     26  O   LIG    1       24.537 -25.231   6.530  0.00  0.00    -0.341 OA
BRANCH  26  27
ATOM     27  C   LIG    1       24.623 -23.803   6.607  0.00  0.00    +0.270 C 
ATOM     28  C   LIG    1       23.340 -23.309   7.354  0.00  0.00    +0.139 C 
ATOM     29  C   LIG    1       23.364 -21.771   7.448  0.00  0.00    +0.167 C 
ATOM     30  C   LIG    1       23.554 -21.157   6.049  0.00  0.00    +0.175 C 
ATOM     31  C   LIG    1       24.762 -21.808   5.331  0.00  0.00    +0.166 C 
ATOM     32  O   LIG    1       24.641 -23.241   5.301  0.00  0.00    -0.343 OA
BRANCH  28  33
ATOM     33  N   LIG    1       22.093 -23.732   6.641  0.00  0.00    -0.321 NA
ATOM     34  H   LIG    1       21.310 -23.179   6.991  0.00  0.00    +0.119 HD
ATOM     35  H   LIG    1       21.902 -24.698   6.931  0.00  0.00    +0.119 HD
ENDBRANCH  28  33
BRANCH  30  36
ATOM     36  O   LIG    1       22.351 -21.319   5.287  0.00  0.00    -0.387 OA
ATOM     37  H   LIG    1       22.557 -22.002   4.605  0.00  0.00    +0.210 HD
ENDBRANCH  30  36
BRANCH  29  38
ATOM     38  O   LIG    1       24.408 -21.353   8.332  0.00  0.00    -0.387 OA
ATOM     39  H   LIG    1       25.212 -21.250   7.793  0.00  0.00    +0.210 HD
ENDBRANCH  29  38
BRANCH  31  40
ATOM     40  C   LIG    1       24.867 -21.312   3.875  0.00  0.00    +0.112 C 
BRANCH  40  41
ATOM     41  N   LIG    1       25.759 -20.153   3.738  0.00  0.00    -0.328 NA
ATOM     42  H   LIG    1       25.793 -19.868   2.762  0.00  0.00    +0.118 HD
ATOM     43  H   LIG    1       25.397 -19.365   4.273  0.00  0.00    +0.118 HD
ENDBRANCH  40  41
ENDBRANCH  31  40
ENDBRANCH  26  27
ENDBRANCH  18  26
ENDBRANCH  15  16
ENDBRANCH   6  15
BRANCH   1  44
ATOM     44  O   LIG    1       23.185 -31.216   9.719  0.00  0.00    -0.342 OA
BRANCH  44  49
ATOM     45  C   LIG    1       20.456 -31.520  10.601  0.00  0.00    +0.166 C 
ATOM     46  C   LIG    1       20.767 -31.982  12.041  0.00  0.00    +0.175 C 
ATOM     47  C   LIG    1       22.255 -31.825  12.379  0.00  0.00    +0.167 C 
ATOM     48  C   LIG    1       22.689 -30.398  12.016  0.00  0.00    +0.139 C 
ATOM     49  C   LIG    1       22.475 -30.231  10.481  0.00  0.00    +0.270 C 
ATOM     50  O   LIG    1       21.078 -30.278  10.228  0.00  0.00    -0.343 OA
BRANCH  48  51
ATOM     51  N   LIG    1       24.034 -30.070  12.549  0.00  0.00    -0.321 NA
ATOM     52  H   LIG    1       24.098 -30.505  13.476  0.00  0.00    +0.119 HD
ATOM     53  H   LIG    1       24.051 -29.069  12.758  0.00  0.00    +0.119 HD
ENDBRANCH  48  51
BRANCH  47  54
ATOM     54  O   LIG    1       22.443 -32.079  13.784  0.00  0.00    -0.387 OA
ATOM     55  H   LIG    1       22.301 -33.039  13.890  0.00  0.00    +0.210 HD
ENDBRANCH  47  54
BRANCH  46  56
ATOM     56  O   LIG    1       20.383 -33.352  12.222  0.00  0.00    -0.387 OA
ATOM     57  H   LIG    1       19.588 -33.325  12.791  0.00  0.00    +0.210 HD
ENDBRANCH  46  56
BRANCH  45  58
ATOM     58  C   LIG    1       18.937 -31.361  10.357  0.00  0.00    +0.112 C 
BRANCH  58  59
ATOM     59  N   LIG    1       18.128 -31.224  11.578  0.00  0.00    -0.328 NA
ATOM     60  H   LIG    1       17.650 -30.328  11.596  0.00  0.00    +0.118 HD
ATOM     61  H   LIG    1       18.744 -31.238  12.389  0.00  0.00    +0.118 HD
ENDBRANCH  58  59
ENDBRANCH  45  58
ENDBRANCH  44  49
ENDBRANCH   1  44
TORSDOF 22
ENDMDL
MODEL 3
REMARK VINA RESULT:      -5.4      1.878      2.845
REMARK  Name = *****
REMARK                            x       y       z     vdW  Elec       q    Type
REMARK                         _______ _______ _______ _____ _____    ______ ____
ROOT
ATOM      1  C   LIG    1       23.524 -30.117   8.986  0.00  0.00    +0.169 C 
ATOM      2  C   LIG    1       23.797 -31.568   8.434  0.00  0.00    +0.084 C 
ATOM      3  C   LIG    1       25.283 -31.984   8.573  0.00  0.00    +0.042 C 
ATOM      4  C   LIG    1       26.009 -31.123   9.606  0.00  0.00    +0.084 C 
ATOM      5  C   LIG    1       26.010 -29.646   9.123  0.00  0.00    +0.163 C 
ATOM      6  C   LIG    1       24.657 -29.156   8.537  0.00  0.00    +0.182 C 
ENDROOT
BRANCH   2   7
ATOM      7  N   LIG    1       23.405 -31.762   7.022  0.00  0.00    -0.325 NA
ATOM      8  H   LIG    1       22.407 -31.541   6.938  0.00  0.00    +0.118 HD
ATOM      9  H   LIG    1       23.474 -32.748   6.776  0.00  0.00    +0.118 HD
ENDBRANCH   2   7
BRANCH   4  10
ATOM     10  N   LIG    1       27.390 -31.595   9.817  0.00  0.00    -0.325 NA
ATOM     11  H   LIG    1       27.813 -31.815   8.911  0.00  0.00    +0.118 HD
ATOM     12  H   LIG    1       27.955 -30.829  10.185  0.00  0.00    +0.118 HD
ENDBRANCH   4  10
BRANCH   5  13
ATOM     13  O   LIG    1       26.461 -28.756  10.158  0.00  0.00    -0.388 OA
ATOM     14  H   LIG    1       26.464 -27.852   9.773  0.00  0.00    +0.210 HD
ENDBRANCH   5  13
BRANCH   6  15
ATOM     15  O   LIG    1       24.634 -29.145   7.101  0.00  0.00    -0.340 OA
BRANCH  15  16
ATOM     16  C   LIG    1       24.834 -27.909   6.425  0.00  0.00    +0.282 C 
ATOM     17  C   LIG    1       25.935 -26.974   6.946  0.00  0.00    +0.202 C 
ATOM     18  C   LIG    1       25.956 -25.968   5.795  0.00  0.00    +0.186 C 
ATOM     19  C   LIG    1       25.893 -26.923   4.593  0.00  0.00    +0.178 C 
ATOM     20  O   LIG    1       25.035 -28.022   5.012  0.00  0.00    -0.341 OA
BRANCH  17  21
ATOM     21  O   LIG    1       25.699 -26.403   8.222  0.00  0.00    -0.384 OA
ATOM     22  H   LIG    1       25.872 -27.105   8.900  0.00  0.00    +0.210 HD
ENDBRANCH  17  21
BRANCH  19  23
ATOM     23  C   LIG    1       27.245 -27.476   4.102  0.00  0.00    +0.190 C 
BRANCH  23  24
ATOM     24  O   LIG    1       28.334 -27.143   4.955  0.00  0.00    -0.392 OA
ATOM     25  H   LIG    1       29.075 -27.734   4.719  0.00  0.00    +0.209 HD
ENDBRANCH  23  24
ENDBRANCH  19  23
BRANCH  18  26
ATOM     26  O   LIG    1       24.719 -25.208   5.738  0.00  0.00    -0.341 OA
BRANCH  26  27
ATOM     27  C   LIG    1       24.827 -23.816   6.054  0.00  0.00    +0.270 C 
ATOM     28  C   LIG    1       23.688 -23.491   7.076  0.00  0.00    +0.139 C 
ATOM     29  C   LIG    1       23.738 -21.995   7.440  0.00  0.00    +0.167 C 
ATOM     30  C   LIG    1       23.699 -21.137   6.161  0.00  0.00    +0.175 C 
ATOM     31  C   LIG    1       24.768 -21.622   5.151  0.00  0.00    +0.166 C 
ATOM     32  O   LIG    1       24.634 -23.030   4.885  0.00  0.00    -0.343 OA
BRANCH  28  33
ATOM     33  N   LIG    1       22.338 -23.808   6.513  0.00  0.00    -0.321 NA
ATOM     34  H   LIG    1       22.061 -24.740   6.823  0.00  0.00    +0.119 HD
ATOM     35  H   LIG    1       22.454 -23.879   5.495  0.00  0.00    +0.119 HD
ENDBRANCH  28  33
BRANCH  30  36
ATOM     36  O   LIG    1       22.386 -21.188   5.589  0.00  0.00    -0.387 OA
ATOM     37  H   LIG    1       22.522 -21.340   4.623  0.00  0.00    +0.210 HD
ENDBRANCH  30  36
BRANCH  29  38
ATOM     38  O   LIG    1       24.916 -21.716   8.202  0.00  0.00    -0.387 OA
ATOM     39  H   LIG    1       24.668 -21.059   8.877  0.00  0.00    +0.210 HD
ENDBRANCH  29  38
BRANCH  31  40
ATOM     40  C   LIG    1       24.636 -20.873   3.810  0.00  0.00    +0.112 C 
BRANCH  40  41
ATOM     41  N   LIG    1       24.278 -19.460   3.988  0.00  0.00    -0.328 NA
ATOM     42  H   LIG    1       24.077 -19.285   4.970  0.00  0.00    +0.118 HD
ATOM     43  H   LIG    1       25.059 -18.862   3.726  0.00  0.00    +0.118 HD
ENDBRANCH  40  41
ENDBRANCH  31  40
ENDBRANCH  26  27
ENDBRANCH  18  26
ENDBRANCH  15  16
ENDBRANCH   6  15
BRANCH   1  44
ATOM     44  O   LIG    1       23.384 -30.198  10.427  0.00  0.00    -0.342 OA
BRANCH  44  49
ATOM     45  C   LIG    1       23.393 -31.114  13.161  0.00  0.00    +0.166 C 
ATOM     46  C   LIG    1       22.112 -30.383  13.616  0.00  0.00    +0.175 C 
ATOM     47  C   LIG    1       21.355 -29.773  12.429  0.00  0.00    +0.167 C 
ATOM     48  C   LIG    1       21.172 -30.857  11.358  0.00  0.00    +0.139 C 
ATOM     49  C   LIG    1       22.598 -31.297  10.906  0.00  0.00    +0.270 C 
ATOM     50  O   LIG    1       23.221 -31.950  12.003  0.00  0.00    -0.343 OA
BRANCH  48  51
ATOM     51  N   LIG    1       20.227 -30.439  10.294  0.00  0.00    -0.321 NA
ATOM     52  H   LIG    1       20.259 -29.414  10.257  0.00  0.00    +0.119 HD
ATOM     53  H   LIG    1       19.279 -30.633  10.626  0.00  0.00    +0.119 HD
ENDBRANCH  48  51
BRANCH  47  54
ATOM     54  O   LIG    1       20.081 -29.285  12.890  0.00  0.00    -0.387 OA
ATOM     55  H   LIG    1       19.657 -28.896  12.102  0.00  0.00    +0.210 HD
ENDBRANCH  47  54
BRANCH  46  56
ATOM     56  O   LIG    1       22.431 -29.348  14.556  0.00  0.00    -0.387 OA
ATOM     57  H   LIG    1       21.795 -29.459  15.290  0.00  0.00    +0.210 HD
ENDBRANCH  46  56
BRANCH  45  58
ATOM     58  C   LIG    1       23.984 -32.003  14.281  0.00  0.00    +0.112 C 
BRANCH  58  59
ATOM     59  N   LIG    1       25.255 -32.659  13.940  0.00  0.00    -0.328 NA
ATOM     60  H   LIG    1       25.095 -33.610  13.617  0.00  0.00    +0.118 HD
ATOM     61  H   LIG    1       25.828 -32.733  14.779  0.00  0.00    +0.118 HD
ENDBRANCH  58  59
ENDBRANCH  45  58
ENDBRANCH  44  49
ENDBRANCH   1  44
TORSDOF 22
ENDMDL
MODEL 4
REMARK VINA RESULT:      -5.4      2.641     10.099
REMARK  Name = *****
REMARK                            x       y       z     vdW  Elec       q    Type
REMARK                         _______ _______ _______ _____ _____    ______ ____
ROOT
ATOM      1  C   LIG    1       25.238 -21.782   6.104  0.00  0.00    +0.169 C 
ATOM      2  C   LIG    1       24.662 -20.943   7.307  0.00  0.00    +0.084 C 
ATOM      3  C   LIG    1       25.772 -20.448   8.269  0.00  0.00    +0.042 C 
ATOM      4  C   LIG    1       27.144 -20.475   7.597  0.00  0.00    +0.084 C 
ATOM      5  C   LIG    1       27.502 -21.942   7.232  0.00  0.00    +0.163 C 
ATOM      6  C   LIG    1       26.333 -22.758   6.613  0.00  0.00    +0.182 C 
ENDROOT
BRANCH   2   7
ATOM      7  N   LIG    1       23.652 -21.658   8.116  0.00  0.00    -0.325 NA
ATOM      8  H   LIG    1       23.436 -22.541   7.641  0.00  0.00    +0.118 HD
ATOM      9  H   LIG    1       22.775 -21.140   8.111  0.00  0.00    +0.118 HD
ENDBRANCH   2   7
BRANCH   4  10
ATOM     10  N   LIG    1       28.179 -19.898   8.475  0.00  0.00    -0.325 NA
ATOM     11  H   LIG    1       27.728 -19.455   9.280  0.00  0.00    +0.118 HD
ATOM     12  H   LIG    1       28.739 -20.651   8.875  0.00  0.00    +0.118 HD
ENDBRANCH   4  10
BRANCH   5  13
ATOM     13  O   LIG    1       28.662 -22.005   6.386  0.00  0.00    -0.388 OA
ATOM     14  H   LIG    1       29.418 -22.259   6.960  0.00  0.00    +0.210 HD
ENDBRANCH   5  13
BRANCH   6  15
ATOM     15  O   LIG    1       25.691 -23.631   7.555  0.00  0.00    -0.340 OA
BRANCH  15  16
ATOM     16  C   LIG    1       25.427 -24.975   7.169  0.00  0.00    +0.282 C 
ATOM     17  C   LIG    1       24.591 -25.207   5.902  0.00  0.00    +0.202 C 
ATOM     18  C   LIG    1       24.804 -26.714   5.750  0.00  0.00    +0.186 C 
ATOM     19  C   LIG    1       26.314 -26.806   6.025  0.00  0.00    +0.178 C 
ATOM     20  O   LIG    1       26.587 -25.804   7.046  0.00  0.00    -0.341 OA
BRANCH  17  21
ATOM     21  O   LIG    1       23.231 -24.812   5.986  0.00  0.00    -0.384 OA
ATOM     22  H   LIG    1       23.188 -23.846   5.770  0.00  0.00    +0.210 HD
ENDBRANCH  17  21
BRANCH  19  23
ATOM     23  C   LIG    1       27.234 -26.577   4.810  0.00  0.00    +0.190 C 
BRANCH  23  24
ATOM     24  O   LIG    1       28.537 -27.120   4.980  0.00  0.00    -0.392 OA
ATOM     25  H   LIG    1       28.433 -27.986   5.422  0.00  0.00    +0.209 HD
ENDBRANCH  23  24
ENDBRANCH  19  23
BRANCH  18  26
ATOM     26  O   LIG    1       24.178 -27.446   6.837  0.00  0.00    -0.341 OA
BRANCH  26  27
ATOM     27  C   LIG    1       24.706 -28.753   7.093  0.00  0.00    +0.270 C 
ATOM     28  C   LIG    1       24.523 -29.584   5.780  0.00  0.00    +0.139 C 
ATOM     29  C   LIG    1       25.054 -31.013   6.001  0.00  0.00    +0.167 C 
ATOM     30  C   LIG    1       24.388 -31.640   7.241  0.00  0.00    +0.175 C 
ATOM     31  C   LIG    1       24.496 -30.685   8.455  0.00  0.00    +0.166 C 
ATOM     32  O   LIG    1       23.977 -29.381   8.141  0.00  0.00    -0.343 OA
BRANCH  28  33
ATOM     33  N   LIG    1       23.084 -29.659   5.374  0.00  0.00    -0.321 NA
ATOM     34  H   LIG    1       23.030 -29.695   4.356  0.00  0.00    +0.119 HD
ATOM     35  H   LIG    1       22.656 -28.765   5.642  0.00  0.00    +0.119 HD
ENDBRANCH  28  33
BRANCH  30  36
ATOM     36  O   LIG    1       23.021 -31.949   6.945  0.00  0.00    -0.387 OA
ATOM     37  H   LIG    1       22.483 -31.376   7.543  0.00  0.00    +0.210 HD
ENDBRANCH  30  36
BRANCH  29  38
ATOM     38  O   LIG    1       26.477 -30.989   6.147  0.00  0.00    -0.387 OA
ATOM     39  H   LIG    1       26.670 -30.493   6.963  0.00  0.00    +0.210 HD
ENDBRANCH  29  38
BRANCH  31  40
ATOM     40  C   LIG    1       23.701 -31.233   9.656  0.00  0.00    +0.112 C 
BRANCH  40  41
ATOM     41  N   LIG    1       22.300 -30.795   9.650  0.00  0.00    -0.328 NA
ATOM     42  H   LIG    1       21.732 -31.477  10.149  0.00  0.00    +0.118 HD
ATOM     43  H   LIG    1       22.206 -29.906  10.139  0.00  0.00    +0.118 HD
ENDBRANCH  40  41
ENDBRANCH  31  40
ENDBRANCH  26  27
ENDBRANCH  18  26
ENDBRANCH  15  16
ENDBRANCH   6  15
BRANCH   1  44
ATOM     44  O   LIG    1       25.722 -20.858   5.097  0.00  0.00    -0.342 OA
BRANCH  44  49
ATOM     45  C   LIG    1       22.852 -20.790   4.826  0.00  0.00    +0.166 C 
ATOM     46  C   LIG    1       22.722 -19.286   4.504  0.00  0.00    +0.175 C 
ATOM     47  C   LIG    1       24.089 -18.641   4.245  0.00  0.00    +0.167 C 
ATOM     48  C   LIG    1       24.842 -19.492   3.213  0.00  0.00    +0.139 C 
ATOM     49  C   LIG    1       25.035 -20.906   3.840  0.00  0.00    +0.270 C 
ATOM     50  O   LIG    1       23.753 -21.506   3.964  0.00  0.00    -0.343 OA
BRANCH  48  51
ATOM     51  N   LIG    1       26.056 -18.809   2.703  0.00  0.00    -0.321 NA
ATOM     52  H   LIG    1       26.235 -19.188   1.766  0.00  0.00    +0.119 HD
ATOM     53  H   LIG    1       26.854 -19.143   3.248  0.00  0.00    +0.119 HD
ENDBRANCH  48  51
BRANCH  47  54
ATOM     54  O   LIG    1       23.888 -17.300   3.758  0.00  0.00    -0.387 OA
ATOM     55  H   LIG    1       24.578 -17.168   3.082  0.00  0.00    +0.210 HD
ENDBRANCH  47  54
BRANCH  46  56
ATOM     56  O   LIG    1       22.071 -18.597   5.581  0.00  0.00    -0.387 OA
ATOM     57  H   LIG    1       22.789 -18.166   6.085  0.00  0.00    +0.210 HD
ENDBRANCH  46  56
BRANCH  45  58
ATOM     58  C   LIG    1       21.487 -21.517   4.765  0.00  0.00    +0.112 C 
BRANCH  58  59
ATOM     59  N   LIG    1       21.309 -22.576   5.770  0.00  0.00    -0.328 NA
ATOM     60  H   LIG    1       20.990 -23.437   5.334  0.00  0.00    +0.118 HD
ATOM     61  H   LIG    1       20.578 -22.297   6.423  0.00  0.00    +0.118 HD
ENDBRANCH  58  59
ENDBRANCH  45  58
ENDBRANCH  44  49
ENDBRANCH   1  44
TORSDOF 22
ENDMDL
MODEL 5
REMARK VINA RESULT:      -5.3      2.190      2.756
REMARK  Name = *****
REMARK                            x       y       z     vdW  Elec       q    Type
REMARK                         _______ _______ _______ _____ _____    ______ ____
ROOT
ATOM      1  C   LIG    1       25.237 -29.557   9.698  0.00  0.00    +0.169 C 
ATOM      2  C   LIG    1       26.186 -30.718   9.214  0.00  0.00    +0.084 C 
ATOM      3  C   LIG    1       27.601 -30.626   9.840  0.00  0.00    +0.042 C 
ATOM      4  C   LIG    1       27.599 -29.754  11.095  0.00  0.00    +0.084 C 
ATOM      5  C   LIG    1       27.197 -28.305  10.705  0.00  0.00    +0.163 C 
ATOM      6  C   LIG    1       26.009 -28.210   9.709  0.00  0.00    +0.182 C 
ENDROOT
BRANCH   2   7
ATOM      7  N   LIG    1       26.347 -30.796   7.747  0.00  0.00    -0.325 NA
ATOM      8  H   LIG    1       27.326 -31.033   7.549  0.00  0.00    +0.118 HD
ATOM      9  H   LIG    1       26.216 -29.875   7.334  0.00  0.00    +0.118 HD
ENDBRANCH   2   7
BRANCH   4  10
ATOM     10  N   LIG    1       28.921 -29.761  11.750  0.00  0.00    -0.325 NA
ATOM     11  H   LIG    1       29.337 -30.692  11.658  0.00  0.00    +0.118 HD
ATOM     12  H   LIG    1       29.553 -29.145  11.239  0.00  0.00    +0.118 HD
ENDBRANCH   4  10
BRANCH   5  13
ATOM     13  O   LIG    1       26.944 -27.499  11.868  0.00  0.00    -0.388 OA
ATOM     14  H   LIG    1       27.549 -27.820  12.572  0.00  0.00    +0.210 HD
ENDBRANCH   5  13
BRANCH   6  15
ATOM     15  O   LIG    1       26.424 -27.970   8.354  0.00  0.00    -0.340 OA
BRANCH  15  16
ATOM     16  C   LIG    1       25.503 -27.362   7.457  0.00  0.00    +0.282 C 
ATOM     17  C   LIG    1       26.072 -26.535   6.294  0.00  0.00    +0.202 C 
ATOM     18  C   LIG    1       24.784 -26.335   5.493  0.00  0.00    +0.186 C 
ATOM     19  C   LIG    1       24.194 -27.752   5.563  0.00  0.00    +0.178 C 
ATOM     20  O   LIG    1       24.542 -28.255   6.885  0.00  0.00    -0.341 OA
BRANCH  17  21
ATOM     21  O   LIG    1       26.728 -25.333   6.662  0.00  0.00    -0.384 OA
ATOM     22  H   LIG    1       27.703 -25.501   6.622  0.00  0.00    +0.210 HD
ENDBRANCH  17  21
BRANCH  19  23
ATOM     23  C   LIG    1       24.683 -28.738   4.485  0.00  0.00    +0.190 C 
BRANCH  23  24
ATOM     24  O   LIG    1       25.037 -30.013   5.006  0.00  0.00    -0.392 OA
ATOM     25  H   LIG    1       26.003 -30.111   4.894  0.00  0.00    +0.209 HD
ENDBRANCH  23  24
ENDBRANCH  19  23
BRANCH  18  26
ATOM     26  O   LIG    1       23.841 -25.498   6.214  0.00  0.00    -0.341 OA
BRANCH  26  27
ATOM     27  C   LIG    1       24.187 -24.111   6.314  0.00  0.00    +0.270 C 
ATOM     28  C   LIG    1       23.093 -23.433   7.203  0.00  0.00    +0.139 C 
ATOM     29  C   LIG    1       23.399 -21.928   7.331  0.00  0.00    +0.167 C 
ATOM     30  C   LIG    1       23.554 -21.298   5.933  0.00  0.00    +0.175 C 
ATOM     31  C   LIG    1       24.550 -22.119   5.077  0.00  0.00    +0.166 C 
ATOM     32  O   LIG    1       24.174 -23.507   5.027  0.00  0.00    -0.343 OA
BRANCH  28  33
ATOM     33  N   LIG    1       21.727 -23.602   6.617  0.00  0.00    -0.321 NA
ATOM     34  H   LIG    1       21.660 -24.530   6.198  0.00  0.00    +0.119 HD
ATOM     35  H   LIG    1       21.658 -22.940   5.835  0.00  0.00    +0.119 HD
ENDBRANCH  28  33
BRANCH  30  36
ATOM     36  O   LIG    1       22.272 -21.217   5.299  0.00  0.00    -0.387 OA
ATOM     37  H   LIG    1       21.636 -20.976   6.015  0.00  0.00    +0.210 HD
ENDBRANCH  30  36
BRANCH  29  38
ATOM     38  O   LIG    1       24.584 -21.734   8.109  0.00  0.00    -0.387 OA
ATOM     39  H   LIG    1       25.260 -22.335   7.750  0.00  0.00    +0.210 HD
ENDBRANCH  29  38
BRANCH  31  40
ATOM     40  C   LIG    1       24.595 -21.590   3.630  0.00  0.00    +0.112 C 
BRANCH  40  41
ATOM     41  N   LIG    1       24.497 -20.126   3.563  0.00  0.00    -0.328 NA
ATOM     42  H   LIG    1       25.108 -19.715   4.265  0.00  0.00    +0.118 HD
ATOM     43  H   LIG    1       24.810 -19.793   2.654  0.00  0.00    +0.118 HD
ENDBRANCH  40  41
ENDBRANCH  31  40
ENDBRANCH  26  27
ENDBRANCH  18  26
ENDBRANCH  15  16
ENDBRANCH   6  15
BRANCH   1  44
ATOM     44  O   LIG    1       24.704 -29.917  10.997  0.00  0.00    -0.342 OA
BRANCH  44  49
ATOM     45  C   LIG    1       22.186 -31.153  11.669  0.00  0.00    +0.166 C 
ATOM     46  C   LIG    1       22.368 -31.143  13.202  0.00  0.00    +0.175 C 
ATOM     47  C   LIG    1       23.587 -30.314  13.624  0.00  0.00    +0.167 C 
ATOM     48  C   LIG    1       23.501 -28.941  12.944  0.00  0.00    +0.139 C 
ATOM     49  C   LIG    1       23.539 -29.190  11.406  0.00  0.00    +0.270 C 
ATOM     50  O   LIG    1       22.343 -29.866  11.045  0.00  0.00    -0.343 OA
BRANCH  48  51
ATOM     51  N   LIG    1       24.488 -27.980  13.496  0.00  0.00    -0.321 NA
ATOM     52  H   LIG    1       25.399 -28.450  13.475  0.00  0.00    +0.119 HD
ATOM     53  H   LIG    1       24.298 -27.878  14.496  0.00  0.00    +0.119 HD
ENDBRANCH  48  51
BRANCH  47  54
ATOM     54  O   LIG    1       23.585 -30.179  15.059  0.00  0.00    -0.387 OA
ATOM     55  H   LIG    1       24.292 -29.537  15.255  0.00  0.00    +0.210 HD
ENDBRANCH  47  54
BRANCH  46  56
ATOM     56  O   LIG    1       22.511 -32.481  13.698  0.00  0.00    -0.387 OA
ATOM     57  H   LIG    1       21.918 -33.028  13.146  0.00  0.00    +0.210 HD
ENDBRANCH  46  56
BRANCH  45  58
ATOM     58  C   LIG    1       20.800 -31.697  11.251  0.00  0.00    +0.112 C 
BRANCH  58  59
ATOM     59  N   LIG    1       20.093 -30.880  10.253  0.00  0.00    -0.328 NA
ATOM     60  H   LIG    1       20.716 -30.621   9.492  0.00  0.00    +0.118 HD
ATOM     61  H   LIG    1       19.792 -30.009  10.687  0.00  0.00    +0.118 HD
ENDBRANCH  58  59
ENDBRANCH  45  58
ENDBRANCH  44  49
ENDBRANCH   1  44
TORSDOF 22
ENDMDL
MODEL 6
REMARK VINA RESULT:      -5.0      3.239      6.063
REMARK  Name = *****
REMARK                            x       y       z     vdW  Elec       q    Type
REMARK                         _______ _______ _______ _____ _____    ______ ____
ROOT
ATOM      1  C   LIG    1       25.615 -26.135   7.416  0.00  0.00    +0.169 C 
ATOM      2  C   LIG    1       24.280 -26.361   6.610  0.00  0.00    +0.084 C 
ATOM      3  C   LIG    1       24.539 -26.819   5.152  0.00  0.00    +0.042 C 
ATOM      4  C   LIG    1       25.948 -27.386   4.989  0.00  0.00    +0.084 C 
ATOM      5  C   LIG    1       26.984 -26.267   5.287  0.00  0.00    +0.163 C 
ATOM      6  C   LIG    1       26.652 -25.395   6.530  0.00  0.00    +0.182 C 
ENDROOT
BRANCH   2   7
ATOM      7  N   LIG    1       23.395 -25.178   6.559  0.00  0.00    -0.325 NA
ATOM      8  H   LIG    1       22.433 -25.497   6.711  0.00  0.00    +0.118 HD
ATOM      9  H   LIG    1       23.393 -24.787   5.619  0.00  0.00    +0.118 HD
ENDBRANCH   2   7
BRANCH   4  10
ATOM     10  N   LIG    1       26.152 -27.924   3.630  0.00  0.00    -0.325 NA
ATOM     11  H   LIG    1       25.372 -27.635   3.034  0.00  0.00    +0.118 HD
ATOM     12  H   LIG    1       26.972 -27.483   3.214  0.00  0.00    +0.118 HD
ENDBRANCH   4  10
BRANCH   5  13
ATOM     13  O   LIG    1       28.316 -26.797   5.387  0.00  0.00    -0.388 OA
ATOM     14  H   LIG    1       28.706 -26.431   6.210  0.00  0.00    +0.210 HD
ENDBRANCH   5  13
BRANCH   6  15
ATOM     15  O   LIG    1       26.065 -24.128   6.191  0.00  0.00    -0.340 OA
BRANCH  15  16
ATOM     16  C   LIG    1       26.366 -22.999   7.002  0.00  0.00    +0.282 C 
ATOM     17  C   LIG    1       26.287 -21.608   6.355  0.00  0.00    +0.202 C 
ATOM     18  C   LIG    1       26.410 -20.752   7.617  0.00  0.00    +0.186 C 
ATOM     19  C   LIG    1       25.460 -21.511   8.557  0.00  0.00    +0.178 C 
ATOM     20  O   LIG    1       25.623 -22.919   8.222  0.00  0.00    -0.341 OA
BRANCH  17  21
ATOM     21  O   LIG    1       27.265 -21.338   5.365  0.00  0.00    -0.384 OA
ATOM     22  H   LIG    1       28.037 -21.933   5.538  0.00  0.00    +0.210 HD
ENDBRANCH  17  21
BRANCH  19  23
ATOM     23  C   LIG    1       23.972 -21.123   8.467  0.00  0.00    +0.190 C 
BRANCH  23  24
ATOM     24  O   LIG    1       23.181 -22.077   7.769  0.00  0.00    -0.392 OA
ATOM     25  H   LIG    1       22.249 -21.915   8.018  0.00  0.00    +0.209 HD
ENDBRANCH  23  24
ENDBRANCH  19  23
BRANCH  18  26
ATOM     26  O   LIG    1       27.724 -20.888   8.219  0.00  0.00    -0.341 OA
BRANCH  26  27
ATOM     27  C   LIG    1       28.662 -19.850   7.911  0.00  0.00    +0.270 C 
ATOM     28  C   LIG    1       29.906 -20.540   7.259  0.00  0.00    +0.139 C 
ATOM     29  C   LIG    1       30.965 -19.472   6.924  0.00  0.00    +0.167 C 
ATOM     30  C   LIG    1       31.291 -18.636   8.177  0.00  0.00    +0.175 C 
ATOM     31  C   LIG    1       29.990 -18.113   8.833  0.00  0.00    +0.166 C 
ATOM     32  O   LIG    1       29.071 -19.188   9.100  0.00  0.00    -0.343 OA
BRANCH  28  33
ATOM     33  N   LIG    1       30.514 -21.553   8.178  0.00  0.00    -0.321 NA
ATOM     34  H   LIG    1       30.672 -21.121   9.088  0.00  0.00    +0.119 HD
ATOM     35  H   LIG    1       31.448 -21.764   7.806  0.00  0.00    +0.119 HD
ENDBRANCH  28  33
BRANCH  30  36
ATOM     36  O   LIG    1       32.052 -19.429   9.096  0.00  0.00    -0.387 OA
ATOM     37  H   LIG    1       31.426 -19.670   9.821  0.00  0.00    +0.210 HD
ENDBRANCH  30  36
BRANCH  29  38
ATOM     38  O   LIG    1       30.496 -18.634   5.864  0.00  0.00    -0.387 OA
ATOM     39  H   LIG    1       29.533 -18.544   5.979  0.00  0.00    +0.210 HD
ENDBRANCH  29  38
BRANCH  31  40
ATOM     40  C   LIG    1       30.294 -17.408  10.169  0.00  0.00    +0.112 C 
BRANCH  40  41
ATOM     41  N   LIG    1       30.598 -18.356  11.249  0.00  0.00    -0.328 NA
ATOM     42  H   LIG    1       30.962 -19.218  10.848  0.00  0.00    +0.118 HD
ATOM     43  H   LIG    1       31.319 -17.976  11.859  0.00  0.00    +0.118 HD
ENDBRANCH  40  41
ENDBRANCH  31  40
ENDBRANCH  26  27
ENDBRANCH  18  26
ENDBRANCH  15  16
ENDBRANCH   6  15
BRANCH   1  44
ATOM     44  O   LIG    1       26.085 -27.423   7.887  0.00  0.00    -0.342 OA
BRANCH  44  49
ATOM     45  C   LIG    1       25.200 -30.131   7.440  0.00  0.00    +0.166 C 
ATOM     46  C   LIG    1       26.194 -30.822   8.398  0.00  0.00    +0.175 C 
ATOM     47  C   LIG    1       26.949 -29.804   9.262  0.00  0.00    +0.167 C 
ATOM     48  C   LIG    1       25.927 -28.862   9.911  0.00  0.00    +0.139 C 
ATOM     49  C   LIG    1       25.186 -28.125   8.754  0.00  0.00    +0.270 C 
ATOM     50  O   LIG    1       24.417 -29.088   8.047  0.00  0.00    -0.343 OA
BRANCH  48  51
ATOM     51  N   LIG    1       26.536 -28.016  10.967  0.00  0.00    -0.321 NA
ATOM     52  H   LIG    1       25.842 -27.937  11.718  0.00  0.00    +0.119 HD
ATOM     53  H   LIG    1       26.601 -27.062  10.604  0.00  0.00    +0.119 HD
ENDBRANCH  48  51
BRANCH  47  54
ATOM     54  O   LIG    1       27.705 -30.513  10.263  0.00  0.00    -0.387 OA
ATOM     55  H   LIG    1       27.195 -31.325  10.439  0.00  0.00    +0.210 HD
ENDBRANCH  47  54
BRANCH  46  56
ATOM     56  O   LIG    1       27.138 -31.609   7.659  0.00  0.00    -0.387 OA
ATOM     57  H   LIG    1       27.981 -31.114   7.707  0.00  0.00    +0.210 HD
ENDBRANCH  46  56
BRANCH  45  58
ATOM     58  C   LIG    1       24.208 -31.137   6.808  0.00  0.00    +0.112 C 
BRANCH  58  59
ATOM     59  N   LIG    1       23.410 -30.597   5.696  0.00  0.00    -0.328 NA
ATOM     60  H   LIG    1       23.999 -30.396   4.893  0.00  0.00    +0.118 HD
ATOM     61  H   LIG    1       22.998 -29.710   5.980  0.00  0.00    +0.118 HD
ENDBRANCH  58  59
ENDBRANCH  45  58
ENDBRANCH  44  49
ENDBRANCH   1  44
TORSDOF 22
ENDMDL
MODEL 7
REMARK VINA RESULT:      -4.9      2.676     10.602
REMARK  Name = *****
REMARK                            x       y       z     vdW  Elec       q    Type
REMARK                         _______ _______ _______ _____ _____    ______ ____
ROOT
ATOM      1  C   LIG    1       27.137 -22.133   6.763  0.00  0.00    +0.169 C 
ATOM      2  C   LIG    1       26.342 -21.070   5.914  0.00  0.00    +0.084 C 
ATOM      3  C   LIG    1       25.144 -20.468   6.691  0.00  0.00    +0.042 C 
ATOM      4  C   LIG    1       25.295 -20.677   8.197  0.00  0.00    +0.084 C 
ATOM      5  C   LIG    1       25.293 -22.201   8.501  0.00  0.00    +0.163 C 
ATOM      6  C   LIG    1       26.146 -23.056   7.523  0.00  0.00    +0.182 C 
ENDROOT
BRANCH   2   7
ATOM      7  N   LIG    1       25.830 -21.584   4.626  0.00  0.00    -0.325 NA
ATOM      8  H   LIG    1       24.947 -22.073   4.810  0.00  0.00    +0.118 HD
ATOM      9  H   LIG    1       26.454 -22.304   4.268  0.00  0.00    +0.118 HD
ENDBRANCH   2   7
BRANCH   4  10
ATOM     10  N   LIG    1       24.212 -20.005   8.940  0.00  0.00    -0.325 NA
ATOM     11  H   LIG    1       23.780 -19.299   8.338  0.00  0.00    +0.118 HD
ATOM     12  H   LIG    1       23.467 -20.675   9.128  0.00  0.00    +0.118 HD
ENDBRANCH   4  10
BRANCH   5  13
ATOM     13  O   LIG    1       25.673 -22.466   9.861  0.00  0.00    -0.388 OA
ATOM     14  H   LIG    1       24.852 -22.417  10.399  0.00  0.00    +0.210 HD
ENDBRANCH   5  13
BRANCH   6  15
ATOM     15  O   LIG    1       25.360 -23.720   6.520  0.00  0.00    -0.340 OA
BRANCH  15  16
ATOM     16  C   LIG    1       25.299 -25.141   6.532  0.00  0.00    +0.282 C 
ATOM     17  C   LIG    1       24.544 -25.837   5.390  0.00  0.00    +0.202 C 
ATOM     18  C   LIG    1       24.972 -27.279   5.668  0.00  0.00    +0.186 C 
ATOM     19  C   LIG    1       26.470 -27.073   5.943  0.00  0.00    +0.178 C 
ATOM     20  O   LIG    1       26.568 -25.796   6.636  0.00  0.00    -0.341 OA
BRANCH  17  21
ATOM     21  O   LIG    1       23.141 -25.634   5.372  0.00  0.00    -0.384 OA
ATOM     22  H   LIG    1       22.807 -25.773   6.295  0.00  0.00    +0.210 HD
ENDBRANCH  17  21
BRANCH  19  23
ATOM     23  C   LIG    1       27.386 -27.066   4.704  0.00  0.00    +0.190 C 
BRANCH  23  24
ATOM     24  O   LIG    1       28.771 -27.079   5.027  0.00  0.00    -0.392 OA
ATOM     25  H   LIG    1       29.061 -26.147   5.087  0.00  0.00    +0.209 HD
ENDBRANCH  23  24
ENDBRANCH  19  23
BRANCH  18  26
ATOM     26  O   LIG    1       24.421 -27.759   6.923  0.00  0.00    -0.341 OA
BRANCH  26  27
ATOM     27  C   LIG    1       24.885 -29.042   7.358  0.00  0.00    +0.270 C 
ATOM     28  C   LIG    1       24.734 -30.016   6.143  0.00  0.00    +0.139 C 
ATOM     29  C   LIG    1       25.199 -31.426   6.557  0.00  0.00    +0.167 C 
ATOM     30  C   LIG    1       24.450 -31.880   7.825  0.00  0.00    +0.175 C 
ATOM     31  C   LIG    1       24.536 -30.791   8.923  0.00  0.00    +0.166 C 
ATOM     32  O   LIG    1       24.083 -29.517   8.432  0.00  0.00    -0.343 OA
BRANCH  28  33
ATOM     33  N   LIG    1       23.315 -30.092   5.674  0.00  0.00    -0.321 NA
ATOM     34  H   LIG    1       22.841 -30.843   6.177  0.00  0.00    +0.119 HD
ATOM     35  H   LIG    1       23.345 -30.393   4.693  0.00  0.00    +0.119 HD
ENDBRANCH  28  33
BRANCH  30  36
ATOM     36  O   LIG    1       23.088 -32.177   7.496  0.00  0.00    -0.387 OA
ATOM     37  H   LIG    1       22.570 -31.379   7.759  0.00  0.00    +0.210 HD
ENDBRANCH  30  36
BRANCH  29  38
ATOM     38  O   LIG    1       26.613 -31.430   6.774  0.00  0.00    -0.387 OA
ATOM     39  H   LIG    1       26.973 -30.654   6.308  0.00  0.00    +0.210 HD
ENDBRANCH  29  38
BRANCH  31  40
ATOM     40  C   LIG    1       23.663 -31.167  10.137  0.00  0.00    +0.112 C 
BRANCH  40  41
ATOM     41  N   LIG    1       22.243 -30.861   9.925  0.00  0.00    -0.328 NA
ATOM     42  H   LIG    1       22.001 -31.041   8.952  0.00  0.00    +0.118 HD
ATOM     43  H   LIG    1       21.661 -31.468  10.499  0.00  0.00    +0.118 HD
ENDBRANCH  40  41
ENDBRANCH  31  40
ENDBRANCH  26  27
ENDBRANCH  18  26
ENDBRANCH  15  16
ENDBRANCH   6  15
BRANCH   1  44
ATOM     44  O   LIG    1       28.044 -21.424   7.645  0.00  0.00    -0.342 OA
BRANCH  44  49
ATOM     45  C   LIG    1       29.348 -19.058   6.635  0.00  0.00    +0.166 C 
ATOM     46  C   LIG    1       30.056 -18.652   7.945  0.00  0.00    +0.175 C 
ATOM     47  C   LIG    1       29.951 -19.750   9.011  0.00  0.00    +0.167 C 
ATOM     48  C   LIG    1       30.394 -21.080   8.387  0.00  0.00    +0.139 C 
ATOM     49  C   LIG    1       29.411 -21.384   7.216  0.00  0.00    +0.270 C 
ATOM     50  O   LIG    1       29.617 -20.405   6.208  0.00  0.00    -0.343 OA
BRANCH  48  51
ATOM     51  N   LIG    1       30.579 -22.142   9.405  0.00  0.00    -0.321 NA
ATOM     52  H   LIG    1       31.343 -22.740   9.071  0.00  0.00    +0.119 HD
ATOM     53  H   LIG    1       29.764 -22.759   9.365  0.00  0.00    +0.119 HD
ENDBRANCH  48  51
BRANCH  47  54
ATOM     54  O   LIG    1       30.793 -19.399  10.126  0.00  0.00    -0.387 OA
ATOM     55  H   LIG    1       30.528 -20.003  10.845  0.00  0.00    +0.210 HD
ENDBRANCH  47  54
BRANCH  46  56
ATOM     56  O   LIG    1       29.497 -17.436   8.462  0.00  0.00    -0.387 OA
ATOM     57  H   LIG    1       29.684 -17.452   9.421  0.00  0.00    +0.210 HD
ENDBRANCH  46  56
BRANCH  45  58
ATOM     58  C   LIG    1       29.720 -18.124   5.460  0.00  0.00    +0.112 C 
BRANCH  58  59
ATOM     59  N   LIG    1       28.589 -17.729   4.606  0.00  0.00    -0.328 NA
ATOM     60  H   LIG    1       28.454 -16.722   4.628  0.00  0.00    +0.118 HD
ATOM     61  H   LIG    1       27.733 -18.142   4.973  0.00  0.00    +0.118 HD
ENDBRANCH  58  59
ENDBRANCH  45  58
ENDBRANCH  44  49
ENDBRANCH   1  44
TORSDOF 22
ENDMDL
MODEL 8
REMARK VINA RESULT:      -4.7      3.019     10.060
REMARK  Name = *****
REMARK                            x       y       z     vdW  Elec       q    Type
REMARK                         _______ _______ _______ _____ _____    ______ ____
ROOT
ATOM      1  C   LIG    1       25.220 -21.866   6.119  0.00  0.00    +0.169 C 
ATOM      2  C   LIG    1       24.636 -21.001   7.299  0.00  0.00    +0.084 C 
ATOM      3  C   LIG    1       25.741 -20.475   8.250  0.00  0.00    +0.042 C 
ATOM      4  C   LIG    1       27.114 -20.509   7.581  0.00  0.00    +0.084 C 
ATOM      5  C   LIG    1       27.482 -21.983   7.254  0.00  0.00    +0.163 C 
ATOM      6  C   LIG    1       26.320 -22.821   6.654  0.00  0.00    +0.182 C 
ENDROOT
BRANCH   2   7
ATOM      7  N   LIG    1       23.629 -21.702   8.124  0.00  0.00    -0.325 NA
ATOM      8  H   LIG    1       22.927 -22.101   7.492  0.00  0.00    +0.118 HD
ATOM      9  H   LIG    1       23.115 -21.028   8.689  0.00  0.00    +0.118 HD
ENDBRANCH   2   7
BRANCH   4  10
ATOM     10  N   LIG    1       28.144 -19.904   8.447  0.00  0.00    -0.325 NA
ATOM     11  H   LIG    1       28.892 -20.584   8.606  0.00  0.00    +0.118 HD
ATOM     12  H   LIG    1       28.595 -19.137   7.948  0.00  0.00    +0.118 HD
ENDBRANCH   4  10
BRANCH   5  13
ATOM     13  O   LIG    1       28.644 -22.060   6.413  0.00  0.00    -0.388 OA
ATOM     14  H   LIG    1       28.621 -21.275   5.824  0.00  0.00    +0.210 HD
ENDBRANCH   5  13
BRANCH   6  15
ATOM     15  O   LIG    1       25.682 -23.675   7.617  0.00  0.00    -0.340 OA
BRANCH  15  16
ATOM     16  C   LIG    1       25.401 -25.022   7.254  0.00  0.00    +0.282 C 
ATOM     17  C   LIG    1       24.433 -25.265   6.087  0.00  0.00    +0.202 C 
ATOM     18  C   LIG    1       24.656 -26.766   5.902  0.00  0.00    +0.186 C 
ATOM     19  C   LIG    1       26.188 -26.832   6.007  0.00  0.00    +0.178 C 
ATOM     20  O   LIG    1       26.555 -25.828   6.997  0.00  0.00    -0.341 OA
BRANCH  17  21
ATOM     21  O   LIG    1       23.085 -24.896   6.324  0.00  0.00    -0.384 OA
ATOM     22  H   LIG    1       23.024 -24.573   7.258  0.00  0.00    +0.210 HD
ENDBRANCH  17  21
BRANCH  19  23
ATOM     23  C   LIG    1       26.963 -26.580   4.699  0.00  0.00    +0.190 C 
BRANCH  23  24
ATOM     24  O   LIG    1       28.158 -27.343   4.595  0.00  0.00    -0.392 OA
ATOM     25  H   LIG    1       28.780 -26.831   4.042  0.00  0.00    +0.209 HD
ENDBRANCH  23  24
ENDBRANCH  19  23
BRANCH  18  26
ATOM     26  O   LIG    1       24.169 -27.515   7.047  0.00  0.00    -0.341 OA
BRANCH  26  27
ATOM     27  C   LIG    1       24.109 -28.937   6.882  0.00  0.00    +0.270 C 
ATOM     28  C   LIG    1       24.555 -29.571   8.242  0.00  0.00    +0.139 C 
ATOM     29  C   LIG    1       24.533 -31.107   8.120  0.00  0.00    +0.167 C 
ATOM     30  C   LIG    1       25.372 -31.556   6.909  0.00  0.00    +0.175 C 
ATOM     31  C   LIG    1       24.954 -30.773   5.641  0.00  0.00    +0.166 C 
ATOM     32  O   LIG    1       25.007 -29.353   5.862  0.00  0.00    -0.343 OA
BRANCH  28  33
ATOM     33  N   LIG    1       25.936 -29.136   8.623  0.00  0.00    -0.321 NA
ATOM     34  H   LIG    1       26.241 -28.405   7.978  0.00  0.00    +0.119 HD
ATOM     35  H   LIG    1       26.555 -29.935   8.448  0.00  0.00    +0.119 HD
ENDBRANCH  28  33
BRANCH  30  36
ATOM     36  O   LIG    1       26.764 -31.372   7.196  0.00  0.00    -0.387 OA
ATOM     37  H   LIG    1       26.865 -31.567   8.159  0.00  0.00    +0.210 HD
ENDBRANCH  30  36
BRANCH  29  38
ATOM     38  O   LIG    1       23.184 -31.568   8.002  0.00  0.00    -0.387 OA
ATOM     39  H   LIG    1       22.664 -30.832   7.633  0.00  0.00    +0.210 HD
ENDBRANCH  29  38
BRANCH  31  40
ATOM     40  C   LIG    1       25.889 -31.102   4.460  0.00  0.00    +0.112 C 
BRANCH  40  41
ATOM     41  N   LIG    1       26.233 -32.529   4.395  0.00  0.00    -0.328 NA
ATOM     42  H   LIG    1       27.203 -32.628   4.103  0.00  0.00    +0.118 HD
ATOM     43  H   LIG    1       26.147 -32.954   5.316  0.00  0.00    +0.118 HD
ENDBRANCH  40  41
ENDBRANCH  31  40
ENDBRANCH  26  27
ENDBRANCH  18  26
ENDBRANCH  15  16
ENDBRANCH   6  15
BRANCH   1  44
ATOM     44  O   LIG    1       25.700 -20.965   5.089  0.00  0.00    -0.342 OA
BRANCH  44  49
ATOM     45  C   LIG    1       22.828 -20.837   4.863  0.00  0.00    +0.166 C 
ATOM     46  C   LIG    1       22.727 -19.337   4.513  0.00  0.00    +0.175 C 
ATOM     47  C   LIG    1       24.104 -18.728   4.219  0.00  0.00    +0.167 C 
ATOM     48  C   LIG    1       24.820 -19.616   3.192  0.00  0.00    +0.139 C 
ATOM     49  C   LIG    1       24.991 -21.022   3.845  0.00  0.00    +0.270 C 
ATOM     50  O   LIG    1       23.699 -21.590   4.001  0.00  0.00    -0.343 OA
BRANCH  48  51
ATOM     51  N   LIG    1       26.040 -18.972   2.649  0.00  0.00    -0.321 NA
ATOM     52  H   LIG    1       26.200 -18.126   3.207  0.00  0.00    +0.119 HD
ATOM     53  H   LIG    1       25.813 -18.603   1.723  0.00  0.00    +0.119 HD
ENDBRANCH  48  51
BRANCH  47  54
ATOM     54  O   LIG    1       23.924 -17.393   3.709  0.00  0.00    -0.387 OA
ATOM     55  H   LIG    1       24.571 -17.309   2.983  0.00  0.00    +0.210 HD
ENDBRANCH  47  54
BRANCH  46  56
ATOM     56  O   LIG    1       22.109 -18.612   5.586  0.00  0.00    -0.387 OA
ATOM     57  H   LIG    1       22.635 -18.828   6.381  0.00  0.00    +0.210 HD
ENDBRANCH  46  56
BRANCH  45  58
ATOM     58  C   LIG    1       21.447 -21.534   4.838  0.00  0.00    +0.112 C 
BRANCH  58  59
ATOM     59  N   LIG    1       21.301 -22.645   5.791  0.00  0.00    -0.328 NA
ATOM     60  H   LIG    1       22.169 -23.167   5.872  0.00  0.00    +0.118 HD
ATOM     61  H   LIG    1       20.603 -23.298   5.438  0.00  0.00    +0.118 HD
ENDBRANCH  58  59
ENDBRANCH  45  58
ENDBRANCH  44  49
ENDBRANCH   1  44
TORSDOF 22
ENDMDL
MODEL 9
REMARK VINA RESULT:      -4.6      3.001     10.609
REMARK  Name = *****
REMARK                            x       y       z     vdW  Elec       q    Type
REMARK                         _______ _______ _______ _____ _____    ______ ____
ROOT
ATOM      1  C   LIG    1       27.069 -22.131   6.720  0.00  0.00    +0.169 C 
ATOM      2  C   LIG    1       26.255 -21.083   5.869  0.00  0.00    +0.084 C 
ATOM      3  C   LIG    1       25.061 -20.482   6.654  0.00  0.00    +0.042 C 
ATOM      4  C   LIG    1       25.232 -20.674   8.160  0.00  0.00    +0.084 C 
ATOM      5  C   LIG    1       25.246 -22.194   8.480  0.00  0.00    +0.163 C 
ATOM      6  C   LIG    1       26.094 -23.053   7.501  0.00  0.00    +0.182 C 
ENDROOT
BRANCH   2   7
ATOM      7  N   LIG    1       25.732 -21.615   4.593  0.00  0.00    -0.325 NA
ATOM      8  H   LIG    1       24.913 -21.056   4.330  0.00  0.00    +0.118 HD
ATOM      9  H   LIG    1       25.369 -22.556   4.733  0.00  0.00    +0.118 HD
ENDBRANCH   2   7
BRANCH   4  10
ATOM     10  N   LIG    1       24.153 -20.002   8.909  0.00  0.00    -0.325 NA
ATOM     11  H   LIG    1       23.249 -20.352   8.580  0.00  0.00    +0.118 HD
ATOM     12  H   LIG    1       24.197 -20.283   9.888  0.00  0.00    +0.118 HD
ENDBRANCH   4  10
BRANCH   5  13
ATOM     13  O   LIG    1       25.644 -22.442   9.838  0.00  0.00    -0.388 OA
ATOM     14  H   LIG    1       24.895 -22.162  10.409  0.00  0.00    +0.210 HD
ENDBRANCH   5  13
BRANCH   6  15
ATOM     15  O   LIG    1       25.302 -23.734   6.514  0.00  0.00    -0.340 OA
BRANCH  15  16
ATOM     16  C   LIG    1       25.283 -25.156   6.518  0.00  0.00    +0.282 C 
ATOM     17  C   LIG    1       24.555 -25.868   5.369  0.00  0.00    +0.202 C 
ATOM     18  C   LIG    1       25.024 -27.298   5.641  0.00  0.00    +0.186 C 
ATOM     19  C   LIG    1       26.514 -27.049   5.925  0.00  0.00    +0.178 C 
ATOM     20  O   LIG    1       26.570 -25.774   6.625  0.00  0.00    -0.341 OA
BRANCH  17  21
ATOM     21  O   LIG    1       23.146 -25.707   5.345  0.00  0.00    -0.384 OA
ATOM     22  H   LIG    1       22.905 -25.082   6.076  0.00  0.00    +0.210 HD
ENDBRANCH  17  21
BRANCH  19  23
ATOM     23  C   LIG    1       27.435 -27.007   4.690  0.00  0.00    +0.190 C 
BRANCH  23  24
ATOM     24  O   LIG    1       28.817 -27.096   5.014  0.00  0.00    -0.392 OA
ATOM     25  H   LIG    1       29.169 -27.887   4.560  0.00  0.00    +0.209 HD
ENDBRANCH  23  24
ENDBRANCH  19  23
BRANCH  18  26
ATOM     26  O   LIG    1       24.482 -27.801   6.891  0.00  0.00    -0.341 OA
BRANCH  26  27
ATOM     27  C   LIG    1       24.337 -29.223   6.980  0.00  0.00    +0.270 C 
ATOM     28  C   LIG    1       24.823 -29.641   8.408  0.00  0.00    +0.139 C 
ATOM     29  C   LIG    1       24.711 -31.171   8.558  0.00  0.00    +0.167 C 
ATOM     30  C   LIG    1       25.457 -31.873   7.408  0.00  0.00    +0.175 C 
ATOM     31  C   LIG    1       25.013 -31.295   6.042  0.00  0.00    +0.166 C 
ATOM     32  O   LIG    1       25.154 -29.864   6.009  0.00  0.00    -0.343 OA
BRANCH  28  33
ATOM     33  N   LIG    1       26.243 -29.234   8.645  0.00  0.00    -0.321 NA
ATOM     34  H   LIG    1       26.252 -28.359   9.170  0.00  0.00    +0.119 HD
ATOM     35  H   LIG    1       26.642 -29.009   7.726  0.00  0.00    +0.119 HD
ENDBRANCH  28  33
BRANCH  30  36
ATOM     36  O   LIG    1       26.870 -31.729   7.596  0.00  0.00    -0.387 OA
ATOM     37  H   LIG    1       27.287 -32.109   6.785  0.00  0.00    +0.210 HD
ENDBRANCH  30  36
BRANCH  29  38
ATOM     38  O   LIG    1       23.335 -31.560   8.582  0.00  0.00    -0.387 OA
ATOM     39  H   LIG    1       22.997 -31.465   7.674  0.00  0.00    +0.210 HD
ENDBRANCH  29  38
BRANCH  31  40
ATOM     40  C   LIG    1       25.862 -31.880   4.896  0.00  0.00    +0.112 C 
BRANCH  40  41
ATOM     41  N   LIG    1       25.042 -32.377   3.785  0.00  0.00    -0.328 NA
ATOM     42  H   LIG    1       24.105 -32.584   4.124  0.00  0.00    +0.118 HD
ATOM     43  H   LIG    1       24.954 -31.663   3.064  0.00  0.00    +0.118 HD
ENDBRANCH  40  41
ENDBRANCH  31  40
ENDBRANCH  26  27
ENDBRANCH  18  26
ENDBRANCH  15  16
ENDBRANCH   6  15
BRANCH   1  44
ATOM     44  O   LIG    1       27.980 -21.405   7.583  0.00  0.00    -0.342 OA
BRANCH  44  49
ATOM     45  C   LIG    1       29.286 -19.050   6.550  0.00  0.00    +0.166 C 
ATOM     46  C   LIG    1       30.003 -18.638   7.854  0.00  0.00    +0.175 C 
ATOM     47  C   LIG    1       29.901 -19.729   8.927  0.00  0.00    +0.167 C 
ATOM     48  C   LIG    1       30.336 -21.064   8.309  0.00  0.00    +0.139 C 
ATOM     49  C   LIG    1       29.344 -21.373   7.146  0.00  0.00    +0.270 C 
ATOM     50  O   LIG    1       29.548 -20.401   6.130  0.00  0.00    -0.343 OA
BRANCH  48  51
ATOM     51  N   LIG    1       30.523 -22.121   9.333  0.00  0.00    -0.321 NA
ATOM     52  H   LIG    1       30.135 -21.755  10.209  0.00  0.00    +0.119 HD
ATOM     53  H   LIG    1       31.524 -22.190   9.530  0.00  0.00    +0.119 HD
ENDBRANCH  48  51
BRANCH  47  54
ATOM     54  O   LIG    1       30.751 -19.374  10.035  0.00  0.00    -0.387 OA
ATOM     55  H   LIG    1       31.029 -20.223  10.425  0.00  0.00    +0.210 HD
ENDBRANCH  47  54
BRANCH  46  56
ATOM     56  O   LIG    1       29.451 -17.417   8.365  0.00  0.00    -0.387 OA
ATOM     57  H   LIG    1       29.900 -17.269   9.222  0.00  0.00    +0.210 HD
ENDBRANCH  46  56
BRANCH  45  58
ATOM     58  C   LIG    1       29.654 -18.124   5.367  0.00  0.00    +0.112 C 
BRANCH  58  59
ATOM     59  N   LIG    1       28.520 -17.733   4.516  0.00  0.00    -0.328 NA
ATOM     60  H   LIG    1       27.767 -17.341   5.076  0.00  0.00    +0.118 HD
ATOM     61  H   LIG    1       28.140 -18.563   4.064  0.00  0.00    +0.118 HD
ENDBRANCH  58  59
ENDBRANCH  45  58
ENDBRANCH  44  49
ENDBRANCH   1  44
TORSDOF 22
ENDMDL
