MODEL 1
REMARK VINA RESULT:      50.0      0.000      0.000
REMARK  Name = *****
REMARK                            x       y       z     vdW  Elec       q    Type
REMARK                         _______ _______ _______ _____ _____    ______ ____
ROOT
ATOM      1  C   LIG    1       22.013 -32.304   7.111  0.00  0.00    +0.014 C 
ATOM      2  C   LIG    1       23.143 -32.299   8.150  0.00  0.00    +0.037 C 
ATOM      3  C   LIG    1       22.867 -33.345   9.280  0.00  0.00    +0.127 C 
ATOM      4  C   LIG    1       21.978 -32.905  10.483  0.00  0.00    +0.056 C 
ATOM      5  C   LIG    1       20.484 -32.886  10.133  0.00  0.00    +0.014 C 
ATOM      6  C   LIG    1       22.394 -31.610  11.254  0.00  0.00    +0.179 C 
ATOM      7  C   LIG    1       23.897 -31.466  11.464  0.00  0.00    +0.052 C 
ATOM      8  O   LIG    1       21.716 -30.469  10.673  0.00  0.00    -0.461 OA
ATOM      9  C   LIG    1       22.027 -29.208  11.062  0.00  0.00    +0.310 C 
ATOM     10  O   LIG    1       23.164 -28.788  11.264  0.00  0.00    -0.251 OA
ATOM     11  C   LIG    1       20.781 -28.370  11.133  0.00  0.00    +0.152 C 
ATOM     12  C   LIG    1       20.972 -27.025  11.842  0.00  0.00    +0.128 C 
ATOM     13  C   LIG    1       20.883 -27.047  13.381  0.00  0.00    +0.063 C 
ATOM     14  C   LIG    1       22.113 -27.510  14.175  0.00  0.00    +0.119 C 
ATOM     15  C   LIG    1       23.401 -26.751  13.821  0.00  0.00    +0.062 C 
ATOM     16  C   LIG    1       24.634 -27.051  14.703  0.00  0.00    +0.117 C 
ATOM     17  C   LIG    1       25.940 -27.182  13.885  0.00  0.00    +0.034 C 
ATOM     18  C   LIG    1       26.105 -28.552  13.194  0.00  0.00    +0.036 C 
ATOM     19  C   LIG    1       26.398 -28.502  11.686  0.00  0.00    +0.143 C 
ATOM     20  C   LIG    1       27.837 -28.072  11.338  0.00  0.00    +0.150 C 
ATOM     21  C   LIG    1       28.008 -27.609   9.886  0.00  0.00    +0.108 C 
ATOM     22  C   LIG    1       27.455 -28.597   8.872  0.00  0.00    +0.138 C 
ATOM     23  O   LIG    1       27.629 -29.811   9.007  0.00  0.00    -0.297 OA
ATOM     24  C   LIG    1       26.773 -28.016   7.645  0.00  0.00    +0.106 C 
ATOM     25  C   LIG    1       25.315 -28.456   7.468  0.00  0.00    +0.138 C 
ATOM     26  C   LIG    1       24.456 -27.457   6.657  0.00  0.00    +0.155 C 
ATOM     27  C   LIG    1       23.953 -26.222   7.443  0.00  0.00    +0.134 C 
ATOM     28  C   LIG    1       23.348 -25.055   6.625  0.00  0.00    +0.068 C 
ATOM     29  C   LIG    1       24.299 -24.156   5.791  0.00  0.00    +0.147 C 
ATOM     30  C   LIG    1       24.661 -24.856   4.509  0.00  0.00    +0.004 C 
ATOM     31  C   LIG    1       25.834 -25.433   4.213  0.00  0.00    -0.002 C 
ATOM     32  C   LIG    1       25.977 -26.370   3.126  0.00  0.00    -0.000 C 
ATOM     33  C   LIG    1       27.060 -27.156   3.075  0.00  0.00    +0.000 C 
ATOM     34  C   LIG    1       27.057 -28.419   2.377  0.00  0.00    +0.000 C 
ATOM     35  C   LIG    1       27.951 -29.359   2.712  0.00  0.00    -0.000 C 
ATOM     36  C   LIG    1       27.794 -30.748   2.365  0.00  0.00    -0.004 C 
ATOM     37  C   LIG    1       28.531 -31.692   2.969  0.00  0.00    -0.026 C 
ATOM     38  C   LIG    1       28.299 -33.166   2.816  0.00  0.00    +0.031 C 
ATOM     39  C   LIG    1       27.920 -33.825   4.152  0.00  0.00    +0.031 C 
ATOM     40  C   LIG    1       26.513 -33.525   4.604  0.00  0.00    -0.026 C 
ATOM     41  C   LIG    1       26.197 -33.058   5.824  0.00  0.00    -0.005 C 
ATOM     42  C   LIG    1       24.831 -32.863   6.267  0.00  0.00    -0.004 C 
ATOM     43  C   LIG    1       24.524 -32.489   7.521  0.00  0.00    -0.021 C 
ENDROOT
BRANCH   3  44
ATOM     44  O   LIG    1       24.104 -33.825   9.836  0.00  0.00    -0.391 OA
ATOM     45  H   LIG    1       23.887 -34.366  10.614  0.00  0.00    +0.210 HD
ENDBRANCH   3  44
BRANCH  12  46
ATOM     46  O   LIG    1       19.909 -26.161  11.383  0.00  0.00    -0.391 OA
ATOM     47  H   LIG    1       20.286 -25.274  11.244  0.00  0.00    +0.210 HD
ENDBRANCH  12  46
BRANCH  14  48
ATOM     48  O   LIG    1       22.276 -28.913  13.999  0.00  0.00    -0.392 OA
ATOM     49  H   LIG    1       23.135 -29.116  14.433  0.00  0.00    +0.210 HD
ENDBRANCH  14  48
BRANCH  16  50
ATOM     50  O   LIG    1       24.437 -28.219  15.500  0.00  0.00    -0.392 OA
ATOM     51  H   LIG    1       24.655 -28.985  14.938  0.00  0.00    +0.210 HD
ENDBRANCH  16  50
BRANCH  19  52
ATOM     52  O   LIG    1       25.457 -27.644  11.046  0.00  0.00    -0.389 OA
ATOM     53  H   LIG    1       25.499 -26.799  11.558  0.00  0.00    +0.210 HD
ENDBRANCH  19  52
BRANCH  20  54
ATOM     54  O   LIG    1       28.754 -29.133  11.626  0.00  0.00    -0.389 OA
ATOM     55  H   LIG    1       28.606 -29.380  12.564  0.00  0.00    +0.210 HD
ENDBRANCH  20  54
BRANCH  25  56
ATOM     56  O   LIG    1       24.624 -28.690   8.696  0.00  0.00    -0.391 OA
ATOM     57  H   LIG    1       23.685 -28.889   8.469  0.00  0.00    +0.210 HD
ENDBRANCH  25  56
BRANCH  26  58
ATOM     58  C   LIG    1       23.235 -28.168   6.104  0.00  0.00    +0.313 C 
ATOM     59  O   LIG    1       22.715 -29.131   6.653  0.00  0.00    -0.251 OA
BRANCH  58  60
ATOM     60  O   LIG    1       22.827 -27.726   4.893  0.00  0.00    -0.480 OA
ATOM     61  H   LIG    1       21.925 -28.059   4.653  0.00  0.00    +0.295 HD
ENDBRANCH  58  60
ENDBRANCH  26  58
BRANCH  27  62
ATOM     62  O   LIG    1       24.951 -25.743   8.346  0.00  0.00    -0.391 OA
ATOM     63  H   LIG    1       25.271 -26.509   8.873  0.00  0.00    +0.210 HD
ENDBRANCH  27  62
BRANCH  29  64
ATOM     64  O   LIG    1       25.392 -23.780   6.627  0.00  0.00    -0.341 OA
BRANCH  64  65
ATOM     65  C   LIG    1       26.273 -22.727   6.209  0.00  0.00    +0.281 C 
ATOM     66  C   LIG    1       25.691 -21.284   6.154  0.00  0.00    +0.189 C 
ATOM     67  C   LIG    1       25.694 -20.629   7.545  0.00  0.00    +0.116 C 
ATOM     68  C   LIG    1       27.139 -20.598   8.094  0.00  0.00    +0.162 C 
ATOM     69  C   LIG    1       28.066 -21.618   7.398  0.00  0.00    +0.148 C 
ATOM     70  C   LIG    1       29.257 -21.947   8.296  0.00  0.00    +0.040 C 
ATOM     71  O   LIG    1       27.388 -22.839   7.114  0.00  0.00    -0.343 OA
BRANCH  67  72
ATOM     72  N   LIG    1       24.755 -21.278   8.481  0.00  0.00    -0.323 NA
ATOM     73  H   LIG    1       25.151 -21.233   9.422  0.00  0.00    +0.119 HD
ATOM     74  H   LIG    1       23.900 -20.714   8.540  0.00  0.00    +0.119 HD
ENDBRANCH  67  72
BRANCH  66  75
ATOM     75  O   LIG    1       24.408 -21.180   5.534  0.00  0.00    -0.385 OA
ATOM     76  H   LIG    1       24.200 -22.037   5.124  0.00  0.00    +0.210 HD
ENDBRANCH  66  75
BRANCH  68  77
ATOM     77  O   LIG    1       27.686 -19.285   7.907  0.00  0.00    -0.388 OA
ATOM     78  H   LIG    1       27.087 -18.816   7.298  0.00  0.00    +0.210 HD
ENDBRANCH  68  77
ENDBRANCH  64  65
ENDBRANCH  29  64
TORSDOF 15
ENDMDL
MODEL 2
REMARK VINA RESULT:      50.6      0.789      1.265
REMARK  Name = *****
REMARK                            x       y       z     vdW  Elec       q    Type
REMARK                         _______ _______ _______ _____ _____    ______ ____
ROOT
ATOM      1  C   LIG    1       21.941 -32.310   7.099  0.00  0.00    +0.014 C 
ATOM      2  C   LIG    1       23.064 -32.301   8.146  0.00  0.00    +0.037 C 
ATOM      3  C   LIG    1       22.781 -33.347   9.275  0.00  0.00    +0.127 C 
ATOM      4  C   LIG    1       21.882 -32.907  10.472  0.00  0.00    +0.056 C 
ATOM      5  C   LIG    1       20.391 -32.891  10.110  0.00  0.00    +0.014 C 
ATOM      6  C   LIG    1       22.290 -31.610  11.243  0.00  0.00    +0.179 C 
ATOM      7  C   LIG    1       23.792 -31.464  11.464  0.00  0.00    +0.052 C 
ATOM      8  O   LIG    1       21.615 -30.471  10.656  0.00  0.00    -0.461 OA
ATOM      9  C   LIG    1       21.921 -29.209  11.046  0.00  0.00    +0.310 C 
ATOM     10  O   LIG    1       23.055 -28.787  11.256  0.00  0.00    -0.251 OA
ATOM     11  C   LIG    1       20.673 -28.373  11.107  0.00  0.00    +0.152 C 
ATOM     12  C   LIG    1       20.856 -27.028  11.816  0.00  0.00    +0.128 C 
ATOM     13  C   LIG    1       20.757 -27.048  13.355  0.00  0.00    +0.063 C 
ATOM     14  C   LIG    1       21.982 -27.507  14.158  0.00  0.00    +0.119 C 
ATOM     15  C   LIG    1       23.271 -26.747  13.812  0.00  0.00    +0.062 C 
ATOM     16  C   LIG    1       24.498 -27.044  14.703  0.00  0.00    +0.117 C 
ATOM     17  C   LIG    1       25.810 -27.174  13.895  0.00  0.00    +0.034 C 
ATOM     18  C   LIG    1       25.982 -28.544  13.207  0.00  0.00    +0.036 C 
ATOM     19  C   LIG    1       26.286 -28.495  11.700  0.00  0.00    +0.143 C 
ATOM     20  C   LIG    1       27.726 -28.063  11.363  0.00  0.00    +0.150 C 
ATOM     21  C   LIG    1       27.907 -27.602   9.911  0.00  0.00    +0.108 C 
ATOM     22  C   LIG    1       27.363 -28.592   8.894  0.00  0.00    +0.138 C 
ATOM     23  O   LIG    1       27.539 -29.805   9.032  0.00  0.00    -0.297 OA
ATOM     24  C   LIG    1       26.689 -28.013   7.662  0.00  0.00    +0.106 C 
ATOM     25  C   LIG    1       25.233 -28.456   7.475  0.00  0.00    +0.138 C 
ATOM     26  C   LIG    1       24.379 -27.460   6.657  0.00  0.00    +0.155 C 
ATOM     27  C   LIG    1       23.867 -26.224   7.438  0.00  0.00    +0.134 C 
ATOM     28  C   LIG    1       23.266 -25.060   6.614  0.00  0.00    +0.068 C 
ATOM     29  C   LIG    1       24.222 -24.160   5.786  0.00  0.00    +0.147 C 
ATOM     30  C   LIG    1       24.594 -24.860   4.508  0.00  0.00    +0.004 C 
ATOM     31  C   LIG    1       25.770 -25.436   4.221  0.00  0.00    -0.002 C 
ATOM     32  C   LIG    1       25.922 -26.373   3.135  0.00  0.00    -0.000 C 
ATOM     33  C   LIG    1       27.007 -27.158   3.093  0.00  0.00    +0.000 C 
ATOM     34  C   LIG    1       27.012 -28.421   2.397  0.00  0.00    +0.000 C 
ATOM     35  C   LIG    1       27.905 -29.360   2.739  0.00  0.00    -0.000 C 
ATOM     36  C   LIG    1       27.753 -30.749   2.392  0.00  0.00    -0.004 C 
ATOM     37  C   LIG    1       28.487 -31.691   3.002  0.00  0.00    -0.026 C 
ATOM     38  C   LIG    1       28.259 -33.166   2.850  0.00  0.00    +0.031 C 
ATOM     39  C   LIG    1       27.871 -33.824   4.183  0.00  0.00    +0.031 C 
ATOM     40  C   LIG    1       26.460 -33.526   4.626  0.00  0.00    -0.026 C 
ATOM     41  C   LIG    1       26.135 -33.059   5.842  0.00  0.00    -0.005 C 
ATOM     42  C   LIG    1       24.765 -32.865   6.276  0.00  0.00    -0.004 C 
ATOM     43  C   LIG    1       24.448 -32.490   7.527  0.00  0.00    -0.021 C 
ENDROOT
BRANCH   3  44
ATOM     44  O   LIG    1       24.014 -33.824   9.840  0.00  0.00    -0.391 OA
ATOM     45  H   LIG    1       24.601 -33.058   9.956  0.00  0.00    +0.210 HD
ENDBRANCH   3  44
BRANCH  12  46
ATOM     46  O   LIG    1       19.796 -26.166  11.349  0.00  0.00    -0.391 OA
ATOM     47  H   LIG    1       19.013 -26.720  11.181  0.00  0.00    +0.210 HD
ENDBRANCH  12  46
BRANCH  14  48
ATOM     48  O   LIG    1       22.149 -28.911  13.985  0.00  0.00    -0.392 OA
ATOM     49  H   LIG    1       23.080 -29.081  14.252  0.00  0.00    +0.210 HD
ENDBRANCH  14  48
BRANCH  16  50
ATOM     50  O   LIG    1       24.297 -28.211  15.500  0.00  0.00    -0.392 OA
ATOM     51  H   LIG    1       24.614 -28.970  14.975  0.00  0.00    +0.210 HD
ENDBRANCH  16  50
BRANCH  19  52
ATOM     52  O   LIG    1       25.348 -27.640  11.053  0.00  0.00    -0.389 OA
ATOM     53  H   LIG    1       24.643 -28.247  10.719  0.00  0.00    +0.210 HD
ENDBRANCH  19  52
BRANCH  20  54
ATOM     54  O   LIG    1       28.643 -29.122  11.658  0.00  0.00    -0.389 OA
ATOM     55  H   LIG    1       28.995 -29.433  10.797  0.00  0.00    +0.210 HD
ENDBRANCH  20  54
BRANCH  25  56
ATOM     56  O   LIG    1       24.534 -28.689   8.699  0.00  0.00    -0.391 OA
ATOM     57  H   LIG    1       24.768 -27.953   9.312  0.00  0.00    +0.210 HD
ENDBRANCH  25  56
BRANCH  26  58
ATOM     58  C   LIG    1       23.163 -28.173   6.096  0.00  0.00    +0.313 C 
ATOM     59  O   LIG    1       22.629 -29.124   6.652  0.00  0.00    -0.251 OA
BRANCH  58  60
ATOM     60  O   LIG    1       22.777 -27.749   4.871  0.00  0.00    -0.480 OA
ATOM     61  H   LIG    1       22.333 -26.863   4.899  0.00  0.00    +0.295 HD
ENDBRANCH  58  60
ENDBRANCH  26  58
BRANCH  27  62
ATOM     62  O   LIG    1       24.859 -25.743   8.348  0.00  0.00    -0.391 OA
ATOM     63  H   LIG    1       25.698 -25.637   7.848  0.00  0.00    +0.210 HD
ENDBRANCH  27  62
BRANCH  29  64
ATOM     64  O   LIG    1       25.309 -23.780   6.629  0.00  0.00    -0.341 OA
BRANCH  64  65
ATOM     65  C   LIG    1       25.413 -22.423   7.082  0.00  0.00    +0.281 C 
ATOM     66  C   LIG    1       26.601 -22.070   8.023  0.00  0.00    +0.189 C 
ATOM     67  C   LIG    1       27.890 -21.820   7.224  0.00  0.00    +0.116 C 
ATOM     68  C   LIG    1       27.654 -20.673   6.215  0.00  0.00    +0.162 C 
ATOM     69  C   LIG    1       26.158 -20.435   5.919  0.00  0.00    +0.148 C 
ATOM     70  C   LIG    1       25.992 -19.733   4.571  0.00  0.00    +0.040 C 
ATOM     71  O   LIG    1       25.430 -21.659   5.859  0.00  0.00    -0.343 OA
BRANCH  67  72
ATOM     72  N   LIG    1       28.399 -23.043   6.572  0.00  0.00    -0.323 NA
ATOM     73  H   LIG    1       28.108 -23.034   5.592  0.00  0.00    +0.119 HD
ATOM     74  H   LIG    1       29.423 -22.997   6.530  0.00  0.00    +0.119 HD
ENDBRANCH  67  72
BRANCH  66  75
ATOM     75  O   LIG    1       26.819 -23.000   9.085  0.00  0.00    -0.385 OA
ATOM     76  H   LIG    1       26.105 -22.889   9.736  0.00  0.00    +0.210 HD
ENDBRANCH  66  75
BRANCH  68  77
ATOM     77  O   LIG    1       28.212 -19.461   6.740  0.00  0.00    -0.388 OA
ATOM     78  H   LIG    1       29.049 -19.309   6.264  0.00  0.00    +0.210 HD
ENDBRANCH  68  77
ENDBRANCH  64  65
ENDBRANCH  29  64
TORSDOF 15
ENDMDL
