MODEL 1
REMARK VINA RESULT:       2.1      0.000      0.000
REMARK  Name = *****
REMARK                            x       y       z     vdW  Elec       q    Type
REMARK                         _______ _______ _______ _____ _____    ______ ____
ROOT
ATOM      1  N   LIG    1       27.687 -19.112   5.017  0.00  0.00    -0.295 NA
ATOM      2  C   LIG    1       26.512 -18.290   4.641  0.00  0.00    +0.128 C 
ATOM      3  C   LIG    1       26.770 -17.183   3.589  0.00  0.00    +0.241 C 
ATOM      4  N   LIG    1       27.846 -16.255   4.010  0.00  0.00    -0.217 N 
ATOM      5  C   LIG    1       28.888 -16.883   4.848  0.00  0.00    +0.241 C 
ATOM      6  C   LIG    1       28.938 -18.412   4.681  0.00  0.00    +0.128 C 
ENDROOT
BRANCH   4   7
ATOM      7  C   LIG    1       27.620 -14.866   4.029  0.00  0.00    +0.330 C 
ATOM      8  C   LIG    1       26.219 -14.344   3.821  0.00  0.00    +0.070 A 
ATOM      9  C   LIG    1       26.064 -13.155   3.099  0.00  0.00    -0.019 A 
ATOM     10  C   LIG    1       24.780 -12.743   2.723  0.00  0.00    +0.005 A 
ATOM     11  C   LIG    1       23.664 -13.492   3.106  0.00  0.00    +0.000 A 
ATOM     12  C   LIG    1       23.821 -14.620   3.911  0.00  0.00    +0.001 A 
ATOM     13  C   LIG    1       27.291 -12.363   2.762  0.00  0.00    +0.158 C 
ATOM     14  S   LIG    1       28.436 -12.381   4.183  0.00  0.00    +0.115 S 
ATOM     15  C   LIG    1       25.096 -15.024   4.299  0.00  0.00    +0.016 A 
ATOM     16  N   LIG    1       28.633 -14.045   4.163  0.00  0.00    -0.003 NA
ENDBRANCH   4   7
BRANCH   1  17
ATOM     17  C   LIG    1       27.671 -19.530   6.428  0.00  0.00    +0.085 C 
BRANCH  17  18
ATOM     18  C   LIG    1       26.331 -20.089   6.936  0.00  0.00    +0.017 C 
BRANCH  18  19
ATOM     19  C   LIG    1       26.058 -21.524   6.480  0.00  0.00    +0.021 C 
BRANCH  19  20
ATOM     20  C   LIG    1       25.566 -21.571   5.031  0.00  0.00    +0.116 C 
BRANCH  20  23
ATOM     21  O   LIG    1       24.585 -20.231   2.650  0.00  0.00    -0.275 OA
ATOM     22  C   LIG    1       23.929 -20.285   3.683  0.00  0.00    +0.226 C 
ATOM     23  N   LIG    1       24.325 -20.833   4.870  0.00  0.00    -0.242 N 
ATOM     24  C   LIG    1       23.343 -20.769   5.825  0.00  0.00    +0.226 C 
ATOM     25  O   LIG    1       23.336 -21.329   6.903  0.00  0.00    -0.275 OA
ATOM     26  C   LIG    1       22.263 -19.830   5.329  0.00  0.00    +0.087 C 
ATOM     27  C   LIG    1       22.433 -18.447   5.969  0.00  0.00    +0.013 C 
ATOM     28  C   LIG    1       21.846 -17.324   5.124  0.00  0.00    +0.001 C 
ATOM     29  C   LIG    1       22.448 -17.339   3.727  0.00  0.00    +0.001 C 
ATOM     30  C   LIG    1       22.107 -18.640   3.016  0.00  0.00    +0.013 C 
ATOM     31  C   LIG    1       22.479 -19.883   3.814  0.00  0.00    +0.087 C 
ENDBRANCH  20  23
ENDBRANCH  19  20
ENDBRANCH  18  19
ENDBRANCH  17  18
ENDBRANCH   1  17
TORSDOF 6
ENDMDL
MODEL 2
REMARK VINA RESULT:       2.2      2.845      6.691
REMARK  Name = *****
REMARK                            x       y       z     vdW  Elec       q    Type
REMARK                         _______ _______ _______ _____ _____    ______ ____
ROOT
ATOM      1  N   LIG    1       22.478 -19.721   3.804  0.00  0.00    -0.295 NA
ATOM      2  C   LIG    1       23.804 -19.281   3.309  0.00  0.00    +0.128 C 
ATOM      3  C   LIG    1       24.963 -20.293   3.492  0.00  0.00    +0.241 C 
ATOM      4  N   LIG    1       25.128 -20.699   4.908  0.00  0.00    -0.217 N 
ATOM      5  C   LIG    1       23.870 -20.708   5.681  0.00  0.00    +0.241 C 
ATOM      6  C   LIG    1       22.625 -20.811   4.783  0.00  0.00    +0.128 C 
ENDROOT
BRANCH   4   7
ATOM      7  C   LIG    1       26.382 -20.591   5.537  0.00  0.00    +0.330 C 
ATOM      8  C   LIG    1       27.236 -19.375   5.275  0.00  0.00    +0.070 A 
ATOM      9  C   LIG    1       28.623 -19.552   5.201  0.00  0.00    -0.019 A 
ATOM     10  C   LIG    1       29.428 -18.490   4.771  0.00  0.00    +0.005 A 
ATOM     11  C   LIG    1       28.852 -17.254   4.465  0.00  0.00    +0.000 A 
ATOM     12  C   LIG    1       27.484 -17.057   4.639  0.00  0.00    +0.001 A 
ATOM     13  C   LIG    1       29.191 -20.881   5.593  0.00  0.00    +0.158 C 
ATOM     14  S   LIG    1       28.306 -21.513   7.059  0.00  0.00    +0.115 S 
ATOM     15  C   LIG    1       26.682 -18.107   5.079  0.00  0.00    +0.016 A 
ATOM     16  N   LIG    1       26.818 -21.572   6.290  0.00  0.00    -0.003 NA
ENDBRANCH   4   7
BRANCH   1  17
ATOM     17  C   LIG    1       21.670 -18.618   4.349  0.00  0.00    +0.085 C 
BRANCH  17  18
ATOM     18  C   LIG    1       22.465 -17.496   5.037  0.00  0.00    +0.017 C 
BRANCH  18  19
ATOM     19  C   LIG    1       22.704 -16.280   4.140  0.00  0.00    +0.021 C 
BRANCH  19  20
ATOM     20  C   LIG    1       23.075 -15.040   4.958  0.00  0.00    +0.116 C 
BRANCH  20  23
ATOM     21  O   LIG    1       25.117 -16.054   3.161  0.00  0.00    -0.275 OA
ATOM     22  C   LIG    1       25.043 -14.869   3.458  0.00  0.00    +0.226 C 
ATOM     23  N   LIG    1       24.165 -14.304   4.339  0.00  0.00    -0.242 N 
ATOM     24  C   LIG    1       24.314 -12.944   4.423  0.00  0.00    +0.226 C 
ATOM     25  O   LIG    1       23.566 -12.161   4.975  0.00  0.00    -0.275 OA
ATOM     26  C   LIG    1       25.614 -12.569   3.742  0.00  0.00    +0.087 C 
ATOM     27  C   LIG    1       26.716 -12.362   4.788  0.00  0.00    +0.013 C 
ATOM     28  C   LIG    1       28.114 -12.598   4.232  0.00  0.00    +0.001 C 
ATOM     29  C   LIG    1       28.217 -13.988   3.621  0.00  0.00    +0.001 C 
ATOM     30  C   LIG    1       27.257 -14.124   2.449  0.00  0.00    +0.013 C 
ATOM     31  C   LIG    1       25.820 -13.755   2.796  0.00  0.00    +0.087 C 
ENDBRANCH  20  23
ENDBRANCH  19  20
ENDBRANCH  18  19
ENDBRANCH  17  18
ENDBRANCH   1  17
TORSDOF 6
ENDMDL
MODEL 3
REMARK VINA RESULT:       2.9      0.803      1.744
REMARK  Name = *****
REMARK                            x       y       z     vdW  Elec       q    Type
REMARK                         _______ _______ _______ _____ _____    ______ ____
ROOT
ATOM      1  N   LIG    1       27.578 -19.071   4.864  0.00  0.00    -0.295 NA
ATOM      2  C   LIG    1       26.483 -18.256   4.286  0.00  0.00    +0.128 C 
ATOM      3  C   LIG    1       26.921 -17.106   3.345  0.00  0.00    +0.241 C 
ATOM      4  N   LIG    1       27.867 -16.176   4.005  0.00  0.00    -0.217 N 
ATOM      5  C   LIG    1       28.735 -16.818   5.014  0.00  0.00    +0.241 C 
ATOM      6  C   LIG    1       28.854 -18.338   4.810  0.00  0.00    +0.128 C 
ENDROOT
BRANCH   4   7
ATOM      7  C   LIG    1       27.609 -14.793   4.024  0.00  0.00    +0.330 C 
ATOM      8  C   LIG    1       26.193 -14.305   3.839  0.00  0.00    +0.070 A 
ATOM      9  C   LIG    1       25.998 -13.122   3.116  0.00  0.00    -0.019 A 
ATOM     10  C   LIG    1       24.697 -12.742   2.761  0.00  0.00    +0.005 A 
ATOM     11  C   LIG    1       23.607 -13.516   3.165  0.00  0.00    +0.000 A 
ATOM     12  C   LIG    1       23.804 -14.637   3.970  0.00  0.00    +0.001 A 
ATOM     13  C   LIG    1       27.199 -12.302   2.756  0.00  0.00    +0.158 C 
ATOM     14  S   LIG    1       28.369 -12.288   4.158  0.00  0.00    +0.115 S 
ATOM     15  C   LIG    1       25.094 -15.009   4.337  0.00  0.00    +0.016 A 
ATOM     16  N   LIG    1       28.604 -13.947   4.139  0.00  0.00    -0.003 NA
ENDBRANCH   4   7
BRANCH   1  17
ATOM     17  C   LIG    1       27.290 -19.542   6.228  0.00  0.00    +0.085 C 
BRANCH  17  18
ATOM     18  C   LIG    1       26.811 -20.999   6.335  0.00  0.00    +0.017 C 
BRANCH  18  19
ATOM     19  C   LIG    1       25.413 -21.139   6.938  0.00  0.00    +0.021 C 
BRANCH  19  20
ATOM     20  C   LIG    1       24.386 -21.570   5.888  0.00  0.00    +0.116 C 
BRANCH  20  23
ATOM     21  O   LIG    1       22.702 -19.419   6.870  0.00  0.00    -0.275 OA
ATOM     22  C   LIG    1       23.131 -19.437   5.724  0.00  0.00    +0.226 C 
ATOM     23  N   LIG    1       23.873 -20.429   5.149  0.00  0.00    -0.242 N 
ATOM     24  C   LIG    1       24.231 -20.131   3.859  0.00  0.00    +0.226 C 
ATOM     25  O   LIG    1       25.032 -20.727   3.167  0.00  0.00    -0.275 OA
ATOM     26  C   LIG    1       23.415 -18.937   3.407  0.00  0.00    +0.087 C 
ATOM     27  C   LIG    1       22.228 -19.402   2.557  0.00  0.00    +0.013 C 
ATOM     28  C   LIG    1       21.059 -18.426   2.582  0.00  0.00    +0.001 C 
ATOM     29  C   LIG    1       20.615 -18.164   4.014  0.00  0.00    +0.001 C 
ATOM     30  C   LIG    1       21.739 -17.515   4.807  0.00  0.00    +0.013 C 
ATOM     31  C   LIG    1       23.050 -18.289   4.746  0.00  0.00    +0.087 C 
ENDBRANCH  20  23
ENDBRANCH  19  20
ENDBRANCH  18  19
ENDBRANCH  17  18
ENDBRANCH   1  17
TORSDOF 6
ENDMDL
MODEL 4
REMARK VINA RESULT:       3.4      2.166      4.425
REMARK  Name = *****
REMARK                            x       y       z     vdW  Elec       q    Type
REMARK                         _______ _______ _______ _____ _____    ______ ____
ROOT
ATOM      1  N   LIG    1       22.201 -17.933   4.739  0.00  0.00    -0.295 NA
ATOM      2  C   LIG    1       21.854 -16.726   5.527  0.00  0.00    +0.128 C 
ATOM      3  C   LIG    1       21.991 -15.373   4.785  0.00  0.00    +0.241 C 
ATOM      4  N   LIG    1       23.354 -15.172   4.240  0.00  0.00    -0.217 N 
ATOM      5  C   LIG    1       24.034 -16.423   3.846  0.00  0.00    +0.241 C 
ATOM      6  C   LIG    1       23.048 -17.576   3.588  0.00  0.00    +0.128 C 
ENDROOT
BRANCH   4   7
ATOM      7  C   LIG    1       24.076 -14.002   4.541  0.00  0.00    +0.330 C 
ATOM      8  C   LIG    1       25.454 -13.815   3.956  0.00  0.00    +0.070 A 
ATOM      9  C   LIG    1       26.422 -13.186   4.749  0.00  0.00    -0.019 A 
ATOM     10  C   LIG    1       27.755 -13.166   4.319  0.00  0.00    +0.005 A 
ATOM     11  C   LIG    1       28.101 -13.731   3.089  0.00  0.00    +0.000 A 
ATOM     12  C   LIG    1       27.115 -14.265   2.261  0.00  0.00    +0.001 A 
ATOM     13  C   LIG    1       25.984 -12.549   6.033  0.00  0.00    +0.158 C 
ATOM     14  S   LIG    1       24.380 -11.715   5.783  0.00  0.00    +0.115 S 
ATOM     15  C   LIG    1       25.787 -14.273   2.679  0.00  0.00    +0.016 A 
ATOM     16  N   LIG    1       23.570 -13.123   5.372  0.00  0.00    -0.003 NA
ENDBRANCH   4   7
BRANCH   1  17
ATOM     17  C   LIG    1       22.820 -18.994   5.549  0.00  0.00    +0.085 C 
BRANCH  17  18
ATOM     18  C   LIG    1       22.192 -20.390   5.400  0.00  0.00    +0.017 C 
BRANCH  18  19
ATOM     19  C   LIG    1       23.224 -21.509   5.247  0.00  0.00    +0.021 C 
BRANCH  19  20
ATOM     20  C   LIG    1       24.446 -21.274   6.139  0.00  0.00    +0.116 C 
BRANCH  20  23
ATOM     21  O   LIG    1       27.135 -20.682   7.060  0.00  0.00    -0.275 OA
ATOM     22  C   LIG    1       26.772 -20.442   5.916  0.00  0.00    +0.226 C 
ATOM     23  N   LIG    1       25.518 -20.623   5.405  0.00  0.00    -0.242 N 
ATOM     24  C   LIG    1       25.446 -20.294   4.076  0.00  0.00    +0.226 C 
ATOM     25  O   LIG    1       24.524 -20.521   3.317  0.00  0.00    -0.275 OA
ATOM     26  C   LIG    1       26.709 -19.545   3.705  0.00  0.00    +0.087 C 
ATOM     27  C   LIG    1       26.442 -18.036   3.692  0.00  0.00    +0.013 C 
ATOM     28  C   LIG    1       27.694 -17.208   3.947  0.00  0.00    +0.001 C 
ATOM     29  C   LIG    1       28.345 -17.619   5.260  0.00  0.00    +0.001 C 
ATOM     30  C   LIG    1       28.792 -19.072   5.198  0.00  0.00    +0.013 C 
ATOM     31  C   LIG    1       27.683 -20.030   4.783  0.00  0.00    +0.087 C 
ENDBRANCH  20  23
ENDBRANCH  19  20
ENDBRANCH  18  19
ENDBRANCH  17  18
ENDBRANCH   1  17
TORSDOF 6
ENDMDL
MODEL 5
REMARK VINA RESULT:       4.3      2.085      4.736
REMARK  Name = *****
REMARK                            x       y       z     vdW  Elec       q    Type
REMARK                         _______ _______ _______ _____ _____    ______ ____
ROOT
ATOM      1  N   LIG    1       21.796 -17.929   4.912  0.00  0.00    -0.295 NA
ATOM      2  C   LIG    1       23.052 -17.321   5.412  0.00  0.00    +0.128 C 
ATOM      3  C   LIG    1       23.117 -15.774   5.371  0.00  0.00    +0.241 C 
ATOM      4  N   LIG    1       22.876 -15.242   4.009  0.00  0.00    -0.217 N 
ATOM      5  C   LIG    1       21.966 -16.072   3.193  0.00  0.00    +0.241 C 
ATOM      6  C   LIG    1       21.069 -16.983   4.049  0.00  0.00    +0.128 C 
ENDROOT
BRANCH   4   7
ATOM      7  C   LIG    1       23.794 -14.354   3.420  0.00  0.00    +0.330 C 
ATOM      8  C   LIG    1       25.269 -14.668   3.483  0.00  0.00    +0.070 A 
ATOM      9  C   LIG    1       26.160 -13.599   3.643  0.00  0.00    -0.019 A 
ATOM     10  C   LIG    1       27.511 -13.865   3.897  0.00  0.00    +0.005 A 
ATOM     11  C   LIG    1       27.968 -15.184   3.944  0.00  0.00    +0.000 A 
ATOM     12  C   LIG    1       27.094 -16.238   3.683  0.00  0.00    +0.001 A 
ATOM     13  C   LIG    1       25.624 -12.205   3.528  0.00  0.00    +0.158 C 
ATOM     14  S   LIG    1       24.404 -12.131   2.173  0.00  0.00    +0.115 S 
ATOM     15  C   LIG    1       25.752 -15.977   3.416  0.00  0.00    +0.016 A 
ATOM     16  N   LIG    1       23.365 -13.238   2.881  0.00  0.00    -0.003 NA
ENDBRANCH   4   7
BRANCH   1  17
ATOM     17  C   LIG    1       22.008 -19.217   4.233  0.00  0.00    +0.085 C 
BRANCH  17  18
ATOM     18  C   LIG    1       22.828 -19.151   2.934  0.00  0.00    +0.017 C 
BRANCH  18  19
ATOM     19  C   LIG    1       24.067 -20.048   2.949  0.00  0.00    +0.021 C 
BRANCH  19  20
ATOM     20  C   LIG    1       24.114 -20.924   4.204  0.00  0.00    +0.116 C 
BRANCH  20  23
ATOM     21  O   LIG    1       26.372 -19.212   3.574  0.00  0.00    -0.275 OA
ATOM     22  C   LIG    1       26.207 -19.687   4.690  0.00  0.00    +0.226 C 
ATOM     23  N   LIG    1       25.219 -20.550   5.070  0.00  0.00    -0.242 N 
ATOM     24  C   LIG    1       25.287 -20.866   6.402  0.00  0.00    +0.226 C 
ATOM     25  O   LIG    1       24.449 -21.454   7.056  0.00  0.00    -0.275 OA
ATOM     26  C   LIG    1       26.627 -20.394   6.931  0.00  0.00    +0.087 C 
ATOM     27  C   LIG    1       27.608 -21.569   7.001  0.00  0.00    +0.013 C 
ATOM     28  C   LIG    1       29.065 -21.133   6.910  0.00  0.00    +0.001 C 
ATOM     29  C   LIG    1       29.299 -20.321   5.645  0.00  0.00    +0.001 C 
ATOM     30  C   LIG    1       28.467 -19.048   5.669  0.00  0.00    +0.013 C 
ATOM     31  C   LIG    1       26.986 -19.297   5.925  0.00  0.00    +0.087 C 
ENDBRANCH  20  23
ENDBRANCH  19  20
ENDBRANCH  18  19
ENDBRANCH  17  18
ENDBRANCH   1  17
TORSDOF 6
ENDMDL
MODEL 6
REMARK VINA RESULT:       4.9      3.166      6.800
REMARK  Name = *****
REMARK                            x       y       z     vdW  Elec       q    Type
REMARK                         _______ _______ _______ _____ _____    ______ ____
ROOT
ATOM      1  N   LIG    1       28.266 -17.041   4.052  0.00  0.00    -0.295 NA
ATOM      2  C   LIG    1       28.283 -18.021   5.164  0.00  0.00    +0.128 C 
ATOM      3  C   LIG    1       27.627 -19.392   4.868  0.00  0.00    +0.241 C 
ATOM      4  N   LIG    1       26.221 -19.252   4.421  0.00  0.00    -0.217 N 
ATOM      5  C   LIG    1       25.950 -18.007   3.673  0.00  0.00    +0.241 C 
ATOM      6  C   LIG    1       27.225 -17.390   3.071  0.00  0.00    +0.128 C 
ENDROOT
BRANCH   4   7
ATOM      7  C   LIG    1       25.195 -19.964   5.068  0.00  0.00    +0.330 C 
ATOM      8  C   LIG    1       23.772 -19.803   4.591  0.00  0.00    +0.070 A 
ATOM      9  C   LIG    1       22.755 -19.812   5.553  0.00  0.00    -0.019 A 
ATOM     10  C   LIG    1       21.449 -19.475   5.174  0.00  0.00    +0.005 A 
ATOM     11  C   LIG    1       21.163 -19.179   3.839  0.00  0.00    +0.000 A 
ATOM     12  C   LIG    1       22.161 -19.271   2.871  0.00  0.00    +0.001 A 
ATOM     13  C   LIG    1       23.109 -20.190   6.959  0.00  0.00    +0.158 C 
ATOM     14  S   LIG    1       24.302 -21.571   6.935  0.00  0.00    +0.115 S 
ATOM     15  C   LIG    1       23.458 -19.620   3.243  0.00  0.00    +0.016 A 
ATOM     16  N   LIG    1       25.477 -20.706   6.111  0.00  0.00    -0.003 NA
ENDBRANCH   4   7
BRANCH   1  17
ATOM     17  C   LIG    1       28.125 -15.650   4.510  0.00  0.00    +0.085 C 
BRANCH  17  18
ATOM     18  C   LIG    1       28.053 -14.592   3.395  0.00  0.00    +0.017 C 
BRANCH  18  19
ATOM     19  C   LIG    1       28.637 -13.238   3.801  0.00  0.00    +0.021 C 
BRANCH  19  20
ATOM     20  C   LIG    1       27.687 -12.088   3.457  0.00  0.00    +0.116 C 
BRANCH  20  23
ATOM     21  O   LIG    1       26.572 -13.229   5.882  0.00  0.00    -0.275 OA
ATOM     22  C   LIG    1       25.872 -12.928   4.924  0.00  0.00    +0.226 C 
ATOM     23  N   LIG    1       26.304 -12.447   3.721  0.00  0.00    -0.242 N 
ATOM     24  C   LIG    1       25.267 -12.170   2.868  0.00  0.00    +0.226 C 
ATOM     25  O   LIG    1       25.329 -11.569   1.814  0.00  0.00    -0.275 OA
ATOM     26  C   LIG    1       24.007 -12.787   3.442  0.00  0.00    +0.087 C 
ATOM     27  C   LIG    1       23.710 -14.120   2.745  0.00  0.00    +0.013 C 
ATOM     28  C   LIG    1       22.898 -15.075   3.610  0.00  0.00    +0.001 C 
ATOM     29  C   LIG    1       23.599 -15.316   4.939  0.00  0.00    +0.001 C 
ATOM     30  C   LIG    1       23.715 -14.016   5.721  0.00  0.00    +0.013 C 
ATOM     31  C   LIG    1       24.362 -12.888   4.928  0.00  0.00    +0.087 C 
ENDBRANCH  20  23
ENDBRANCH  19  20
ENDBRANCH  18  19
ENDBRANCH  17  18
ENDBRANCH   1  17
TORSDOF 6
ENDMDL
