MODEL 1
REMARK VINA RESULT:       5.4      0.000      0.000
REMARK  Name = *****
REMARK                            x       y       z     vdW  Elec       q    Type
REMARK                         _______ _______ _______ _____ _____    ______ ____
ROOT
ATOM      1  C   LIG    1       26.448 -17.405   3.968  0.00  0.00    +0.022 C 
ATOM      2  C   LIG    1       26.352 -16.920   2.504  0.00  0.00    +0.061 C 
ATOM      3  C   LIG    1       26.614 -15.421   2.371  0.00  0.00    +0.134 C 
ATOM      4  N   LIG    1       27.278 -14.908   3.651  0.00  0.00    +0.245 N 
ATOM      5  C   LIG    1       26.265 -14.981   4.790  0.00  0.00    +0.134 C 
ATOM      6  C   LIG    1       28.461 -15.838   3.988  0.00  0.00    +0.134 C 
ATOM      7  C   LIG    1       25.631 -16.378   4.818  0.00  0.00    +0.061 C 
ATOM      8  C   LIG    1       27.921 -17.195   4.444  0.00  0.00    +0.061 C 
ENDROOT
BRANCH   1   9
ATOM      9  C   LIG    1       25.979 -18.921   4.195  0.00  0.00    +0.122 C 
BRANCH   9  10
ATOM     10  C   LIG    1       26.836 -19.700   5.228  0.00  0.00    -0.011 A 
ATOM     11  C   LIG    1       28.240 -19.526   5.300  0.00  0.00    +0.007 A 
ATOM     12  C   LIG    1       29.031 -20.274   6.188  0.00  0.00    +0.000 A 
ATOM     13  C   LIG    1       28.464 -21.198   7.041  0.00  0.00    +0.000 A 
ATOM     14  C   LIG    1       27.088 -21.369   7.033  0.00  0.00    +0.000 A 
ATOM     15  C   LIG    1       26.299 -20.627   6.143  0.00  0.00    +0.007 A 
ENDBRANCH   9  10
BRANCH   9  16
ATOM     16  C   LIG    1       24.424 -19.042   4.402  0.00  0.00    -0.011 A 
ATOM     17  C   LIG    1       23.524 -18.031   3.999  0.00  0.00    +0.007 A 
ATOM     18  C   LIG    1       22.133 -18.188   4.071  0.00  0.00    +0.000 A 
ATOM     19  C   LIG    1       21.586 -19.367   4.546  0.00  0.00    +0.000 A 
ATOM     20  C   LIG    1       22.435 -20.375   4.989  0.00  0.00    +0.000 A 
ATOM     21  C   LIG    1       23.826 -20.210   4.929  0.00  0.00    +0.007 A 
ENDBRANCH   9  16
BRANCH   9  22
ATOM     22  O   LIG    1       26.265 -19.537   2.917  0.00  0.00    -0.379 OA
ATOM     23  H   LIG    1       25.425 -19.541   2.417  0.00  0.00    +0.211 HD
ENDBRANCH   9  22
ENDBRANCH   1   9
BRANCH   4  24
ATOM     24  C   LIG    1       27.821 -13.465   3.442  0.00  0.00    +0.162 C 
BRANCH  24  25
ATOM     25  C   LIG    1       26.746 -12.392   3.147  0.00  0.00    +0.211 C 
BRANCH  25  26
ATOM     26  O   LIG    1       26.161 -12.584   1.859  0.00  0.00    -0.370 OA
BRANCH  26  27
ATOM     27  C   LIG    1       24.761 -12.290   1.848  0.00  0.00    +0.195 C 
BRANCH  27  28
ATOM     28  C   LIG    1       24.141 -12.789   3.124  0.00  0.00    -0.022 A 
ATOM     29  C   LIG    1       24.151 -11.997   4.280  0.00  0.00    +0.006 A 
ATOM     30  C   LIG    1       23.598 -12.462   5.473  0.00  0.00    +0.000 A 
ATOM     31  C   LIG    1       23.016 -13.730   5.528  0.00  0.00    +0.000 A 
ATOM     32  C   LIG    1       22.988 -14.524   4.385  0.00  0.00    +0.000 A 
ATOM     33  C   LIG    1       23.545 -14.063   3.191  0.00  0.00    +0.006 A 
ENDBRANCH  27  28
ENDBRANCH  26  27
ENDBRANCH  25  26
ENDBRANCH  24  25
ENDBRANCH   4  24
TORSDOF 9
ENDMDL
MODEL 2
REMARK VINA RESULT:       6.4      0.706      1.558
REMARK  Name = *****
REMARK                            x       y       z     vdW  Elec       q    Type
REMARK                         _______ _______ _______ _____ _____    ______ ____
ROOT
ATOM      1  C   LIG    1       26.227 -17.389   3.857  0.00  0.00    +0.022 C 
ATOM      2  C   LIG    1       27.681 -17.318   4.377  0.00  0.00    +0.061 C 
ATOM      3  C   LIG    1       28.350 -15.986   4.046  0.00  0.00    +0.134 C 
ATOM      4  N   LIG    1       27.280 -14.965   3.652  0.00  0.00    +0.245 N 
ATOM      5  C   LIG    1       26.674 -15.386   2.315  0.00  0.00    +0.134 C 
ATOM      6  C   LIG    1       26.170 -14.990   4.721  0.00  0.00    +0.134 C 
ATOM      7  C   LIG    1       26.269 -16.864   2.384  0.00  0.00    +0.061 C 
ATOM      8  C   LIG    1       25.397 -16.305   4.614  0.00  0.00    +0.061 C 
ENDROOT
BRANCH   1   9
ATOM      9  C   LIG    1       25.547 -18.834   3.988  0.00  0.00    +0.122 C 
BRANCH   9  10
ATOM     10  C   LIG    1       26.221 -19.757   5.038  0.00  0.00    -0.011 A 
ATOM     11  C   LIG    1       25.454 -20.607   5.872  0.00  0.00    +0.007 A 
ATOM     12  C   LIG    1       26.050 -21.398   6.869  0.00  0.00    +0.000 A 
ATOM     13  C   LIG    1       27.417 -21.390   7.059  0.00  0.00    +0.000 A 
ATOM     14  C   LIG    1       28.210 -20.605   6.236  0.00  0.00    +0.000 A 
ATOM     15  C   LIG    1       27.614 -19.813   5.246  0.00  0.00    +0.007 A 
ENDBRANCH   9  10
BRANCH   9  16
ATOM     16  C   LIG    1       23.979 -18.752   4.092  0.00  0.00    -0.011 A 
ATOM     17  C   LIG    1       23.316 -17.670   4.710  0.00  0.00    +0.007 A 
ATOM     18  C   LIG    1       21.921 -17.535   4.698  0.00  0.00    +0.000 A 
ATOM     19  C   LIG    1       21.133 -18.476   4.059  0.00  0.00    +0.000 A 
ATOM     20  C   LIG    1       21.741 -19.578   3.470  0.00  0.00    +0.000 A 
ATOM     21  C   LIG    1       23.136 -19.718   3.497  0.00  0.00    +0.007 A 
ENDBRANCH   9  16
BRANCH   9  22
ATOM     22  O   LIG    1       25.836 -19.438   2.705  0.00  0.00    -0.379 OA
ATOM     23  H   LIG    1       26.645 -19.004   2.370  0.00  0.00    +0.211 HD
ENDBRANCH   9  22
ENDBRANCH   1   9
BRANCH   4  24
ATOM     24  C   LIG    1       27.887 -13.534   3.594  0.00  0.00    +0.162 C 
BRANCH  24  25
ATOM     25  C   LIG    1       26.873 -12.398   3.322  0.00  0.00    +0.211 C 
BRANCH  25  26
ATOM     26  O   LIG    1       26.449 -12.398   1.958  0.00  0.00    -0.370 OA
BRANCH  26  27
ATOM     27  C   LIG    1       25.076 -12.020   1.815  0.00  0.00    +0.195 C 
BRANCH  27  28
ATOM     28  C   LIG    1       24.332 -12.377   3.073  0.00  0.00    -0.022 A 
ATOM     29  C   LIG    1       24.200 -11.447   4.113  0.00  0.00    +0.006 A 
ATOM     30  C   LIG    1       23.531 -11.777   5.291  0.00  0.00    +0.000 A 
ATOM     31  C   LIG    1       22.974 -13.048   5.446  0.00  0.00    +0.000 A 
ATOM     32  C   LIG    1       23.087 -13.979   4.418  0.00  0.00    +0.000 A 
ATOM     33  C   LIG    1       23.759 -13.653   3.240  0.00  0.00    +0.006 A 
ENDBRANCH  27  28
ENDBRANCH  26  27
ENDBRANCH  25  26
ENDBRANCH  24  25
ENDBRANCH   4  24
TORSDOF 9
ENDMDL
MODEL 3
REMARK VINA RESULT:       8.2      0.996      1.651
REMARK  Name = *****
REMARK                            x       y       z     vdW  Elec       q    Type
REMARK                         _______ _______ _______ _____ _____    ______ ____
ROOT
ATOM      1  C   LIG    1       26.484 -17.317   3.987  0.00  0.00    +0.022 C 
ATOM      2  C   LIG    1       26.395 -16.641   2.600  0.00  0.00    +0.061 C 
ATOM      3  C   LIG    1       26.901 -15.201   2.622  0.00  0.00    +0.134 C 
ATOM      4  N   LIG    1       27.710 -14.968   3.900  0.00  0.00    +0.245 N 
ATOM      5  C   LIG    1       26.761 -15.018   5.095  0.00  0.00    +0.134 C 
ATOM      6  C   LIG    1       28.733 -16.114   4.040  0.00  0.00    +0.134 C 
ATOM      7  C   LIG    1       25.901 -16.286   5.008  0.00  0.00    +0.061 C 
ATOM      8  C   LIG    1       27.994 -17.410   4.374  0.00  0.00    +0.061 C 
ENDROOT
BRANCH   1   9
ATOM      9  C   LIG    1       25.776 -18.752   4.072  0.00  0.00    +0.122 C 
BRANCH   9  10
ATOM     10  C   LIG    1       26.378 -19.692   5.150  0.00  0.00    -0.011 A 
ATOM     11  C   LIG    1       27.741 -19.603   5.526  0.00  0.00    +0.007 A 
ATOM     12  C   LIG    1       28.310 -20.491   6.454  0.00  0.00    +0.000 A 
ATOM     13  C   LIG    1       27.552 -21.476   7.052  0.00  0.00    +0.000 A 
ATOM     14  C   LIG    1       26.203 -21.571   6.745  0.00  0.00    +0.000 A 
ATOM     15  C   LIG    1       25.637 -20.689   5.815  0.00  0.00    +0.007 A 
ENDBRANCH   9  10
BRANCH   9  16
ATOM     16  C   LIG    1       24.206 -18.646   4.091  0.00  0.00    -0.011 A 
ATOM     17  C   LIG    1       23.372 -19.776   4.234  0.00  0.00    +0.007 A 
ATOM     18  C   LIG    1       21.981 -19.673   4.374  0.00  0.00    +0.000 A 
ATOM     19  C   LIG    1       21.369 -18.432   4.381  0.00  0.00    +0.000 A 
ATOM     20  C   LIG    1       22.148 -17.294   4.205  0.00  0.00    +0.000 A 
ATOM     21  C   LIG    1       23.537 -17.401   4.051  0.00  0.00    +0.007 A 
ENDBRANCH   9  16
BRANCH   9  22
ATOM     22  O   LIG    1       26.124 -19.353   2.802  0.00  0.00    -0.379 OA
ATOM     23  H   LIG    1       26.209 -18.619   2.162  0.00  0.00    +0.211 HD
ENDBRANCH   9  22
ENDBRANCH   1   9
BRANCH   4  24
ATOM     24  C   LIG    1       28.480 -13.619   3.819  0.00  0.00    +0.162 C 
BRANCH  24  25
ATOM     25  C   LIG    1       28.359 -12.715   5.070  0.00  0.00    +0.211 C 
BRANCH  25  26
ATOM     26  O   LIG    1       27.017 -12.265   5.256  0.00  0.00    -0.370 OA
BRANCH  26  27
ATOM     27  C   LIG    1       26.482 -11.646   4.081  0.00  0.00    +0.195 C 
BRANCH  27  28
ATOM     28  C   LIG    1       25.288 -12.429   3.610  0.00  0.00    -0.022 A 
ATOM     29  C   LIG    1       24.459 -13.088   4.529  0.00  0.00    +0.006 A 
ATOM     30  C   LIG    1       23.362 -13.834   4.099  0.00  0.00    +0.000 A 
ATOM     31  C   LIG    1       23.070 -13.927   2.737  0.00  0.00    +0.000 A 
ATOM     32  C   LIG    1       23.877 -13.269   1.813  0.00  0.00    +0.000 A 
ATOM     33  C   LIG    1       24.978 -12.526   2.240  0.00  0.00    +0.006 A 
ENDBRANCH  27  28
ENDBRANCH  26  27
ENDBRANCH  25  26
ENDBRANCH  24  25
ENDBRANCH   4  24
TORSDOF 9
ENDMDL
