MODEL 1
REMARK VINA RESULT:      -5.2      0.000      0.000
REMARK  Name = *****
REMARK                            x       y       z     vdW  Elec       q    Type
REMARK                         _______ _______ _______ _____ _____    ______ ____
ROOT
ATOM      1  C   LIG    1       24.007 -32.735   9.821  0.00  0.00    +0.106 C 
ATOM      2  C   LIG    1       24.483 -31.484  10.589  0.00  0.00    +0.172 C 
ATOM      3  C   LIG    1       23.407 -30.379  10.526  0.00  0.00    +0.175 C 
ATOM      4  C   LIG    1       22.057 -30.790  11.158  0.00  0.00    +0.169 C 
ATOM      5  C   LIG    1       21.688 -32.332  10.966  0.00  0.00    +0.084 C 
ATOM      6  C   LIG    1       22.816 -33.325  10.580  0.00  0.00    +0.046 C 
ENDROOT
BRANCH   1   8
ATOM      7  C   LIG    1       24.798 -32.558   7.488  0.00  0.00    +0.242 C 
ATOM      8  N   LIG    1       23.758 -32.530   8.402  0.00  0.00    -0.308 N 
ATOM      9  H   LIG    1       22.895 -32.046   8.133  0.00  0.00    +0.149 HD
ATOM     10  O   LIG    1       25.930 -32.882   7.778  0.00  0.00    -0.273 OA
BRANCH   7  11
ATOM     11  C   LIG    1       24.395 -32.138   6.054  0.00  0.00    +0.201 C 
BRANCH  11  12
ATOM     12  O   LIG    1       22.993 -31.925   5.920  0.00  0.00    -0.383 OA
ATOM     13  H   LIG    1       22.822 -31.000   6.180  0.00  0.00    +0.210 HD
ENDBRANCH  11  12
BRANCH  11  14
ATOM     14  C   LIG    1       25.157 -30.862   5.698  0.00  0.00    +0.056 C 
BRANCH  14  15
ATOM     15  C   LIG    1       24.449 -29.614   6.213  0.00  0.00    +0.080 C 
BRANCH  15  16
ATOM     16  N   LIG    1       23.395 -29.227   5.283  0.00  0.00    -0.330 NA
ATOM     17  H   LIG    1       22.505 -29.155   5.774  0.00  0.00    +0.118 HD
ATOM     18  H   LIG    1       23.600 -28.303   4.907  0.00  0.00    +0.118 HD
ENDBRANCH  15  16
ENDBRANCH  14  15
ENDBRANCH  11  14
ENDBRANCH   7  11
ENDBRANCH   1   8
BRANCH   5  19
ATOM     19  N   LIG    1       20.602 -32.532   9.975  0.00  0.00    -0.325 NA
ATOM     20  H   LIG    1       19.932 -33.196  10.371  0.00  0.00    +0.118 HD
ATOM     21  H   LIG    1       20.975 -33.017   9.155  0.00  0.00    +0.118 HD
ENDBRANCH   5  19
BRANCH   3  22
ATOM     22  O   LIG    1       23.191 -29.922   9.187  0.00  0.00    -0.387 OA
ATOM     23  H   LIG    1       22.570 -29.175   9.227  0.00  0.00    +0.210 HD
ENDBRANCH   3  22
BRANCH   2  24
ATOM     24  O   LIG    1       24.747 -31.753  11.985  0.00  0.00    -0.341 OA
BRANCH  24  25
ATOM     25  C   LIG    1       25.924 -31.111  12.510  0.00  0.00    +0.281 C 
ATOM     26  C   LIG    1       25.806 -31.185  14.044  0.00  0.00    +0.189 C 
ATOM     27  C   LIG    1       26.977 -30.465  14.743  0.00  0.00    +0.116 C 
ATOM     28  C   LIG    1       27.135 -29.050  14.138  0.00  0.00    +0.165 C 
ATOM     29  C   LIG    1       27.090 -29.012  12.595  0.00  0.00    +0.177 C 
ATOM     30  O   LIG    1       25.982 -29.763  12.067  0.00  0.00    -0.341 OA
BRANCH  27  31
ATOM     31  N   LIG    1       28.234 -31.231  14.732  0.00  0.00    -0.323 NA
ATOM     32  H   LIG    1       28.175 -32.017  15.377  0.00  0.00    +0.119 HD
ATOM     33  H   LIG    1       28.399 -31.621  13.796  0.00  0.00    +0.119 HD
ENDBRANCH  27  31
BRANCH  26  34
ATOM     34  O   LIG    1       24.563 -30.562  14.442  0.00  0.00    -0.385 OA
ATOM     35  H   LIG    1       24.521 -29.746  13.900  0.00  0.00    +0.210 HD
ENDBRANCH  26  34
BRANCH  28  36
ATOM     36  O   LIG    1       26.060 -28.221  14.633  0.00  0.00    -0.388 OA
ATOM     37  H   LIG    1       26.424 -27.718  15.394  0.00  0.00    +0.210 HD
ENDBRANCH  28  36
BRANCH  29  38
ATOM     38  C   LIG    1       28.416 -29.368  11.892  0.00  0.00    +0.190 C 
BRANCH  38  39
ATOM     39  O   LIG    1       29.560 -29.300  12.744  0.00  0.00    -0.392 OA
ATOM     40  H   LIG    1       30.053 -28.504  12.471  0.00  0.00    +0.209 HD
ENDBRANCH  38  39
ENDBRANCH  29  38
ENDBRANCH  24  25
ENDBRANCH   2  24
BRANCH   4  41
ATOM     41  O   LIG    1       21.982 -30.437  12.565  0.00  0.00    -0.342 OA
BRANCH  41  42
ATOM     42  C   LIG    1       21.251 -29.224  12.932  0.00  0.00    +0.268 C 
ATOM     43  C   LIG    1       22.205 -27.995  12.661  0.00  0.00    +0.107 C 
ATOM     44  C   LIG    1       21.646 -26.680  13.222  0.00  0.00    +0.026 C 
ATOM     45  C   LIG    1       21.304 -26.851  14.693  0.00  0.00    +0.035 C 
ATOM     46  C   LIG    1       20.337 -28.023  14.871  0.00  0.00    +0.135 C 
ATOM     47  O   LIG    1       20.844 -29.255  14.311  0.00  0.00    -0.345 OA
BRANCH  43  48
ATOM     48  N   LIG    1       23.533 -28.229  13.280  0.00  0.00    -0.323 NA
ATOM     49  H   LIG    1       23.946 -29.092  12.935  0.00  0.00    +0.119 HD
ATOM     50  H   LIG    1       24.142 -27.471  12.958  0.00  0.00    +0.119 HD
ENDBRANCH  43  48
BRANCH  46  51
ATOM     51  C   LIG    1       18.926 -27.649  14.354  0.00  0.00    +0.109 C 
BRANCH  51  52
ATOM     52  N   LIG    1       18.434 -26.403  14.936  0.00  0.00    -0.328 NA
ATOM     53  H   LIG    1       19.034 -25.642  14.617  0.00  0.00    +0.118 HD
ATOM     54  H   LIG    1       17.512 -26.193  14.551  0.00  0.00    +0.118 HD
ENDBRANCH  51  52
ENDBRANCH  46  51
ENDBRANCH  41  42
ENDBRANCH   4  41
TORSDOF 20
ENDMDL
MODEL 2
REMARK VINA RESULT:      -5.2      4.089      8.044
REMARK  Name = *****
REMARK                            x       y       z     vdW  Elec       q    Type
REMARK                         _______ _______ _______ _____ _____    ______ ____
ROOT
ATOM      1  C   LIG    1       25.705 -26.144   7.095  0.00  0.00    +0.106 C 
ATOM      2  C   LIG    1       25.189 -27.501   7.619  0.00  0.00    +0.172 C 
ATOM      3  C   LIG    1       24.506 -28.287   6.479  0.00  0.00    +0.175 C 
ATOM      4  C   LIG    1       25.447 -28.607   5.294  0.00  0.00    +0.169 C 
ATOM      5  C   LIG    1       26.533 -27.474   4.999  0.00  0.00    +0.084 C 
ATOM      6  C   LIG    1       26.834 -26.425   6.102  0.00  0.00    +0.046 C 
ENDROOT
BRANCH   1   8
ATOM      7  C   LIG    1       24.710 -23.896   6.865  0.00  0.00    +0.242 C 
ATOM      8  N   LIG    1       24.677 -25.251   6.583  0.00  0.00    -0.308 N 
ATOM      9  H   LIG    1       23.779 -25.663   6.307  0.00  0.00    +0.149 HD
ATOM     10  O   LIG    1       25.640 -23.355   7.425  0.00  0.00    -0.273 OA
BRANCH   7  11
ATOM     11  C   LIG    1       23.451 -23.121   6.406  0.00  0.00    +0.201 C 
BRANCH  11  12
ATOM     12  O   LIG    1       22.244 -23.818   6.693  0.00  0.00    -0.383 OA
ATOM     13  H   LIG    1       22.265 -24.645   6.174  0.00  0.00    +0.210 HD
ENDBRANCH  11  12
BRANCH  11  14
ATOM     14  C   LIG    1       23.449 -21.758   7.100  0.00  0.00    +0.056 C 
BRANCH  14  15
ATOM     15  C   LIG    1       23.058 -20.636   6.147  0.00  0.00    +0.080 C 
BRANCH  15  16
ATOM     16  N   LIG    1       22.294 -21.182   5.031  0.00  0.00    -0.330 NA
ATOM     17  H   LIG    1       21.933 -20.426   4.451  0.00  0.00    +0.118 HD
ATOM     18  H   LIG    1       22.910 -21.737   4.440  0.00  0.00    +0.118 HD
ENDBRANCH  15  16
ENDBRANCH  14  15
ENDBRANCH  11  14
ENDBRANCH   7  11
ENDBRANCH   1   8
BRANCH   5  19
ATOM     19  N   LIG    1       26.225 -26.705   3.768  0.00  0.00    -0.325 NA
ATOM     20  H   LIG    1       26.790 -27.088   3.006  0.00  0.00    +0.118 HD
ATOM     21  H   LIG    1       26.566 -25.746   3.872  0.00  0.00    +0.118 HD
ENDBRANCH   5  19
BRANCH   3  22
ATOM     22  O   LIG    1       23.337 -27.617   5.997  0.00  0.00    -0.387 OA
ATOM     23  H   LIG    1       23.381 -27.610   5.026  0.00  0.00    +0.210 HD
ENDBRANCH   3  22
BRANCH   2  24
ATOM     24  O   LIG    1       26.247 -28.334   8.147  0.00  0.00    -0.341 OA
BRANCH  24  25
ATOM     25  C   LIG    1       26.186 -28.556   9.567  0.00  0.00    +0.281 C 
ATOM     26  C   LIG    1       27.465 -29.332   9.937  0.00  0.00    +0.189 C 
ATOM     27  C   LIG    1       27.498 -29.703  11.433  0.00  0.00    +0.116 C 
ATOM     28  C   LIG    1       26.158 -30.373  11.818  0.00  0.00    +0.165 C 
ATOM     29  C   LIG    1       24.906 -29.637  11.290  0.00  0.00    +0.177 C 
ATOM     30  O   LIG    1       25.024 -29.303   9.895  0.00  0.00    -0.341 OA
BRANCH  27  31
ATOM     31  N   LIG    1       27.843 -28.575  12.315  0.00  0.00    -0.323 NA
ATOM     32  H   LIG    1       28.792 -28.680  12.668  0.00  0.00    +0.119 HD
ATOM     33  H   LIG    1       27.814 -27.694  11.785  0.00  0.00    +0.119 HD
ENDBRANCH  27  31
BRANCH  26  34
ATOM     34  O   LIG    1       27.513 -30.543   9.149  0.00  0.00    -0.385 OA
ATOM     35  H   LIG    1       27.273 -30.249   8.244  0.00  0.00    +0.210 HD
ENDBRANCH  26  34
BRANCH  28  36
ATOM     36  O   LIG    1       26.146 -31.712  11.277  0.00  0.00    -0.388 OA
ATOM     37  H   LIG    1       27.048 -32.075  11.412  0.00  0.00    +0.210 HD
ENDBRANCH  28  36
BRANCH  29  38
ATOM     38  C   LIG    1       24.449 -28.432  12.136  0.00  0.00    +0.190 C 
BRANCH  38  39
ATOM     39  O   LIG    1       24.990 -28.412  13.458  0.00  0.00    -0.392 OA
ATOM     40  H   LIG    1       24.243 -28.216  14.052  0.00  0.00    +0.209 HD
ENDBRANCH  38  39
ENDBRANCH  29  38
ENDBRANCH  24  25
ENDBRANCH   2  24
BRANCH   4  41
ATOM     41  O   LIG    1       26.105 -29.892   5.451  0.00  0.00    -0.342 OA
BRANCH  41  42
ATOM     42  C   LIG    1       25.341 -31.100   5.139  0.00  0.00    +0.268 C 
ATOM     43  C   LIG    1       24.357 -31.362   6.347  0.00  0.00    +0.107 C 
ATOM     44  C   LIG    1       23.661 -32.727   6.254  0.00  0.00    +0.026 C 
ATOM     45  C   LIG    1       24.699 -33.825   6.087  0.00  0.00    +0.035 C 
ATOM     46  C   LIG    1       25.578 -33.530   4.870  0.00  0.00    +0.135 C 
ATOM     47  O   LIG    1       26.205 -32.230   4.936  0.00  0.00    -0.345 OA
BRANCH  43  48
ATOM     48  N   LIG    1       25.096 -31.311   7.632  0.00  0.00    -0.323 NA
ATOM     49  H   LIG    1       25.592 -30.428   7.730  0.00  0.00    +0.119 HD
ATOM     50  H   LIG    1       24.391 -31.327   8.374  0.00  0.00    +0.119 HD
ENDBRANCH  43  48
BRANCH  46  51
ATOM     51  C   LIG    1       24.789 -33.765   3.558  0.00  0.00    +0.109 C 
BRANCH  51  52
ATOM     52  N   LIG    1       25.553 -33.376   2.375  0.00  0.00    -0.328 NA
ATOM     53  H   LIG    1       25.771 -32.383   2.447  0.00  0.00    +0.118 HD
ATOM     54  H   LIG    1       26.457 -33.848   2.389  0.00  0.00    +0.118 HD
ENDBRANCH  51  52
ENDBRANCH  46  51
ENDBRANCH  41  42
ENDBRANCH   4  41
TORSDOF 20
ENDMDL
MODEL 3
REMARK VINA RESULT:      -4.9      2.438      6.601
REMARK  Name = *****
REMARK                            x       y       z     vdW  Elec       q    Type
REMARK                         _______ _______ _______ _____ _____    ______ ____
ROOT
ATOM      1  C   LIG    1       27.333 -28.194  12.559  0.00  0.00    +0.106 C 
ATOM      2  C   LIG    1       26.234 -29.258  12.354  0.00  0.00    +0.172 C 
ATOM      3  C   LIG    1       25.273 -29.271  13.561  0.00  0.00    +0.175 C 
ATOM      4  C   LIG    1       24.540 -27.928  13.787  0.00  0.00    +0.169 C 
ATOM      5  C   LIG    1       25.411 -26.640  13.421  0.00  0.00    +0.084 C 
ATOM      6  C   LIG    1       26.663 -26.818  12.523  0.00  0.00    +0.046 C 
ENDROOT
BRANCH   1   8
ATOM      7  C   LIG    1       29.258 -29.279  13.663  0.00  0.00    +0.242 C 
ATOM      8  N   LIG    1       28.186 -28.404  13.719  0.00  0.00    -0.308 N 
ATOM      9  H   LIG    1       27.803 -28.172  14.642  0.00  0.00    +0.149 HD
ATOM     10  O   LIG    1       29.632 -29.808  12.638  0.00  0.00    -0.273 OA
BRANCH   7  11
ATOM     11  C   LIG    1       29.945 -29.529  15.026  0.00  0.00    +0.201 C 
BRANCH  11  12
ATOM     12  O   LIG    1       29.846 -30.886  15.448  0.00  0.00    -0.383 OA
ATOM     13  H   LIG    1       30.262 -31.429  14.752  0.00  0.00    +0.210 HD
ENDBRANCH  11  12
BRANCH  11  14
ATOM     14  C   LIG    1       31.414 -29.123  14.904  0.00  0.00    +0.056 C 
BRANCH  14  15
ATOM     15  C   LIG    1       32.340 -30.333  14.903  0.00  0.00    +0.080 C 
BRANCH  15  16
ATOM     16  N   LIG    1       32.389 -30.914  13.566  0.00  0.00    -0.330 NA
ATOM     17  H   LIG    1       32.418 -30.176  12.865  0.00  0.00    +0.118 HD
ATOM     18  H   LIG    1       33.248 -31.452  13.463  0.00  0.00    +0.118 HD
ENDBRANCH  15  16
ENDBRANCH  14  15
ENDBRANCH  11  14
ENDBRANCH   7  11
ENDBRANCH   1   8
BRANCH   5  19
ATOM     19  N   LIG    1       25.867 -25.907  14.629  0.00  0.00    -0.325 NA
ATOM     20  H   LIG    1       25.041 -25.544  15.109  0.00  0.00    +0.118 HD
ATOM     21  H   LIG    1       26.377 -25.067  14.343  0.00  0.00    +0.118 HD
ENDBRANCH   5  19
BRANCH   3  22
ATOM     22  O   LIG    1       25.937 -29.665  14.767  0.00  0.00    -0.387 OA
ATOM     23  H   LIG    1       26.823 -29.984  14.525  0.00  0.00    +0.210 HD
ENDBRANCH   3  22
BRANCH   2  24
ATOM     24  O   LIG    1       25.440 -29.019  11.170  0.00  0.00    -0.341 OA
BRANCH  24  25
ATOM     25  C   LIG    1       25.321 -30.149  10.286  0.00  0.00    +0.281 C 
ATOM     26  C   LIG    1       26.724 -30.382   9.695  0.00  0.00    +0.189 C 
ATOM     27  C   LIG    1       26.728 -31.531   8.666  0.00  0.00    +0.116 C 
ATOM     28  C   LIG    1       25.587 -31.301   7.646  0.00  0.00    +0.165 C 
ATOM     29  C   LIG    1       24.235 -30.915   8.284  0.00  0.00    +0.177 C 
ATOM     30  O   LIG    1       24.376 -29.870   9.263  0.00  0.00    -0.341 OA
BRANCH  27  31
ATOM     31  N   LIG    1       26.684 -32.871   9.274  0.00  0.00    -0.323 NA
ATOM     32  H   LIG    1       26.808 -33.587   8.561  0.00  0.00    +0.119 HD
ATOM     33  H   LIG    1       27.454 -32.977   9.946  0.00  0.00    +0.119 HD
ENDBRANCH  27  31
BRANCH  26  34
ATOM     34  O   LIG    1       27.160 -29.166   9.047  0.00  0.00    -0.385 OA
ATOM     35  H   LIG    1       28.120 -29.305   8.899  0.00  0.00    +0.210 HD
ENDBRANCH  26  34
BRANCH  28  36
ATOM     36  O   LIG    1       25.980 -30.230   6.759  0.00  0.00    -0.388 OA
ATOM     37  H   LIG    1       25.923 -29.400   7.280  0.00  0.00    +0.210 HD
ENDBRANCH  28  36
BRANCH  29  38
ATOM     38  C   LIG    1       23.402 -32.098   8.819  0.00  0.00    +0.190 C 
BRANCH  38  39
ATOM     39  O   LIG    1       22.179 -31.710   9.447  0.00  0.00    -0.392 OA
ATOM     40  H   LIG    1       21.604 -31.377   8.734  0.00  0.00    +0.209 HD
ENDBRANCH  38  39
ENDBRANCH  29  38
ENDBRANCH  24  25
ENDBRANCH   2  24
BRANCH   4  41
ATOM     41  O   LIG    1       23.267 -27.877  13.090  0.00  0.00    -0.342 OA
BRANCH  41  42
ATOM     42  C   LIG    1       22.044 -27.859  13.892  0.00  0.00    +0.268 C 
ATOM     43  C   LIG    1       21.802 -29.329  14.419  0.00  0.00    +0.107 C 
ATOM     44  C   LIG    1       20.428 -29.499  15.081  0.00  0.00    +0.026 C 
ATOM     45  C   LIG    1       19.338 -29.022  14.135  0.00  0.00    +0.035 C 
ATOM     46  C   LIG    1       19.610 -27.578  13.710  0.00  0.00    +0.135 C 
ATOM     47  O   LIG    1       20.918 -27.406  13.121  0.00  0.00    -0.345 OA
BRANCH  43  48
ATOM     48  N   LIG    1       21.895 -30.298  13.300  0.00  0.00    -0.323 NA
ATOM     49  H   LIG    1       21.782 -29.829  12.404  0.00  0.00    +0.119 HD
ATOM     50  H   LIG    1       22.849 -30.667  13.312  0.00  0.00    +0.119 HD
ENDBRANCH  43  48
BRANCH  46  51
ATOM     51  C   LIG    1       19.333 -26.604  14.882  0.00  0.00    +0.109 C 
BRANCH  51  52
ATOM     52  N   LIG    1       17.975 -26.066  14.846  0.00  0.00    -0.328 NA
ATOM     53  H   LIG    1       17.335 -26.787  15.177  0.00  0.00    +0.118 HD
ATOM     54  H   LIG    1       17.896 -25.309  15.526  0.00  0.00    +0.118 HD
ENDBRANCH  51  52
ENDBRANCH  46  51
ENDBRANCH  41  42
ENDBRANCH   4  41
TORSDOF 20
ENDMDL
MODEL 4
REMARK VINA RESULT:      -4.9      3.939      7.346
REMARK  Name = *****
REMARK                            x       y       z     vdW  Elec       q    Type
REMARK                         _______ _______ _______ _____ _____    ______ ____
ROOT
ATOM      1  C   LIG    1       25.804 -26.296   7.132  0.00  0.00    +0.106 C 
ATOM      2  C   LIG    1       25.310 -27.647   7.691  0.00  0.00    +0.172 C 
ATOM      3  C   LIG    1       24.588 -28.449   6.587  0.00  0.00    +0.175 C 
ATOM      4  C   LIG    1       25.486 -28.783   5.373  0.00  0.00    +0.169 C 
ATOM      5  C   LIG    1       26.559 -27.653   5.024  0.00  0.00    +0.084 C 
ATOM      6  C   LIG    1       26.898 -26.589   6.102  0.00  0.00    +0.046 C 
ENDROOT
BRANCH   1   8
ATOM      7  C   LIG    1       24.834 -24.043   6.847  0.00  0.00    +0.242 C 
ATOM      8  N   LIG    1       24.757 -25.411   6.645  0.00  0.00    -0.308 N 
ATOM      9  H   LIG    1       23.834 -25.818   6.459  0.00  0.00    +0.149 HD
ATOM     10  O   LIG    1       25.811 -23.492   7.307  0.00  0.00    -0.273 OA
BRANCH   7  11
ATOM     11  C   LIG    1       23.559 -23.268   6.437  0.00  0.00    +0.201 C 
BRANCH  11  12
ATOM     12  O   LIG    1       22.365 -23.992   6.717  0.00  0.00    -0.383 OA
ATOM     13  H   LIG    1       22.175 -24.539   5.931  0.00  0.00    +0.210 HD
ENDBRANCH  11  12
BRANCH  11  14
ATOM     14  C   LIG    1       23.550 -21.933   7.182  0.00  0.00    +0.056 C 
BRANCH  14  15
ATOM     15  C   LIG    1       23.165 -20.775   6.268  0.00  0.00    +0.080 C 
BRANCH  15  16
ATOM     16  N   LIG    1       22.292 -21.258   5.204  0.00  0.00    -0.330 NA
ATOM     17  H   LIG    1       22.182 -22.268   5.274  0.00  0.00    +0.118 HD
ATOM     18  H   LIG    1       21.364 -20.852   5.319  0.00  0.00    +0.118 HD
ENDBRANCH  15  16
ENDBRANCH  14  15
ENDBRANCH  11  14
ENDBRANCH   7  11
ENDBRANCH   1   8
BRANCH   5  19
ATOM     19  N   LIG    1       26.205 -26.900   3.795  0.00  0.00    -0.325 NA
ATOM     20  H   LIG    1       26.160 -27.565   3.020  0.00  0.00    +0.118 HD
ATOM     21  H   LIG    1       26.978 -26.278   3.543  0.00  0.00    +0.118 HD
ENDBRANCH   5  19
BRANCH   3  22
ATOM     22  O   LIG    1       23.401 -27.787   6.138  0.00  0.00    -0.387 OA
ATOM     23  H   LIG    1       23.557 -27.487   5.227  0.00  0.00    +0.210 HD
ENDBRANCH   3  22
BRANCH   2  24
ATOM     24  O   LIG    1       26.387 -28.472   8.191  0.00  0.00    -0.341 OA
BRANCH  24  25
ATOM     25  C   LIG    1       26.428 -28.606   9.624  0.00  0.00    +0.281 C 
ATOM     26  C   LIG    1       27.649 -29.491   9.938  0.00  0.00    +0.189 C 
ATOM     27  C   LIG    1       27.773 -29.779  11.448  0.00  0.00    +0.116 C 
ATOM     28  C   LIG    1       26.410 -30.281  11.982  0.00  0.00    +0.165 C 
ATOM     29  C   LIG    1       25.199 -29.447  11.509  0.00  0.00    +0.177 C 
ATOM     30  O   LIG    1       25.228 -29.206  10.091  0.00  0.00    -0.341 OA
BRANCH  27  31
ATOM     31  N   LIG    1       28.305 -28.647  12.225  0.00  0.00    -0.323 NA
ATOM     32  H   LIG    1       28.712 -27.951  11.603  0.00  0.00    +0.119 HD
ATOM     33  H   LIG    1       27.543 -28.184  12.737  0.00  0.00    +0.119 HD
ENDBRANCH  27  31
BRANCH  26  34
ATOM     34  O   LIG    1       27.506 -30.743   9.229  0.00  0.00    -0.385 OA
ATOM     35  H   LIG    1       26.951 -30.516   8.454  0.00  0.00    +0.210 HD
ENDBRANCH  26  34
BRANCH  28  36
ATOM     36  O   LIG    1       26.217 -31.639  11.531  0.00  0.00    -0.388 OA
ATOM     37  H   LIG    1       27.095 -31.962  11.232  0.00  0.00    +0.210 HD
ENDBRANCH  28  36
BRANCH  29  38
ATOM     38  C   LIG    1       24.940 -28.155  12.310  0.00  0.00    +0.190 C 
BRANCH  38  39
ATOM     39  O   LIG    1       25.579 -28.126  13.587  0.00  0.00    -0.392 OA
ATOM     40  H   LIG    1       26.412 -28.623  13.483  0.00  0.00    +0.209 HD
ENDBRANCH  38  39
ENDBRANCH  29  38
ENDBRANCH  24  25
ENDBRANCH   2  24
BRANCH   4  41
ATOM     41  O   LIG    1       26.152 -30.065   5.522  0.00  0.00    -0.342 OA
BRANCH  41  42
ATOM     42  C   LIG    1       25.619 -31.006   6.507  0.00  0.00    +0.268 C 
ATOM     43  C   LIG    1       26.409 -32.364   6.340  0.00  0.00    +0.107 C 
ATOM     44  C   LIG    1       25.793 -33.509   7.155  0.00  0.00    +0.026 C 
ATOM     45  C   LIG    1       24.315 -33.639   6.824  0.00  0.00    +0.035 C 
ATOM     46  C   LIG    1       23.607 -32.304   7.060  0.00  0.00    +0.135 C 
ATOM     47  O   LIG    1       24.209 -31.216   6.324  0.00  0.00    -0.345 OA
BRANCH  43  48
ATOM     48  N   LIG    1       26.430 -32.775   4.915  0.00  0.00    -0.323 NA
ATOM     49  H   LIG    1       25.851 -33.599   4.768  0.00  0.00    +0.119 HD
ATOM     50  H   LIG    1       25.988 -32.018   4.386  0.00  0.00    +0.119 HD
ENDBRANCH  43  48
BRANCH  46  51
ATOM     51  C   LIG    1       23.474 -32.018   8.576  0.00  0.00    +0.109 C 
BRANCH  51  52
ATOM     52  N   LIG    1       22.988 -30.667   8.845  0.00  0.00    -0.328 NA
ATOM     53  H   LIG    1       22.224 -30.729   9.517  0.00  0.00    +0.118 HD
ATOM     54  H   LIG    1       23.719 -30.136   9.321  0.00  0.00    +0.118 HD
ENDBRANCH  51  52
ENDBRANCH  46  51
ENDBRANCH  41  42
ENDBRANCH   4  41
TORSDOF 20
ENDMDL
MODEL 5
REMARK VINA RESULT:      -4.8      2.268      5.497
REMARK  Name = *****
REMARK                            x       y       z     vdW  Elec       q    Type
REMARK                         _______ _______ _______ _____ _____    ______ ____
ROOT
ATOM      1  C   LIG    1       24.152 -30.274   8.482  0.00  0.00    +0.106 C 
ATOM      2  C   LIG    1       23.417 -31.015   9.619  0.00  0.00    +0.172 C 
ATOM      3  C   LIG    1       24.363 -32.031  10.292  0.00  0.00    +0.175 C 
ATOM      4  C   LIG    1       25.614 -31.386  10.933  0.00  0.00    +0.169 C 
ATOM      5  C   LIG    1       26.172 -30.117  10.140  0.00  0.00    +0.084 C 
ATOM      6  C   LIG    1       25.243 -29.409   9.118  0.00  0.00    +0.046 C 
ENDROOT
BRANCH   1   8
ATOM      7  C   LIG    1       24.079 -31.031   6.133  0.00  0.00    +0.242 C 
ATOM      8  N   LIG    1       24.629 -31.122   7.400  0.00  0.00    -0.308 N 
ATOM      9  H   LIG    1       25.117 -31.989   7.651  0.00  0.00    +0.149 HD
ATOM     10  O   LIG    1       23.285 -30.172   5.812  0.00  0.00    -0.273 OA
BRANCH   7  11
ATOM     11  C   LIG    1       24.563 -32.124   5.151  0.00  0.00    +0.201 C 
BRANCH  11  12
ATOM     12  O   LIG    1       25.467 -31.621   4.173  0.00  0.00    -0.383 OA
ATOM     13  H   LIG    1       26.356 -31.941   4.418  0.00  0.00    +0.210 HD
ENDBRANCH  11  12
BRANCH  11  14
ATOM     14  C   LIG    1       25.231 -33.235   5.962  0.00  0.00    +0.056 C 
BRANCH  14  15
ATOM     15  C   LIG    1       26.742 -33.248   5.770  0.00  0.00    +0.080 C 
BRANCH  15  16
ATOM     16  N   LIG    1       27.366 -32.321   6.710  0.00  0.00    -0.330 NA
ATOM     17  H   LIG    1       27.064 -31.369   6.512  0.00  0.00    +0.118 HD
ATOM     18  H   LIG    1       27.054 -32.539   7.655  0.00  0.00    +0.118 HD
ENDBRANCH  15  16
ENDBRANCH  14  15
ENDBRANCH  11  14
ENDBRANCH   7  11
ENDBRANCH   1   8
BRANCH   5  19
ATOM     19  N   LIG    1       27.434 -30.414   9.417  0.00  0.00    -0.325 NA
ATOM     20  H   LIG    1       27.670 -31.395   9.585  0.00  0.00    +0.118 HD
ATOM     21  H   LIG    1       28.203 -29.896   9.850  0.00  0.00    +0.118 HD
ENDBRANCH   5  19
BRANCH   3  22
ATOM     22  O   LIG    1       24.766 -33.065   9.387  0.00  0.00    -0.387 OA
ATOM     23  H   LIG    1       24.612 -33.918   9.827  0.00  0.00    +0.210 HD
ENDBRANCH   3  22
BRANCH   2  24
ATOM     24  O   LIG    1       22.936 -30.121  10.649  0.00  0.00    -0.341 OA
BRANCH  24  25
ATOM     25  C   LIG    1       21.576 -30.350  11.058  0.00  0.00    +0.281 C 
ATOM     26  C   LIG    1       21.575 -30.298  12.598  0.00  0.00    +0.189 C 
ATOM     27  C   LIG    1       20.180 -30.600  13.181  0.00  0.00    +0.116 C 
ATOM     28  C   LIG    1       19.636 -31.900  12.542  0.00  0.00    +0.165 C 
ATOM     29  C   LIG    1       19.802 -31.970  11.008  0.00  0.00    +0.177 C 
ATOM     30  O   LIG    1       21.132 -31.615  10.591  0.00  0.00    -0.341 OA
BRANCH  27  31
ATOM     31  N   LIG    1       19.236 -29.476  13.072  0.00  0.00    -0.323 NA
ATOM     32  H   LIG    1       19.635 -28.733  12.500  0.00  0.00    +0.119 HD
ATOM     33  H   LIG    1       18.374 -29.785  12.606  0.00  0.00    +0.119 HD
ENDBRANCH  27  31
BRANCH  26  34
ATOM     34  O   LIG    1       22.517 -31.277  13.093  0.00  0.00    -0.385 OA
ATOM     35  H   LIG    1       22.429 -32.028  12.469  0.00  0.00    +0.210 HD
ENDBRANCH  26  34
BRANCH  28  36
ATOM     36  O   LIG    1       20.344 -33.021  13.116  0.00  0.00    -0.388 OA
ATOM     37  H   LIG    1       20.938 -32.652  13.805  0.00  0.00    +0.210 HD
ENDBRANCH  28  36
BRANCH  29  38
ATOM     38  C   LIG    1       18.724 -31.221  10.198  0.00  0.00    +0.190 C 
BRANCH  38  39
ATOM     39  O   LIG    1       17.565 -30.873  10.957  0.00  0.00    -0.392 OA
ATOM     40  H   LIG    1       17.042 -31.691  11.042  0.00  0.00    +0.209 HD
ENDBRANCH  38  39
ENDBRANCH  29  38
ENDBRANCH  24  25
ENDBRANCH   2  24
BRANCH   4  41
ATOM     41  O   LIG    1       25.397 -31.040  12.327  0.00  0.00    -0.342 OA
BRANCH  41  42
ATOM     42  C   LIG    1       25.730 -29.682  12.759  0.00  0.00    +0.268 C 
ATOM     43  C   LIG    1       27.212 -29.710  13.304  0.00  0.00    +0.107 C 
ATOM     44  C   LIG    1       27.607 -28.401  14.003  0.00  0.00    +0.026 C 
ATOM     45  C   LIG    1       26.586 -28.063  15.078  0.00  0.00    +0.035 C 
ATOM     46  C   LIG    1       25.185 -28.002  14.467  0.00  0.00    +0.135 C 
ATOM     47  O   LIG    1       24.825 -29.219  13.775  0.00  0.00    -0.345 OA
BRANCH  43  48
ATOM     48  N   LIG    1       27.382 -30.817  14.276  0.00  0.00    -0.323 NA
ATOM     49  H   LIG    1       27.978 -31.547  13.892  0.00  0.00    +0.119 HD
ATOM     50  H   LIG    1       27.887 -30.428  15.077  0.00  0.00    +0.119 HD
ENDBRANCH  43  48
BRANCH  46  51
ATOM     51  C   LIG    1       25.024 -26.732  13.597  0.00  0.00    +0.109 C 
BRANCH  51  52
ATOM     52  N   LIG    1       23.631 -26.309  13.484  0.00  0.00    -0.328 NA
ATOM     53  H   LIG    1       23.075 -27.113  13.192  0.00  0.00    +0.118 HD
ATOM     54  H   LIG    1       23.278 -26.064  14.409  0.00  0.00    +0.118 HD
ENDBRANCH  51  52
ENDBRANCH  46  51
ENDBRANCH  41  42
ENDBRANCH   4  41
TORSDOF 20
ENDMDL
MODEL 6
REMARK VINA RESULT:      -4.7      2.349      5.190
REMARK  Name = *****
REMARK                            x       y       z     vdW  Elec       q    Type
REMARK                         _______ _______ _______ _____ _____    ______ ____
ROOT
ATOM      1  C   LIG    1       23.962 -30.425   8.521  0.00  0.00    +0.106 C 
ATOM      2  C   LIG    1       23.342 -30.995   9.814  0.00  0.00    +0.172 C 
ATOM      3  C   LIG    1       24.409 -31.762  10.623  0.00  0.00    +0.175 C 
ATOM      4  C   LIG    1       25.604 -30.885  11.064  0.00  0.00    +0.169 C 
ATOM      5  C   LIG    1       26.003 -29.750  10.015  0.00  0.00    +0.084 C 
ATOM      6  C   LIG    1       24.975 -29.350   8.923  0.00  0.00    +0.046 C 
ENDROOT
BRANCH   1   8
ATOM      7  C   LIG    1       24.047 -31.483   6.291  0.00  0.00    +0.242 C 
ATOM      8  N   LIG    1       24.492 -31.419   7.600  0.00  0.00    -0.308 N 
ATOM      9  H   LIG    1       24.928 -32.257   8.001  0.00  0.00    +0.149 HD
ATOM     10  O   LIG    1       23.312 -30.654   5.797  0.00  0.00    -0.273 OA
BRANCH   7  11
ATOM     11  C   LIG    1       24.568 -32.708   5.502  0.00  0.00    +0.201 C 
BRANCH  11  12
ATOM     12  O   LIG    1       23.704 -33.078   4.433  0.00  0.00    -0.383 OA
ATOM     13  H   LIG    1       23.481 -32.258   3.951  0.00  0.00    +0.210 HD
ENDBRANCH  11  12
BRANCH  11  14
ATOM     14  C   LIG    1       25.958 -32.373   4.961  0.00  0.00    +0.056 C 
BRANCH  14  15
ATOM     15  C   LIG    1       27.059 -33.056   5.763  0.00  0.00    +0.080 C 
BRANCH  15  16
ATOM     16  N   LIG    1       27.358 -32.272   6.957  0.00  0.00    -0.330 NA
ATOM     17  H   LIG    1       28.366 -32.180   7.071  0.00  0.00    +0.118 HD
ATOM     18  H   LIG    1       26.988 -31.330   6.842  0.00  0.00    +0.118 HD
ENDBRANCH  15  16
ENDBRANCH  14  15
ENDBRANCH  11  14
ENDBRANCH   7  11
ENDBRANCH   1   8
BRANCH   5  19
ATOM     19  N   LIG    1       27.267 -30.061   9.301  0.00  0.00    -0.325 NA
ATOM     20  H   LIG    1       28.039 -29.945   9.962  0.00  0.00    +0.118 HD
ATOM     21  H   LIG    1       27.440 -29.346   8.590  0.00  0.00    +0.118 HD
ENDBRANCH   5  19
BRANCH   3  22
ATOM     22  O   LIG    1       24.890 -32.910   9.916  0.00  0.00    -0.387 OA
ATOM     23  H   LIG    1       24.566 -32.851   9.002  0.00  0.00    +0.210 HD
ENDBRANCH   3  22
BRANCH   2  24
ATOM     24  O   LIG    1       22.802 -29.966  10.674  0.00  0.00    -0.341 OA
BRANCH  24  25
ATOM     25  C   LIG    1       22.215 -30.450  11.896  0.00  0.00    +0.281 C 
ATOM     26  C   LIG    1       20.854 -31.059  11.509  0.00  0.00    +0.189 C 
ATOM     27  C   LIG    1       20.078 -31.558  12.744  0.00  0.00    +0.116 C 
ATOM     28  C   LIG    1       20.044 -30.435  13.808  0.00  0.00    +0.165 C 
ATOM     29  C   LIG    1       21.407 -29.749  14.048  0.00  0.00    +0.177 C 
ATOM     30  O   LIG    1       22.052 -29.380  12.816  0.00  0.00    -0.341 OA
BRANCH  27  31
ATOM     31  N   LIG    1       20.576 -32.835  13.281  0.00  0.00    -0.323 NA
ATOM     32  H   LIG    1       20.122 -33.617  12.813  0.00  0.00    +0.119 HD
ATOM     33  H   LIG    1       21.585 -32.921  13.102  0.00  0.00    +0.119 HD
ENDBRANCH  27  31
BRANCH  26  34
ATOM     34  O   LIG    1       20.071 -30.048  10.835  0.00  0.00    -0.385 OA
ATOM     35  H   LIG    1       19.182 -30.125  11.241  0.00  0.00    +0.210 HD
ENDBRANCH  26  34
BRANCH  28  36
ATOM     36  O   LIG    1       19.109 -29.424  13.373  0.00  0.00    -0.388 OA
ATOM     37  H   LIG    1       18.382 -29.896  12.912  0.00  0.00    +0.210 HD
ENDBRANCH  28  36
BRANCH  29  38
ATOM     38  C   LIG    1       22.362 -30.502  14.996  0.00  0.00    +0.190 C 
BRANCH  38  39
ATOM     39  O   LIG    1       23.701 -30.005  14.986  0.00  0.00    -0.392 OA
ATOM     40  H   LIG    1       24.247 -30.710  14.592  0.00  0.00    +0.209 HD
ENDBRANCH  38  39
ENDBRANCH  29  38
ENDBRANCH  24  25
ENDBRANCH   2  24
BRANCH   4  41
ATOM     41  O   LIG    1       25.393 -30.294  12.374  0.00  0.00    -0.342 OA
BRANCH  41  42
ATOM     42  C   LIG    1       26.165 -29.101  12.723  0.00  0.00    +0.268 C 
ATOM     43  C   LIG    1       27.303 -29.549  13.722  0.00  0.00    +0.107 C 
ATOM     44  C   LIG    1       28.042 -28.357  14.347  0.00  0.00    +0.026 C 
ATOM     45  C   LIG    1       27.039 -27.405  14.979  0.00  0.00    +0.035 C 
ATOM     46  C   LIG    1       26.002 -26.974  13.941  0.00  0.00    +0.135 C 
ATOM     47  O   LIG    1       25.332 -28.095  13.323  0.00  0.00    -0.345 OA
BRANCH  43  48
ATOM     48  N   LIG    1       26.732 -30.362  14.822  0.00  0.00    -0.323 NA
ATOM     49  H   LIG    1       27.235 -31.241  14.922  0.00  0.00    +0.119 HD
ATOM     50  H   LIG    1       26.896 -29.839  15.687  0.00  0.00    +0.119 HD
ENDBRANCH  43  48
BRANCH  46  51
ATOM     51  C   LIG    1       26.628 -25.994  12.919  0.00  0.00    +0.109 C 
BRANCH  51  52
ATOM     52  N   LIG    1       27.290 -24.865  13.567  0.00  0.00    -0.328 NA
ATOM     53  H   LIG    1       26.917 -24.003  13.169  0.00  0.00    +0.118 HD
ATOM     54  H   LIG    1       27.024 -24.840  14.552  0.00  0.00    +0.118 HD
ENDBRANCH  51  52
ENDBRANCH  46  51
ENDBRANCH  41  42
ENDBRANCH   4  41
TORSDOF 20
ENDMDL
MODEL 7
REMARK VINA RESULT:      -4.7      4.004      7.631
REMARK  Name = *****
REMARK                            x       y       z     vdW  Elec       q    Type
REMARK                         _______ _______ _______ _____ _____    ______ ____
ROOT
ATOM      1  C   LIG    1       25.803 -26.158   7.024  0.00  0.00    +0.106 C 
ATOM      2  C   LIG    1       25.389 -27.521   7.618  0.00  0.00    +0.172 C 
ATOM      3  C   LIG    1       24.659 -28.366   6.553  0.00  0.00    +0.175 C 
ATOM      4  C   LIG    1       25.521 -28.678   5.308  0.00  0.00    +0.169 C 
ATOM      5  C   LIG    1       26.531 -27.508   4.904  0.00  0.00    +0.084 C 
ATOM      6  C   LIG    1       26.866 -26.417   5.955  0.00  0.00    +0.046 C 
ENDROOT
BRANCH   1   8
ATOM      7  C   LIG    1       24.700 -23.959   6.807  0.00  0.00    +0.242 C 
ATOM      8  N   LIG    1       24.701 -25.323   6.570  0.00  0.00    -0.308 N 
ATOM      9  H   LIG    1       23.801 -25.779   6.382  0.00  0.00    +0.149 HD
ATOM     10  O   LIG    1       25.648 -23.363   7.271  0.00  0.00    -0.273 OA
BRANCH   7  11
ATOM     11  C   LIG    1       23.377 -23.250   6.428  0.00  0.00    +0.201 C 
BRANCH  11  12
ATOM     12  O   LIG    1       22.227 -24.012   6.780  0.00  0.00    -0.383 OA
ATOM     13  H   LIG    1       21.451 -23.443   6.620  0.00  0.00    +0.210 HD
ENDBRANCH  11  12
BRANCH  11  14
ATOM     14  C   LIG    1       23.344 -21.893   7.132  0.00  0.00    +0.056 C 
BRANCH  14  15
ATOM     15  C   LIG    1       22.982 -20.765   6.173  0.00  0.00    +0.080 C 
BRANCH  15  16
ATOM     16  N   LIG    1       22.267 -21.307   5.023  0.00  0.00    -0.330 NA
ATOM     17  H   LIG    1       21.508 -20.683   4.758  0.00  0.00    +0.118 HD
ATOM     18  H   LIG    1       22.899 -21.356   4.225  0.00  0.00    +0.118 HD
ENDBRANCH  15  16
ENDBRANCH  14  15
ENDBRANCH  11  14
ENDBRANCH   7  11
ENDBRANCH   1   8
BRANCH   5  19
ATOM     19  N   LIG    1       26.097 -26.787   3.681  0.00  0.00    -0.325 NA
ATOM     20  H   LIG    1       25.181 -27.151   3.408  0.00  0.00    +0.118 HD
ATOM     21  H   LIG    1       26.708 -27.043   2.901  0.00  0.00    +0.118 HD
ENDBRANCH   5  19
BRANCH   3  22
ATOM     22  O   LIG    1       23.427 -27.760   6.145  0.00  0.00    -0.387 OA
ATOM     23  H   LIG    1       22.709 -28.381   6.355  0.00  0.00    +0.210 HD
ENDBRANCH   3  22
BRANCH   2  24
ATOM     24  O   LIG    1       26.519 -28.293   8.084  0.00  0.00    -0.341 OA
BRANCH  24  25
ATOM     25  C   LIG    1       26.188 -29.354   8.999  0.00  0.00    +0.281 C 
ATOM     26  C   LIG    1       25.782 -28.672  10.319  0.00  0.00    +0.189 C 
ATOM     27  C   LIG    1       25.466 -29.702  11.422  0.00  0.00    +0.116 C 
ATOM     28  C   LIG    1       26.627 -30.722  11.509  0.00  0.00    +0.165 C 
ATOM     29  C   LIG    1       27.102 -31.260  10.141  0.00  0.00    +0.177 C 
ATOM     30  O   LIG    1       27.310 -30.203   9.187  0.00  0.00    -0.341 OA
BRANCH  27  31
ATOM     31  N   LIG    1       24.153 -30.348  11.270  0.00  0.00    -0.323 NA
ATOM     32  H   LIG    1       24.173 -31.013  10.499  0.00  0.00    +0.119 HD
ATOM     33  H   LIG    1       23.922 -30.879  12.120  0.00  0.00    +0.119 HD
ENDBRANCH  27  31
BRANCH  26  34
ATOM     34  O   LIG    1       26.872 -27.830  10.757  0.00  0.00    -0.385 OA
ATOM     35  H   LIG    1       27.618 -28.081  10.172  0.00  0.00    +0.210 HD
ENDBRANCH  26  34
BRANCH  28  36
ATOM     36  O   LIG    1       27.752 -30.078  12.147  0.00  0.00    -0.388 OA
ATOM     37  H   LIG    1       28.549 -30.340  11.637  0.00  0.00    +0.210 HD
ENDBRANCH  28  36
BRANCH  29  38
ATOM     38  C   LIG    1       26.251 -32.406   9.557  0.00  0.00    +0.190 C 
BRANCH  38  39
ATOM     39  O   LIG    1       25.459 -33.094  10.527  0.00  0.00    -0.392 OA
ATOM     40  H   LIG    1       26.064 -33.321  11.257  0.00  0.00    +0.209 HD
ENDBRANCH  38  39
ENDBRANCH  29  38
ENDBRANCH  24  25
ENDBRANCH   2  24
BRANCH   4  41
ATOM     41  O   LIG    1       26.246 -29.929   5.445  0.00  0.00    -0.342 OA
BRANCH  41  42
ATOM     42  C   LIG    1       25.561 -31.055   6.081  0.00  0.00    +0.268 C 
ATOM     43  C   LIG    1       26.195 -32.381   5.502  0.00  0.00    +0.107 C 
ATOM     44  C   LIG    1       25.412 -33.636   5.912  0.00  0.00    +0.026 C 
ATOM     45  C   LIG    1       23.946 -33.471   5.545  0.00  0.00    +0.035 C 
ATOM     46  C   LIG    1       23.388 -32.197   6.182  0.00  0.00    +0.135 C 
ATOM     47  O   LIG    1       24.146 -31.018   5.829  0.00  0.00    -0.345 OA
BRANCH  43  48
ATOM     48  N   LIG    1       26.234 -32.330   4.021  0.00  0.00    -0.323 NA
ATOM     49  H   LIG    1       25.541 -31.677   3.663  0.00  0.00    +0.119 HD
ATOM     50  H   LIG    1       27.148 -31.945   3.766  0.00  0.00    +0.119 HD
ENDBRANCH  43  48
BRANCH  46  51
ATOM     51  C   LIG    1       23.218 -32.381   7.710  0.00  0.00    +0.109 C 
BRANCH  51  52
ATOM     52  N   LIG    1       23.137 -31.105   8.416  0.00  0.00    -0.328 NA
ATOM     53  H   LIG    1       24.000 -30.976   8.944  0.00  0.00    +0.118 HD
ATOM     54  H   LIG    1       23.126 -30.344   7.736  0.00  0.00    +0.118 HD
ENDBRANCH  51  52
ENDBRANCH  46  51
ENDBRANCH  41  42
ENDBRANCH   4  41
TORSDOF 20
ENDMDL
MODEL 8
REMARK VINA RESULT:      -4.7      2.856      7.345
REMARK  Name = *****
REMARK                            x       y       z     vdW  Elec       q    Type
REMARK                         _______ _______ _______ _____ _____    ______ ____
ROOT
ATOM      1  C   LIG    1       24.801 -31.483  11.751  0.00  0.00    +0.106 C 
ATOM      2  C   LIG    1       23.920 -30.292  11.319  0.00  0.00    +0.172 C 
ATOM      3  C   LIG    1       24.729 -29.328  10.426  0.00  0.00    +0.175 C 
ATOM      4  C   LIG    1       25.251 -29.977   9.123  0.00  0.00    +0.169 C 
ATOM      5  C   LIG    1       25.651 -31.515   9.276  0.00  0.00    +0.084 C 
ATOM      6  C   LIG    1       25.119 -32.306  10.501  0.00  0.00    +0.046 C 
ENDROOT
BRANCH   1   8
ATOM      7  C   LIG    1       25.864 -30.872  13.895  0.00  0.00    +0.242 C 
ATOM      8  N   LIG    1       25.972 -31.130  12.539  0.00  0.00    -0.308 N 
ATOM      9  H   LIG    1       26.788 -30.756  12.042  0.00  0.00    +0.149 HD
ATOM     10  O   LIG    1       24.844 -31.050  14.527  0.00  0.00    -0.273 OA
BRANCH   7  11
ATOM     11  C   LIG    1       27.160 -30.331  14.544  0.00  0.00    +0.201 C 
BRANCH  11  12
ATOM     12  O   LIG    1       28.193 -31.308  14.600  0.00  0.00    -0.383 OA
ATOM     13  H   LIG    1       27.957 -32.007  13.961  0.00  0.00    +0.210 HD
ENDBRANCH  11  12
BRANCH  11  14
ATOM     14  C   LIG    1       27.628 -29.118  13.739  0.00  0.00    +0.056 C 
BRANCH  14  15
ATOM     15  C   LIG    1       28.901 -29.413  12.956  0.00  0.00    +0.080 C 
BRANCH  15  16
ATOM     16  N   LIG    1       28.560 -29.810  11.594  0.00  0.00    -0.330 NA
ATOM     17  H   LIG    1       29.331 -29.596  10.964  0.00  0.00    +0.118 HD
ATOM     18  H   LIG    1       28.424 -30.819  11.561  0.00  0.00    +0.118 HD
ENDBRANCH  15  16
ENDBRANCH  14  15
ENDBRANCH  11  14
ENDBRANCH   7  11
ENDBRANCH   1   8
BRANCH   5  19
ATOM     19  N   LIG    1       27.121 -31.719   9.257  0.00  0.00    -0.325 NA
ATOM     20  H   LIG    1       27.549 -30.896   8.827  0.00  0.00    +0.118 HD
ATOM     21  H   LIG    1       27.351 -32.482   8.614  0.00  0.00    +0.118 HD
ENDBRANCH   5  19
BRANCH   3  22
ATOM     22  O   LIG    1       25.821 -28.732  11.136  0.00  0.00    -0.387 OA
ATOM     23  H   LIG    1       26.141 -27.981  10.609  0.00  0.00    +0.210 HD
ENDBRANCH   3  22
BRANCH   2  24
ATOM     24  O   LIG    1       22.754 -30.702  10.569  0.00  0.00    -0.341 OA
BRANCH  24  25
ATOM     25  C   LIG    1       21.818 -31.511  11.306  0.00  0.00    +0.281 C 
ATOM     26  C   LIG    1       20.541 -31.580  10.447  0.00  0.00    +0.189 C 
ATOM     27  C   LIG    1       19.418 -32.365  11.154  0.00  0.00    +0.116 C 
ATOM     28  C   LIG    1       19.245 -31.817  12.591  0.00  0.00    +0.165 C 
ATOM     29  C   LIG    1       20.572 -31.618  13.357  0.00  0.00    +0.177 C 
ATOM     30  O   LIG    1       21.552 -30.919  12.569  0.00  0.00    -0.341 OA
BRANCH  27  31
ATOM     31  N   LIG    1       19.604 -33.825  11.122  0.00  0.00    -0.323 NA
ATOM     32  H   LIG    1       18.704 -34.297  11.167  0.00  0.00    +0.119 HD
ATOM     33  H   LIG    1       20.047 -34.102  10.237  0.00  0.00    +0.119 HD
ENDBRANCH  27  31
BRANCH  26  34
ATOM     34  O   LIG    1       20.085 -30.233  10.188  0.00  0.00    -0.385 OA
ATOM     35  H   LIG    1       19.908 -30.223   9.223  0.00  0.00    +0.210 HD
ENDBRANCH  26  34
BRANCH  28  36
ATOM     36  O   LIG    1       18.582 -30.536  12.514  0.00  0.00    -0.388 OA
ATOM     37  H   LIG    1       17.964 -30.588  11.753  0.00  0.00    +0.210 HD
ENDBRANCH  28  36
BRANCH  29  38
ATOM     38  C   LIG    1       21.152 -32.892  14.004  0.00  0.00    +0.190 C 
BRANCH  38  39
ATOM     39  O   LIG    1       22.471 -32.727  14.528  0.00  0.00    -0.392 OA
ATOM     40  H   LIG    1       22.735 -31.814  14.313  0.00  0.00    +0.209 HD
ENDBRANCH  38  39
ENDBRANCH  29  38
ENDBRANCH  24  25
ENDBRANCH   2  24
BRANCH   4  41
ATOM     41  O   LIG    1       24.317 -29.818   8.022  0.00  0.00    -0.342 OA
BRANCH  41  42
ATOM     42  C   LIG    1       24.483 -28.663   7.140  0.00  0.00    +0.268 C 
ATOM     43  C   LIG    1       24.646 -29.211   5.668  0.00  0.00    +0.107 C 
ATOM     44  C   LIG    1       25.059 -28.116   4.674  0.00  0.00    +0.026 C 
ATOM     45  C   LIG    1       26.301 -27.402   5.181  0.00  0.00    +0.035 C 
ATOM     46  C   LIG    1       26.051 -26.854   6.587  0.00  0.00    +0.135 C 
ATOM     47  O   LIG    1       25.625 -27.875   7.517  0.00  0.00    -0.345 OA
BRANCH  43  48
ATOM     48  N   LIG    1       25.675 -30.278   5.627  0.00  0.00    -0.323 NA
ATOM     49  H   LIG    1       26.397 -30.058   4.945  0.00  0.00    +0.119 HD
ATOM     50  H   LIG    1       26.135 -30.276   6.541  0.00  0.00    +0.119 HD
ENDBRANCH  43  48
BRANCH  46  51
ATOM     51  C   LIG    1       25.097 -25.636   6.536  0.00  0.00    +0.109 C 
BRANCH  51  52
ATOM     52  N   LIG    1       25.516 -24.644   5.548  0.00  0.00    -0.328 NA
ATOM     53  H   LIG    1       25.099 -23.748   5.797  0.00  0.00    +0.118 HD
ATOM     54  H   LIG    1       26.524 -24.499   5.626  0.00  0.00    +0.118 HD
ENDBRANCH  51  52
ENDBRANCH  46  51
ENDBRANCH  41  42
ENDBRANCH   4  41
TORSDOF 20
ENDMDL
MODEL 9
REMARK VINA RESULT:      -4.6      2.334      5.197
REMARK  Name = *****
REMARK                            x       y       z     vdW  Elec       q    Type
REMARK                         _______ _______ _______ _____ _____    ______ ____
ROOT
ATOM      1  C   LIG    1       23.616 -31.279   8.713  0.00  0.00    +0.106 C 
ATOM      2  C   LIG    1       23.457 -32.033  10.050  0.00  0.00    +0.172 C 
ATOM      3  C   LIG    1       24.837 -32.247  10.708  0.00  0.00    +0.175 C 
ATOM      4  C   LIG    1       25.580 -30.931  11.037  0.00  0.00    +0.169 C 
ATOM      5  C   LIG    1       25.326 -29.758   9.984  0.00  0.00    +0.084 C 
ATOM      6  C   LIG    1       24.107 -29.864   9.030  0.00  0.00    +0.046 C 
ENDROOT
BRANCH   1   8
ATOM      7  C   LIG    1       24.115 -31.844   6.361  0.00  0.00    +0.242 C 
ATOM      8  N   LIG    1       24.412 -31.968   7.708  0.00  0.00    -0.308 N 
ATOM      9  H   LIG    1       24.959 -32.782   8.007  0.00  0.00    +0.149 HD
ATOM     10  O   LIG    1       23.286 -31.071   5.930  0.00  0.00    -0.273 OA
BRANCH   7  11
ATOM     11  C   LIG    1       24.933 -32.782   5.442  0.00  0.00    +0.201 C 
BRANCH  11  12
ATOM     12  O   LIG    1       24.339 -32.946   4.158  0.00  0.00    -0.383 OA
ATOM     13  H   LIG    1       23.595 -32.316   4.109  0.00  0.00    +0.210 HD
ENDBRANCH  11  12
BRANCH  11  14
ATOM     14  C   LIG    1       26.341 -32.204   5.300  0.00  0.00    +0.056 C 
BRANCH  14  15
ATOM     15  C   LIG    1       27.385 -33.076   5.987  0.00  0.00    +0.080 C 
BRANCH  15  16
ATOM     16  N   LIG    1       27.413 -32.777   7.415  0.00  0.00    -0.330 NA
ATOM     17  H   LIG    1       26.631 -33.232   7.882  0.00  0.00    +0.118 HD
ATOM     18  H   LIG    1       28.264 -33.161   7.823  0.00  0.00    +0.118 HD
ENDBRANCH  15  16
ENDBRANCH  14  15
ENDBRANCH  11  14
ENDBRANCH   7  11
ENDBRANCH   1   8
BRANCH   5  19
ATOM     19  N   LIG    1       26.507 -29.508   9.121  0.00  0.00    -0.325 NA
ATOM     20  H   LIG    1       27.171 -30.272   9.267  0.00  0.00    +0.118 HD
ATOM     21  H   LIG    1       27.005 -28.680   9.458  0.00  0.00    +0.118 HD
ENDBRANCH   5  19
BRANCH   3  22
ATOM     22  O   LIG    1       25.680 -33.090   9.916  0.00  0.00    -0.387 OA
ATOM     23  H   LIG    1       25.902 -33.871  10.449  0.00  0.00    +0.210 HD
ENDBRANCH   3  22
BRANCH   2  24
ATOM     24  O   LIG    1       22.631 -31.319  10.998  0.00  0.00    -0.341 OA
BRANCH  24  25
ATOM     25  C   LIG    1       21.456 -32.031  11.428  0.00  0.00    +0.281 C 
ATOM     26  C   LIG    1       20.364 -31.728  10.383  0.00  0.00    +0.189 C 
ATOM     27  C   LIG    1       19.017 -32.376  10.759  0.00  0.00    +0.116 C 
ATOM     28  C   LIG    1       18.676 -32.020  12.226  0.00  0.00    +0.165 C 
ATOM     29  C   LIG    1       19.853 -32.193  13.211  0.00  0.00    +0.177 C 
ATOM     30  O   LIG    1       21.063 -31.589  12.719  0.00  0.00    -0.341 OA
BRANCH  27  31
ATOM     31  N   LIG    1       18.963 -33.824  10.499  0.00  0.00    -0.323 NA
ATOM     32  H   LIG    1       18.467 -34.009   9.630  0.00  0.00    +0.119 HD
ATOM     33  H   LIG    1       19.914 -34.196  10.389  0.00  0.00    +0.119 HD
ENDBRANCH  27  31
BRANCH  26  34
ATOM     34  O   LIG    1       20.192 -30.295  10.298  0.00  0.00    -0.385 OA
ATOM     35  H   LIG    1       19.518 -30.095  10.981  0.00  0.00    +0.210 HD
ENDBRANCH  26  34
BRANCH  28  36
ATOM     36  O   LIG    1       18.258 -30.638  12.273  0.00  0.00    -0.388 OA
ATOM     37  H   LIG    1       17.276 -30.642  12.257  0.00  0.00    +0.210 HD
ENDBRANCH  28  36
BRANCH  29  38
ATOM     38  C   LIG    1       20.087 -33.635  13.705  0.00  0.00    +0.190 C 
BRANCH  38  39
ATOM     39  O   LIG    1       21.219 -33.778  14.564  0.00  0.00    -0.392 OA
ATOM     40  H   LIG    1       21.157 -34.672  14.946  0.00  0.00    +0.209 HD
ENDBRANCH  38  39
ENDBRANCH  29  38
ENDBRANCH  24  25
ENDBRANCH   2  24
BRANCH   4  41
ATOM     41  O   LIG    1       25.290 -30.460  12.379  0.00  0.00    -0.342 OA
BRANCH  41  42
ATOM     42  C   LIG    1       24.450 -29.271  12.525  0.00  0.00    +0.268 C 
ATOM     43  C   LIG    1       25.384 -28.088  12.999  0.00  0.00    +0.107 C 
ATOM     44  C   LIG    1       24.591 -26.841  13.413  0.00  0.00    +0.026 C 
ATOM     45  C   LIG    1       23.542 -27.218  14.447  0.00  0.00    +0.035 C 
ATOM     46  C   LIG    1       22.644 -28.329  13.899  0.00  0.00    +0.135 C 
ATOM     47  O   LIG    1       23.391 -29.490  13.473  0.00  0.00    -0.345 OA
BRANCH  43  48
ATOM     48  N   LIG    1       26.206 -28.513  14.157  0.00  0.00    -0.323 NA
ATOM     49  H   LIG    1       26.316 -29.525  14.171  0.00  0.00    +0.119 HD
ATOM     50  H   LIG    1       27.142 -28.126  14.009  0.00  0.00    +0.119 HD
ENDBRANCH  43  48
BRANCH  46  51
ATOM     51  C   LIG    1       21.696 -27.775  12.808  0.00  0.00    +0.109 C 
BRANCH  51  52
ATOM     52  N   LIG    1       20.498 -28.596  12.646  0.00  0.00    -0.328 NA
ATOM     53  H   LIG    1       19.906 -28.465  13.465  0.00  0.00    +0.118 HD
ATOM     54  H   LIG    1       19.950 -28.240  11.862  0.00  0.00    +0.118 HD
ENDBRANCH  51  52
ENDBRANCH  46  51
ENDBRANCH  41  42
ENDBRANCH   4  41
TORSDOF 20
ENDMDL
