MODEL 1
REMARK VINA RESULT:      -8.9      0.000      0.000
REMARK  Name = *****
REMARK                            x       y       z     vdW  Elec       q    Type
REMARK                         _______ _______ _______ _____ _____    ______ ____
ROOT
ATOM      1  C   LIG    1       31.387 -19.460   7.416  0.00  0.00    +0.044 C 
ATOM      2  C   LIG    1       30.009 -19.969   7.095  0.00  0.00    -0.045 A 
ATOM      3  C   LIG    1       29.475 -21.089   7.748  0.00  0.00    -0.045 A 
ATOM      4  C   LIG    1       30.254 -21.840   8.795  0.00  0.00    +0.044 C 
ATOM      5  C   LIG    1       28.170 -21.511   7.440  0.00  0.00    +0.031 A 
ATOM      6  C   LIG    1       27.378 -20.872   6.473  0.00  0.00    +0.069 A 
ATOM      7  C   LIG    1       27.936 -19.751   5.813  0.00  0.00    +0.089 A 
ATOM      8  N   LIG    1       27.243 -19.019   4.829  0.00  0.00    -0.237 NA
ATOM      9  C   LIG    1       26.012 -19.344   4.580  0.00  0.00    +0.171 A 
ATOM     10  C   LIG    1       25.304 -20.453   5.325  0.00  0.00    +0.171 A 
ATOM     11  N   LIG    1       24.016 -20.559   5.190  0.00  0.00    -0.173 NA
ATOM     12  C   LIG    1       23.305 -19.647   4.460  0.00  0.00    +0.350 C 
ATOM     13  O   LIG    1       22.141 -19.381   4.712  0.00  0.00    -0.245 OA
ATOM     14  N   LIG    1       23.928 -18.992   3.438  0.00  0.00    -0.272 N 
ATOM     15  H   LIG    1       23.331 -18.340   2.949  0.00  0.00    +0.173 HD
ATOM     16  C   LIG    1       25.221 -18.583   3.545  0.00  0.00    +0.282 C 
ATOM     17  O   LIG    1       25.676 -17.627   2.934  0.00  0.00    -0.265 OA
ATOM     18  N   LIG    1       26.059 -21.274   6.159  0.00  0.00    -0.320 N 
ATOM     19  C   LIG    1       29.226 -19.309   6.138  0.00  0.00    +0.033 A 
ENDROOT
BRANCH  18  20
ATOM     20  C   LIG    1       25.394 -22.331   6.937  0.00  0.00    +0.158 C 
BRANCH  20  21
ATOM     21  C   LIG    1       24.917 -23.564   6.132  0.00  0.00    +0.165 C 
BRANCH  21  22
ATOM     22  O   LIG    1       24.784 -23.172   4.749  0.00  0.00    -0.387 OA
ATOM     23  H   LIG    1       24.531 -23.957   4.230  0.00  0.00    +0.210 HD
ENDBRANCH  21  22
BRANCH  21  24
ATOM     24  C   LIG    1       25.867 -24.782   6.229  0.00  0.00    +0.175 C 
BRANCH  24  25
ATOM     25  O   LIG    1       25.886 -25.323   7.552  0.00  0.00    -0.387 OA
ATOM     26  H   LIG    1       26.406 -24.690   8.090  0.00  0.00    +0.210 HD
ENDBRANCH  24  25
BRANCH  24  27
ATOM     27  C   LIG    1       25.471 -25.905   5.244  0.00  0.00    +0.172 C 
BRANCH  27  28
ATOM     28  O   LIG    1       24.045 -25.863   5.052  0.00  0.00    -0.387 OA
ATOM     29  H   LIG    1       23.891 -26.263   4.173  0.00  0.00    +0.210 HD
ENDBRANCH  27  28
BRANCH  27  30
ATOM     30  C   LIG    1       25.834 -27.294   5.786  0.00  0.00    +0.206 C 
BRANCH  30  31
ATOM     31  O   LIG    1       24.742 -27.775   6.566  0.00  0.00    -0.284 OA
BRANCH  31  32
ATOM     32  P   LIG    1       24.365 -29.325   6.450  0.00  0.00    +0.472 P 
ATOM     33  O   LIG    1       23.915 -29.975   7.713  0.00  0.00    -0.228 OA
BRANCH  32  34
ATOM     34  O   LIG    1       25.624 -30.070   5.818  0.00  0.00    -0.303 OA
ATOM     35  H   LIG    1       25.492 -30.214   4.863  0.00  0.00    +0.222 HD
ENDBRANCH  32  34
BRANCH  32  36
ATOM     36  O   LIG    1       23.257 -29.431   5.310  0.00  0.00    -0.303 OA
ATOM     37  H   LIG    1       22.890 -30.334   5.278  0.00  0.00    +0.222 HD
ENDBRANCH  32  36
ENDBRANCH  31  32
ENDBRANCH  30  31
ENDBRANCH  27  30
ENDBRANCH  24  27
ENDBRANCH  21  24
ENDBRANCH  20  21
ENDBRANCH  18  20
TORSDOF 12
ENDMDL
MODEL 2
REMARK VINA RESULT:      -8.3      1.579      2.455
REMARK  Name = *****
REMARK                            x       y       z     vdW  Elec       q    Type
REMARK                         _______ _______ _______ _____ _____    ______ ____
ROOT
ATOM      1  C   LIG    1       31.809 -18.747   7.816  0.00  0.00    +0.044 C 
ATOM      2  C   LIG    1       30.528 -19.417   7.403  0.00  0.00    -0.045 A 
ATOM      3  C   LIG    1       30.110 -20.619   7.993  0.00  0.00    -0.045 A 
ATOM      4  C   LIG    1       30.924 -21.300   9.062  0.00  0.00    +0.044 C 
ATOM      5  C   LIG    1       28.889 -21.194   7.600  0.00  0.00    +0.031 A 
ATOM      6  C   LIG    1       28.073 -20.629   6.608  0.00  0.00    +0.069 A 
ATOM      7  C   LIG    1       28.514 -19.423   6.012  0.00  0.00    +0.089 A 
ATOM      8  N   LIG    1       27.784 -18.752   5.012  0.00  0.00    -0.237 NA
ATOM      9  C   LIG    1       26.621 -19.224   4.684  0.00  0.00    +0.171 A 
ATOM     10  C   LIG    1       26.025 -20.440   5.357  0.00  0.00    +0.171 A 
ATOM     11  N   LIG    1       24.771 -20.706   5.146  0.00  0.00    -0.173 NA
ATOM     12  C   LIG    1       23.986 -19.868   4.403  0.00  0.00    +0.350 C 
ATOM     13  O   LIG    1       22.786 -19.762   4.596  0.00  0.00    -0.245 OA
ATOM     14  N   LIG    1       24.571 -19.102   3.436  0.00  0.00    -0.272 N 
ATOM     15  H   LIG    1       23.921 -18.516   2.933  0.00  0.00    +0.173 HD
ATOM     16  C   LIG    1       25.793 -18.535   3.628  0.00  0.00    +0.282 C 
ATOM     17  O   LIG    1       26.151 -17.508   3.070  0.00  0.00    -0.265 OA
ATOM     18  N   LIG    1       26.836 -21.186   6.209  0.00  0.00    -0.320 N 
ATOM     19  C   LIG    1       29.717 -18.830   6.422  0.00  0.00    +0.033 A 
ENDROOT
BRANCH  18  20
ATOM     20  C   LIG    1       26.274 -22.346   6.918  0.00  0.00    +0.158 C 
BRANCH  20  21
ATOM     21  C   LIG    1       25.305 -22.022   8.081  0.00  0.00    +0.165 C 
BRANCH  21  22
ATOM     22  O   LIG    1       25.517 -20.648   8.471  0.00  0.00    -0.387 OA
ATOM     23  H   LIG    1       26.474 -20.465   8.441  0.00  0.00    +0.210 HD
ENDBRANCH  21  22
BRANCH  21  24
ATOM     24  C   LIG    1       23.812 -22.230   7.732  0.00  0.00    +0.175 C 
BRANCH  24  25
ATOM     25  O   LIG    1       23.134 -20.980   7.579  0.00  0.00    -0.387 OA
ATOM     26  H   LIG    1       22.365 -21.165   7.001  0.00  0.00    +0.210 HD
ENDBRANCH  24  25
BRANCH  24  27
ATOM     27  C   LIG    1       23.629 -23.051   6.435  0.00  0.00    +0.172 C 
BRANCH  27  28
ATOM     28  O   LIG    1       22.371 -22.685   5.837  0.00  0.00    -0.387 OA
ATOM     29  H   LIG    1       22.479 -21.753   5.560  0.00  0.00    +0.210 HD
ENDBRANCH  27  28
BRANCH  27  30
ATOM     30  C   LIG    1       23.599 -24.559   6.714  0.00  0.00    +0.206 C 
BRANCH  30  31
ATOM     31  O   LIG    1       23.874 -25.250   5.497  0.00  0.00    -0.284 OA
BRANCH  31  32
ATOM     32  P   LIG    1       24.928 -26.452   5.541  0.00  0.00    +0.472 P 
ATOM     33  O   LIG    1       25.941 -26.461   4.449  0.00  0.00    -0.228 OA
BRANCH  32  34
ATOM     34  O   LIG    1       24.094 -27.809   5.586  0.00  0.00    -0.303 OA
ATOM     35  H   LIG    1       23.295 -27.737   5.032  0.00  0.00    +0.222 HD
ENDBRANCH  32  34
BRANCH  32  36
ATOM     36  O   LIG    1       25.617 -26.389   6.977  0.00  0.00    -0.303 OA
ATOM     37  H   LIG    1       25.760 -25.461   7.242  0.00  0.00    +0.222 HD
ENDBRANCH  32  36
ENDBRANCH  31  32
ENDBRANCH  30  31
ENDBRANCH  27  30
ENDBRANCH  24  27
ENDBRANCH  21  24
ENDBRANCH  20  21
ENDBRANCH  18  20
TORSDOF 12
ENDMDL
MODEL 3
REMARK VINA RESULT:      -7.8      4.252      6.959
REMARK  Name = *****
REMARK                            x       y       z     vdW  Elec       q    Type
REMARK                         _______ _______ _______ _____ _____    ______ ____
ROOT
ATOM      1  C   LIG    1       24.071 -28.035   6.411  0.00  0.00    +0.044 C 
ATOM      2  C   LIG    1       24.503 -26.596   6.474  0.00  0.00    -0.045 A 
ATOM      3  C   LIG    1       25.777 -26.237   6.937  0.00  0.00    -0.045 A 
ATOM      4  C   LIG    1       26.771 -27.269   7.399  0.00  0.00    +0.044 C 
ATOM      5  C   LIG    1       26.152 -24.881   6.949  0.00  0.00    +0.031 A 
ATOM      6  C   LIG    1       25.285 -23.855   6.541  0.00  0.00    +0.069 A 
ATOM      7  C   LIG    1       23.998 -24.233   6.089  0.00  0.00    +0.089 A 
ATOM      8  N   LIG    1       23.039 -23.301   5.647  0.00  0.00    -0.237 NA
ATOM      9  C   LIG    1       23.385 -22.052   5.579  0.00  0.00    +0.171 A 
ATOM     10  C   LIG    1       24.779 -21.582   5.931  0.00  0.00    +0.171 A 
ATOM     11  N   LIG    1       25.116 -20.369   5.613  0.00  0.00    -0.173 NA
ATOM     12  C   LIG    1       24.268 -19.561   4.908  0.00  0.00    +0.350 C 
ATOM     13  O   LIG    1       24.675 -18.687   4.160  0.00  0.00    -0.245 OA
ATOM     14  N   LIG    1       22.922 -19.762   5.019  0.00  0.00    -0.272 N 
ATOM     15  H   LIG    1       22.369 -19.122   4.469  0.00  0.00    +0.173 HD
ATOM     16  C   LIG    1       22.399 -21.016   5.099  0.00  0.00    +0.282 C 
ATOM     17  O   LIG    1       21.271 -21.298   4.727  0.00  0.00    -0.265 OA
ATOM     18  N   LIG    1       25.648 -22.488   6.533  0.00  0.00    -0.320 N 
ATOM     19  C   LIG    1       23.630 -25.585   6.048  0.00  0.00    +0.033 A 
ENDROOT
BRANCH  18  20
ATOM     20  C   LIG    1       27.027 -22.079   6.844  0.00  0.00    +0.158 C 
BRANCH  20  21
ATOM     21  C   LIG    1       27.276 -20.553   6.926  0.00  0.00    +0.165 C 
BRANCH  21  22
ATOM     22  O   LIG    1       27.629 -20.230   8.288  0.00  0.00    -0.387 OA
ATOM     23  H   LIG    1       26.955 -19.622   8.644  0.00  0.00    +0.210 HD
ENDBRANCH  21  22
BRANCH  21  24
ATOM     24  C   LIG    1       28.387 -20.046   5.975  0.00  0.00    +0.175 C 
BRANCH  24  25
ATOM     25  O   LIG    1       27.838 -19.308   4.881  0.00  0.00    -0.387 OA
ATOM     26  H   LIG    1       28.390 -19.536   4.103  0.00  0.00    +0.210 HD
ENDBRANCH  24  25
BRANCH  24  27
ATOM     27  C   LIG    1       29.412 -19.152   6.708  0.00  0.00    +0.172 C 
BRANCH  27  28
ATOM     28  O   LIG    1       29.827 -18.104   5.811  0.00  0.00    -0.387 OA
ATOM     29  H   LIG    1       30.141 -18.563   5.006  0.00  0.00    +0.210 HD
ENDBRANCH  27  28
BRANCH  27  30
ATOM     30  C   LIG    1       30.662 -19.939   7.123  0.00  0.00    +0.206 C 
BRANCH  30  31
ATOM     31  O   LIG    1       30.258 -21.021   7.960  0.00  0.00    -0.284 OA
BRANCH  31  32
ATOM     32  P   LIG    1       31.283 -21.522   9.082  0.00  0.00    +0.472 P 
ATOM     33  O   LIG    1       30.664 -22.037  10.335  0.00  0.00    -0.228 OA
BRANCH  32  34
ATOM     34  O   LIG    1       32.290 -20.321   9.370  0.00  0.00    -0.303 OA
ATOM     35  H   LIG    1       33.211 -20.607   9.229  0.00  0.00    +0.222 HD
ENDBRANCH  32  34
BRANCH  32  36
ATOM     36  O   LIG    1       32.202 -22.623   8.387  0.00  0.00    -0.303 OA
ATOM     37  H   LIG    1       31.844 -22.858   7.511  0.00  0.00    +0.222 HD
ENDBRANCH  32  36
ENDBRANCH  31  32
ENDBRANCH  30  31
ENDBRANCH  27  30
ENDBRANCH  24  27
ENDBRANCH  21  24
ENDBRANCH  20  21
ENDBRANCH  18  20
TORSDOF 12
ENDMDL
MODEL 4
REMARK VINA RESULT:      -7.7      4.575      7.875
REMARK  Name = *****
REMARK                            x       y       z     vdW  Elec       q    Type
REMARK                         _______ _______ _______ _____ _____    ______ ____
ROOT
ATOM      1  C   LIG    1       24.412 -28.074   5.360  0.00  0.00    +0.044 C 
ATOM      2  C   LIG    1       24.824 -26.683   5.754  0.00  0.00    -0.045 A 
ATOM      3  C   LIG    1       25.614 -26.450   6.889  0.00  0.00    -0.045 A 
ATOM      4  C   LIG    1       26.082 -27.577   7.772  0.00  0.00    +0.044 C 
ATOM      5  C   LIG    1       26.004 -25.136   7.202  0.00  0.00    +0.031 A 
ATOM      6  C   LIG    1       25.608 -24.029   6.437  0.00  0.00    +0.069 A 
ATOM      7  C   LIG    1       24.800 -24.278   5.302  0.00  0.00    +0.089 A 
ATOM      8  N   LIG    1       24.342 -23.255   4.449  0.00  0.00    -0.237 NA
ATOM      9  C   LIG    1       24.748 -22.043   4.675  0.00  0.00    +0.171 A 
ATOM     10  C   LIG    1       25.707 -21.710   5.796  0.00  0.00    +0.171 A 
ATOM     11  N   LIG    1       26.248 -20.530   5.810  0.00  0.00    -0.173 NA
ATOM     12  C   LIG    1       26.025 -19.637   4.798  0.00  0.00    +0.350 C 
ATOM     13  O   LIG    1       26.849 -18.795   4.481  0.00  0.00    -0.245 OA
ATOM     14  N   LIG    1       24.855 -19.713   4.100  0.00  0.00    -0.272 N 
ATOM     15  H   LIG    1       24.769 -19.017   3.374  0.00  0.00    +0.173 HD
ATOM     16  C   LIG    1       24.298 -20.914   3.782  0.00  0.00    +0.282 C 
ATOM     17  O   LIG    1       23.579 -21.084   2.810  0.00  0.00    -0.265 OA
ATOM     18  N   LIG    1       26.001 -22.701   6.729  0.00  0.00    -0.320 N 
ATOM     19  C   LIG    1       24.433 -25.589   4.969  0.00  0.00    +0.033 A 
ENDROOT
BRANCH  18  20
ATOM     20  C   LIG    1       26.968 -22.426   7.803  0.00  0.00    +0.158 C 
BRANCH  20  21
ATOM     21  C   LIG    1       27.457 -20.962   7.913  0.00  0.00    +0.165 C 
BRANCH  21  22
ATOM     22  O   LIG    1       26.755 -20.336   9.008  0.00  0.00    -0.387 OA
ATOM     23  H   LIG    1       26.350 -21.035   9.553  0.00  0.00    +0.210 HD
ENDBRANCH  21  22
BRANCH  21  24
ATOM     24  C   LIG    1       28.982 -20.825   8.139  0.00  0.00    +0.175 C 
BRANCH  24  25
ATOM     25  O   LIG    1       29.711 -21.779   7.363  0.00  0.00    -0.387 OA
ATOM     26  H   LIG    1       29.330 -21.735   6.461  0.00  0.00    +0.210 HD
ENDBRANCH  24  25
BRANCH  24  27
ATOM     27  C   LIG    1       29.495 -19.410   7.787  0.00  0.00    +0.172 C 
BRANCH  27  28
ATOM     28  O   LIG    1       29.027 -19.069   6.468  0.00  0.00    -0.387 OA
ATOM     29  H   LIG    1       28.532 -19.854   6.160  0.00  0.00    +0.210 HD
ENDBRANCH  27  28
BRANCH  27  30
ATOM     30  C   LIG    1       31.028 -19.346   7.775  0.00  0.00    +0.206 C 
BRANCH  30  31
ATOM     31  O   LIG    1       31.423 -17.976   7.770  0.00  0.00    -0.284 OA
BRANCH  31  32
ATOM     32  P   LIG    1       31.683 -17.267   9.180  0.00  0.00    +0.472 P 
ATOM     33  O   LIG    1       32.279 -18.132  10.236  0.00  0.00    -0.228 OA
BRANCH  32  34
ATOM     34  O   LIG    1       30.300 -16.629   9.648  0.00  0.00    -0.303 OA
ATOM     35  H   LIG    1       29.910 -16.096   8.931  0.00  0.00    +0.222 HD
ENDBRANCH  32  34
BRANCH  32  36
ATOM     36  O   LIG    1       32.599 -15.997   8.880  0.00  0.00    -0.303 OA
ATOM     37  H   LIG    1       32.148 -15.395   8.259  0.00  0.00    +0.222 HD
ENDBRANCH  32  36
ENDBRANCH  31  32
ENDBRANCH  30  31
ENDBRANCH  27  30
ENDBRANCH  24  27
ENDBRANCH  21  24
ENDBRANCH  20  21
ENDBRANCH  18  20
TORSDOF 12
ENDMDL
MODEL 5
REMARK VINA RESULT:      -6.8      5.733      8.717
REMARK  Name = *****
REMARK                            x       y       z     vdW  Elec       q    Type
REMARK                         _______ _______ _______ _____ _____    ______ ____
ROOT
ATOM      1  C   LIG    1       25.643 -13.850   2.490  0.00  0.00    +0.044 C 
ATOM      2  C   LIG    1       26.296 -15.046   3.126  0.00  0.00    -0.045 A 
ATOM      3  C   LIG    1       27.597 -14.976   3.646  0.00  0.00    -0.045 A 
ATOM      4  C   LIG    1       28.405 -13.707   3.587  0.00  0.00    +0.044 C 
ATOM      5  C   LIG    1       28.156 -16.109   4.261  0.00  0.00    +0.031 A 
ATOM      6  C   LIG    1       27.474 -17.333   4.353  0.00  0.00    +0.069 A 
ATOM      7  C   LIG    1       26.168 -17.391   3.812  0.00  0.00    +0.089 A 
ATOM      8  N   LIG    1       25.376 -18.556   3.847  0.00  0.00    -0.237 NA
ATOM      9  C   LIG    1       25.842 -19.593   4.473  0.00  0.00    +0.171 A 
ATOM     10  C   LIG    1       27.179 -19.575   5.180  0.00  0.00    +0.171 A 
ATOM     11  N   LIG    1       27.465 -20.559   5.977  0.00  0.00    -0.173 NA
ATOM     12  C   LIG    1       26.555 -21.545   6.238  0.00  0.00    +0.350 C 
ATOM     13  O   LIG    1       26.538 -22.150   7.298  0.00  0.00    -0.245 OA
ATOM     14  N   LIG    1       25.613 -21.839   5.294  0.00  0.00    -0.272 N 
ATOM     15  H   LIG    1       24.984 -22.580   5.565  0.00  0.00    +0.173 HD
ATOM     16  C   LIG    1       25.028 -20.860   4.551  0.00  0.00    +0.282 C 
ATOM     17  O   LIG    1       23.908 -20.960   4.074  0.00  0.00    -0.265 OA
ATOM     18  N   LIG    1       28.016 -18.480   4.980  0.00  0.00    -0.320 N 
ATOM     19  C   LIG    1       25.594 -16.255   3.223  0.00  0.00    +0.033 A 
ENDROOT
BRANCH  18  20
ATOM     20  C   LIG    1       29.302 -18.406   5.691  0.00  0.00    +0.158 C 
BRANCH  20  21
ATOM     21  C   LIG    1       29.365 -19.144   7.050  0.00  0.00    +0.165 C 
BRANCH  21  22
ATOM     22  O   LIG    1       30.106 -20.368   6.862  0.00  0.00    -0.387 OA
ATOM     23  H   LIG    1       30.834 -20.193   6.237  0.00  0.00    +0.210 HD
ENDBRANCH  21  22
BRANCH  21  24
ATOM     24  C   LIG    1       30.021 -18.318   8.183  0.00  0.00    +0.175 C 
BRANCH  24  25
ATOM     25  O   LIG    1       29.468 -18.654   9.458  0.00  0.00    -0.387 OA
ATOM     26  H   LIG    1       29.848 -18.008  10.090  0.00  0.00    +0.210 HD
ENDBRANCH  24  25
BRANCH  24  27
ATOM     27  C   LIG    1       31.551 -18.526   8.240  0.00  0.00    +0.172 C 
BRANCH  27  28
ATOM     28  O   LIG    1       31.818 -19.776   8.903  0.00  0.00    -0.387 OA
ATOM     29  H   LIG    1       32.791 -19.820   8.987  0.00  0.00    +0.210 HD
ENDBRANCH  27  28
BRANCH  27  30
ATOM     30  C   LIG    1       32.248 -17.413   9.033  0.00  0.00    +0.206 C 
BRANCH  30  31
ATOM     31  O   LIG    1       32.271 -17.783  10.410  0.00  0.00    -0.284 OA
BRANCH  31  32
ATOM     32  P   LIG    1       31.888 -16.668  11.491  0.00  0.00    +0.472 P 
ATOM     33  O   LIG    1       32.145 -17.033  12.912  0.00  0.00    -0.228 OA
BRANCH  32  34
ATOM     34  O   LIG    1       30.362 -16.280  11.246  0.00  0.00    -0.303 OA
ATOM     35  H   LIG    1       30.289 -15.605  10.546  0.00  0.00    +0.222 HD
ENDBRANCH  32  34
BRANCH  32  36
ATOM     36  O   LIG    1       32.681 -15.350  11.073  0.00  0.00    -0.303 OA
ATOM     37  H   LIG    1       33.492 -15.261  11.605  0.00  0.00    +0.222 HD
ENDBRANCH  32  36
ENDBRANCH  31  32
ENDBRANCH  30  31
ENDBRANCH  27  30
ENDBRANCH  24  27
ENDBRANCH  21  24
ENDBRANCH  20  21
ENDBRANCH  18  20
TORSDOF 12
ENDMDL
MODEL 6
REMARK VINA RESULT:      -6.7      8.840     10.810
REMARK  Name = *****
REMARK                            x       y       z     vdW  Elec       q    Type
REMARK                         _______ _______ _______ _____ _____    ______ ____
ROOT
ATOM      1  C   LIG    1       20.691 -27.091  12.992  0.00  0.00    +0.044 C 
ATOM      2  C   LIG    1       21.914 -27.958  12.883  0.00  0.00    -0.045 A 
ATOM      3  C   LIG    1       21.875 -29.194  12.222  0.00  0.00    -0.045 A 
ATOM      4  C   LIG    1       20.609 -29.718  11.597  0.00  0.00    +0.044 C 
ATOM      5  C   LIG    1       23.051 -29.958  12.115  0.00  0.00    +0.031 A 
ATOM      6  C   LIG    1       24.271 -29.547  12.673  0.00  0.00    +0.069 A 
ATOM      7  C   LIG    1       24.292 -28.303  13.348  0.00  0.00    +0.089 A 
ATOM      8  N   LIG    1       25.453 -27.775  13.944  0.00  0.00    -0.237 NA
ATOM      9  C   LIG    1       26.566 -28.426  13.797  0.00  0.00    +0.171 A 
ATOM     10  C   LIG    1       26.653 -29.702  12.990  0.00  0.00    +0.171 A 
ATOM     11  N   LIG    1       27.831 -30.160  12.691  0.00  0.00    -0.173 NA
ATOM     12  C   LIG    1       28.964 -29.470  13.023  0.00  0.00    +0.350 C 
ATOM     13  O   LIG    1       29.986 -29.543  12.361  0.00  0.00    -0.245 OA
ATOM     14  N   LIG    1       28.937 -28.647  14.112  0.00  0.00    -0.272 N 
ATOM     15  H   LIG    1       29.814 -28.179  14.288  0.00  0.00    +0.173 HD
ATOM     16  C   LIG    1       27.841 -27.896  14.404  0.00  0.00    +0.282 C 
ATOM     17  O   LIG    1       27.895 -26.841  15.017  0.00  0.00    -0.265 OA
ATOM     18  N   LIG    1       25.467 -30.295  12.564  0.00  0.00    -0.320 N 
ATOM     19  C   LIG    1       23.129 -27.525  13.432  0.00  0.00    +0.033 A 
ENDROOT
BRANCH  18  20
ATOM     20  C   LIG    1       25.517 -31.510  11.736  0.00  0.00    +0.158 C 
BRANCH  20  21
ATOM     21  C   LIG    1       25.861 -31.294  10.242  0.00  0.00    +0.165 C 
BRANCH  21  22
ATOM     22  O   LIG    1       27.279 -31.504  10.074  0.00  0.00    -0.387 OA
ATOM     23  H   LIG    1       27.506 -31.337   9.141  0.00  0.00    +0.210 HD
ENDBRANCH  21  22
BRANCH  21  24
ATOM     24  C   LIG    1       25.089 -32.228   9.279  0.00  0.00    +0.175 C 
BRANCH  24  25
ATOM     25  O   LIG    1       23.790 -32.542   9.788  0.00  0.00    -0.387 OA
ATOM     26  H   LIG    1       23.156 -32.086   9.196  0.00  0.00    +0.210 HD
ENDBRANCH  24  25
BRANCH  24  27
ATOM     27  C   LIG    1       24.929 -31.605   7.873  0.00  0.00    +0.172 C 
BRANCH  27  28
ATOM     28  O   LIG    1       26.209 -31.101   7.448  0.00  0.00    -0.387 OA
ATOM     29  H   LIG    1       26.692 -31.880   7.107  0.00  0.00    +0.210 HD
ENDBRANCH  27  28
BRANCH  27  30
ATOM     30  C   LIG    1       23.938 -30.434   7.877  0.00  0.00    +0.206 C 
BRANCH  30  31
ATOM     31  O   LIG    1       24.650 -29.237   7.571  0.00  0.00    -0.284 OA
BRANCH  31  32
ATOM     32  P   LIG    1       24.443 -28.594   6.121  0.00  0.00    +0.472 P 
ATOM     33  O   LIG    1       24.243 -27.118   6.094  0.00  0.00    -0.228 OA
BRANCH  32  34
ATOM     34  O   LIG    1       23.234 -29.368   5.431  0.00  0.00    -0.303 OA
ATOM     35  H   LIG    1       22.381 -29.056   5.786  0.00  0.00    +0.222 HD
ENDBRANCH  32  34
BRANCH  32  36
ATOM     36  O   LIG    1       25.708 -29.028   5.255  0.00  0.00    -0.303 OA
ATOM     37  H   LIG    1       25.583 -29.928   4.901  0.00  0.00    +0.222 HD
ENDBRANCH  32  36
ENDBRANCH  31  32
ENDBRANCH  30  31
ENDBRANCH  27  30
ENDBRANCH  24  27
ENDBRANCH  21  24
ENDBRANCH  20  21
ENDBRANCH  18  20
TORSDOF 12
ENDMDL
MODEL 7
REMARK VINA RESULT:      -6.7      8.372     10.641
REMARK  Name = *****
REMARK                            x       y       z     vdW  Elec       q    Type
REMARK                         _______ _______ _______ _____ _____    ______ ____
ROOT
ATOM      1  C   LIG    1       19.323 -31.443  10.314  0.00  0.00    +0.044 C 
ATOM      2  C   LIG    1       20.687 -31.060  10.818  0.00  0.00    -0.045 A 
ATOM      3  C   LIG    1       21.826 -31.805  10.479  0.00  0.00    -0.045 A 
ATOM      4  C   LIG    1       21.740 -33.027   9.603  0.00  0.00    +0.044 C 
ATOM      5  C   LIG    1       23.086 -31.392  10.945  0.00  0.00    +0.031 A 
ATOM      6  C   LIG    1       23.255 -30.269  11.771  0.00  0.00    +0.069 A 
ATOM      7  C   LIG    1       22.095 -29.535  12.115  0.00  0.00    +0.089 A 
ATOM      8  N   LIG    1       22.130 -28.387  12.929  0.00  0.00    -0.237 NA
ATOM      9  C   LIG    1       23.288 -27.944  13.312  0.00  0.00    +0.171 A 
ATOM     10  C   LIG    1       24.582 -28.602  12.890  0.00  0.00    +0.171 A 
ATOM     11  N   LIG    1       25.694 -27.968  13.113  0.00  0.00    -0.173 NA
ATOM     12  C   LIG    1       25.695 -26.706  13.639  0.00  0.00    +0.350 C 
ATOM     13  O   LIG    1       26.577 -25.900  13.391  0.00  0.00    -0.245 OA
ATOM     14  N   LIG    1       24.659 -26.327  14.442  0.00  0.00    -0.272 N 
ATOM     15  H   LIG    1       24.739 -25.383  14.790  0.00  0.00    +0.173 HD
ATOM     16  C   LIG    1       23.381 -26.709  14.174  0.00  0.00    +0.282 C 
ATOM     17  O   LIG    1       22.401 -26.064  14.516  0.00  0.00    -0.265 OA
ATOM     18  N   LIG    1       24.516 -29.831  12.239  0.00  0.00    -0.320 N 
ATOM     19  C   LIG    1       20.839 -29.927  11.628  0.00  0.00    +0.033 A 
ENDROOT
BRANCH  18  20
ATOM     20  C   LIG    1       25.753 -30.475  11.771  0.00  0.00    +0.158 C 
BRANCH  20  21
ATOM     21  C   LIG    1       26.665 -29.609  10.869  0.00  0.00    +0.165 C 
BRANCH  21  22
ATOM     22  O   LIG    1       27.928 -30.293  10.722  0.00  0.00    -0.387 OA
ATOM     23  H   LIG    1       28.063 -30.860  11.503  0.00  0.00    +0.210 HD
ENDBRANCH  21  22
BRANCH  21  24
ATOM     24  C   LIG    1       26.073 -29.321   9.468  0.00  0.00    +0.175 C 
BRANCH  24  25
ATOM     25  O   LIG    1       26.981 -28.560   8.667  0.00  0.00    -0.387 OA
ATOM     26  H   LIG    1       26.610 -27.654   8.634  0.00  0.00    +0.210 HD
ENDBRANCH  24  25
BRANCH  24  27
ATOM     27  C   LIG    1       25.718 -30.621   8.711  0.00  0.00    +0.172 C 
BRANCH  27  28
ATOM     28  O   LIG    1       26.818 -30.961   7.847  0.00  0.00    -0.387 OA
ATOM     29  H   LIG    1       26.501 -31.715   7.311  0.00  0.00    +0.210 HD
ENDBRANCH  27  28
BRANCH  27  30
ATOM     30  C   LIG    1       24.468 -30.448   7.838  0.00  0.00    +0.206 C 
BRANCH  30  31
ATOM     31  O   LIG    1       24.326 -29.066   7.518  0.00  0.00    -0.284 OA
BRANCH  31  32
ATOM     32  P   LIG    1       24.437 -28.639   5.981  0.00  0.00    +0.472 P 
ATOM     33  O   LIG    1       24.538 -27.175   5.725  0.00  0.00    -0.228 OA
BRANCH  32  34
ATOM     34  O   LIG    1       23.197 -29.288   5.220  0.00  0.00    -0.303 OA
ATOM     35  H   LIG    1       22.492 -28.628   5.089  0.00  0.00    +0.222 HD
ENDBRANCH  32  34
BRANCH  32  36
ATOM     36  O   LIG    1       25.692 -29.423   5.389  0.00  0.00    -0.303 OA
ATOM     37  H   LIG    1       26.411 -28.800   5.178  0.00  0.00    +0.222 HD
ENDBRANCH  32  36
ENDBRANCH  31  32
ENDBRANCH  30  31
ENDBRANCH  27  30
ENDBRANCH  24  27
ENDBRANCH  21  24
ENDBRANCH  20  21
ENDBRANCH  18  20
TORSDOF 12
ENDMDL
MODEL 8
REMARK VINA RESULT:      -6.4      7.050     11.454
REMARK  Name = *****
REMARK                            x       y       z     vdW  Elec       q    Type
REMARK                         _______ _______ _______ _____ _____    ______ ____
ROOT
ATOM      1  C   LIG    1       19.248 -32.999  12.964  0.00  0.00    +0.044 C 
ATOM      2  C   LIG    1       20.407 -32.369  12.243  0.00  0.00    -0.045 A 
ATOM      3  C   LIG    1       20.320 -32.023  10.886  0.00  0.00    -0.045 A 
ATOM      4  C   LIG    1       19.070 -32.271  10.084  0.00  0.00    +0.044 C 
ATOM      5  C   LIG    1       21.417 -31.405  10.259  0.00  0.00    +0.031 A 
ATOM      6  C   LIG    1       22.622 -31.144  10.931  0.00  0.00    +0.069 A 
ATOM      7  C   LIG    1       22.698 -31.511  12.296  0.00  0.00    +0.089 A 
ATOM      8  N   LIG    1       23.846 -31.296  13.083  0.00  0.00    -0.237 NA
ATOM      9  C   LIG    1       24.845 -30.663  12.548  0.00  0.00    +0.171 A 
ATOM     10  C   LIG    1       24.798 -30.133  11.133  0.00  0.00    +0.171 A 
ATOM     11  N   LIG    1       25.729 -29.312  10.753  0.00  0.00    -0.173 NA
ATOM     12  C   LIG    1       26.683 -28.871  11.629  0.00  0.00    +0.350 C 
ATOM     13  O   LIG    1       27.214 -27.778  11.515  0.00  0.00    -0.245 OA
ATOM     14  N   LIG    1       27.026 -29.667  12.684  0.00  0.00    -0.272 N 
ATOM     15  H   LIG    1       27.738 -29.268  13.278  0.00  0.00    +0.173 HD
ATOM     16  C   LIG    1       26.092 -30.396  13.353  0.00  0.00    +0.282 C 
ATOM     17  O   LIG    1       26.208 -30.721  14.524  0.00  0.00    -0.265 OA
ATOM     18  N   LIG    1       23.731 -30.512  10.321  0.00  0.00    -0.320 N 
ATOM     19  C   LIG    1       21.597 -32.100  12.933  0.00  0.00    +0.033 A 
ENDROOT
BRANCH  18  20
ATOM     20  C   LIG    1       23.628 -29.976   8.955  0.00  0.00    +0.158 C 
BRANCH  20  21
ATOM     21  C   LIG    1       24.426 -30.736   7.869  0.00  0.00    +0.165 C 
BRANCH  21  22
ATOM     22  O   LIG    1       23.511 -31.601   7.164  0.00  0.00    -0.387 OA
ATOM     23  H   LIG    1       23.397 -32.418   7.685  0.00  0.00    +0.210 HD
ENDBRANCH  21  22
BRANCH  21  24
ATOM     24  C   LIG    1       25.142 -29.813   6.854  0.00  0.00    +0.175 C 
BRANCH  24  25
ATOM     25  O   LIG    1       25.665 -30.559   5.752  0.00  0.00    -0.387 OA
ATOM     26  H   LIG    1       26.088 -31.351   6.144  0.00  0.00    +0.210 HD
ENDBRANCH  24  25
BRANCH  24  27
ATOM     27  C   LIG    1       24.202 -28.716   6.305  0.00  0.00    +0.172 C 
BRANCH  27  28
ATOM     28  O   LIG    1       23.280 -29.326   5.382  0.00  0.00    -0.387 OA
ATOM     29  H   LIG    1       23.244 -28.720   4.615  0.00  0.00    +0.210 HD
ENDBRANCH  27  28
BRANCH  27  30
ATOM     30  C   LIG    1       24.975 -27.628   5.549  0.00  0.00    +0.206 C 
BRANCH  30  31
ATOM     31  O   LIG    1       24.095 -26.532   5.307  0.00  0.00    -0.284 OA
BRANCH  31  32
ATOM     32  P   LIG    1       24.503 -25.101   5.895  0.00  0.00    +0.472 P 
ATOM     33  O   LIG    1       25.641 -25.100   6.856  0.00  0.00    -0.228 OA
BRANCH  32  34
ATOM     34  O   LIG    1       23.190 -24.463   6.533  0.00  0.00    -0.303 OA
ATOM     35  H   LIG    1       22.391 -24.836   6.116  0.00  0.00    +0.222 HD
ENDBRANCH  32  34
BRANCH  32  36
ATOM     36  O   LIG    1       24.799 -24.170   4.637  0.00  0.00    -0.303 OA
ATOM     37  H   LIG    1       24.201 -23.400   4.638  0.00  0.00    +0.222 HD
ENDBRANCH  32  36
ENDBRANCH  31  32
ENDBRANCH  30  31
ENDBRANCH  27  30
ENDBRANCH  24  27
ENDBRANCH  21  24
ENDBRANCH  20  21
ENDBRANCH  18  20
TORSDOF 12
ENDMDL
MODEL 9
REMARK VINA RESULT:      -6.4      4.788      8.089
REMARK  Name = *****
REMARK                            x       y       z     vdW  Elec       q    Type
REMARK                         _______ _______ _______ _____ _____    ______ ____
ROOT
ATOM      1  C   LIG    1       24.602 -13.716   3.304  0.00  0.00    +0.044 C 
ATOM      2  C   LIG    1       24.987 -15.156   3.503  0.00  0.00    -0.045 A 
ATOM      3  C   LIG    1       26.329 -15.562   3.474  0.00  0.00    -0.045 A 
ATOM      4  C   LIG    1       27.447 -14.583   3.234  0.00  0.00    +0.044 C 
ATOM      5  C   LIG    1       26.647 -16.913   3.698  0.00  0.00    +0.031 A 
ATOM      6  C   LIG    1       25.667 -17.893   3.923  0.00  0.00    +0.069 A 
ATOM      7  C   LIG    1       24.316 -17.469   3.937  0.00  0.00    +0.089 A 
ATOM      8  N   LIG    1       23.240 -18.351   4.158  0.00  0.00    -0.237 NA
ATOM      9  C   LIG    1       23.512 -19.588   4.439  0.00  0.00    +0.171 A 
ATOM     10  C   LIG    1       24.931 -20.094   4.561  0.00  0.00    +0.171 A 
ATOM     11  N   LIG    1       25.121 -21.272   5.074  0.00  0.00    -0.173 NA
ATOM     12  C   LIG    1       24.078 -22.005   5.568  0.00  0.00    +0.350 C 
ATOM     13  O   LIG    1       24.219 -22.804   6.479  0.00  0.00    -0.245 OA
ATOM     14  N   LIG    1       22.832 -21.811   5.045  0.00  0.00    -0.272 N 
ATOM     15  H   LIG    1       22.120 -22.393   5.463  0.00  0.00    +0.173 HD
ATOM     16  C   LIG    1       22.396 -20.569   4.699  0.00  0.00    +0.282 C 
ATOM     17  O   LIG    1       21.217 -20.250   4.693  0.00  0.00    -0.265 OA
ATOM     18  N   LIG    1       25.968 -19.254   4.163  0.00  0.00    -0.320 N 
ATOM     19  C   LIG    1       23.996 -16.118   3.743  0.00  0.00    +0.033 A 
ENDROOT
BRANCH  18  20
ATOM     20  C   LIG    1       27.363 -19.696   4.314  0.00  0.00    +0.158 C 
BRANCH  20  21
ATOM     21  C   LIG    1       27.904 -19.741   5.764  0.00  0.00    +0.165 C 
BRANCH  21  22
ATOM     22  O   LIG    1       27.656 -21.061   6.293  0.00  0.00    -0.387 OA
ATOM     23  H   LIG    1       26.759 -21.335   6.027  0.00  0.00    +0.210 HD
ENDBRANCH  21  22
BRANCH  21  24
ATOM     24  C   LIG    1       29.413 -19.417   5.881  0.00  0.00    +0.175 C 
BRANCH  24  25
ATOM     25  O   LIG    1       29.665 -18.026   5.667  0.00  0.00    -0.387 OA
ATOM     26  H   LIG    1       29.952 -17.672   6.535  0.00  0.00    +0.210 HD
ENDBRANCH  24  25
BRANCH  24  27
ATOM     27  C   LIG    1       29.984 -19.814   7.261  0.00  0.00    +0.172 C 
BRANCH  27  28
ATOM     28  O   LIG    1       28.989 -19.539   8.265  0.00  0.00    -0.387 OA
ATOM     29  H   LIG    1       28.757 -20.410   8.644  0.00  0.00    +0.210 HD
ENDBRANCH  27  28
BRANCH  27  30
ATOM     30  C   LIG    1       31.242 -19.008   7.611  0.00  0.00    +0.206 C 
BRANCH  30  31
ATOM     31  O   LIG    1       30.839 -17.733   8.106  0.00  0.00    -0.284 OA
BRANCH  31  32
ATOM     32  P   LIG    1       31.606 -17.151   9.384  0.00  0.00    +0.472 P 
ATOM     33  O   LIG    1       32.335 -18.153  10.210  0.00  0.00    -0.228 OA
BRANCH  32  34
ATOM     34  O   LIG    1       30.539 -16.338  10.244  0.00  0.00    -0.303 OA
ATOM     35  H   LIG    1       30.887 -16.156  11.136  0.00  0.00    +0.222 HD
ENDBRANCH  32  34
BRANCH  32  36
ATOM     36  O   LIG    1       32.587 -16.019   8.838  0.00  0.00    -0.303 OA
ATOM     37  H   LIG    1       33.496 -16.363   8.771  0.00  0.00    +0.222 HD
ENDBRANCH  32  36
ENDBRANCH  31  32
ENDBRANCH  30  31
ENDBRANCH  27  30
ENDBRANCH  24  27
ENDBRANCH  21  24
ENDBRANCH  20  21
ENDBRANCH  18  20
TORSDOF 12
ENDMDL
