MODEL 1
REMARK VINA RESULT:      -5.1      0.000      0.000
REMARK  Name = *****
REMARK                            x       y       z     vdW  Elec       q    Type
REMARK                         _______ _______ _______ _____ _____    ______ ____
ROOT
ATOM      1  C   LIG    1       26.516 -15.590   3.315  0.00  0.00    +0.122 A 
ATOM      2  C   LIG    1       27.627 -15.064   3.982  0.00  0.00    +0.046 A 
ATOM      3  C   LIG    1       28.546 -15.902   4.643  0.00  0.00    +0.007 A 
ATOM      4  C   LIG    1       28.396 -17.296   4.631  0.00  0.00    -0.046 A 
ATOM      5  C   LIG    1       27.261 -17.814   4.003  0.00  0.00    +0.007 A 
ATOM      6  C   LIG    1       26.341 -16.971   3.349  0.00  0.00    +0.046 A 
ENDROOT
BRANCH   1   7
ATOM      7  O   LIG    1       25.715 -14.667   2.694  0.00  0.00    -0.475 OA
BRANCH   7   9
ATOM      8  C   LIG    1       23.580 -14.339   3.913  0.00  0.00    +0.067 C 
ATOM      9  C   LIG    1       24.907 -13.730   3.424  0.00  0.00    +0.200 C 
ATOM     10  C   LIG    1       25.693 -13.411   4.723  0.00  0.00    +0.067 C 
BRANCH   9  11
ATOM     11  C   LIG    1       24.680 -12.375   2.704  0.00  0.00    +0.348 C 
ATOM     12  O   LIG    1       23.710 -11.663   2.866  0.00  0.00    -0.246 OA
BRANCH  11  13
ATOM     13  O   LIG    1       25.688 -12.014   1.865  0.00  0.00    -0.478 OA
ATOM     14  H   LIG    1       26.412 -12.667   1.808  0.00  0.00    +0.295 HD
ENDBRANCH  11  13
ENDBRANCH   9  11
ENDBRANCH   7   9
ENDBRANCH   1   7
BRANCH   4  15
ATOM     15  C   LIG    1       29.407 -18.192   5.327  0.00  0.00    +0.054 C 
BRANCH  15  16
ATOM     16  C   LIG    1       29.003 -19.669   5.492  0.00  0.00    +0.109 C 
BRANCH  16  17
ATOM     17  N   LIG    1       27.574 -19.892   5.237  0.00  0.00    -0.311 N 
ATOM     18  H   LIG    1       27.145 -19.350   4.501  0.00  0.00    +0.149 HD
ATOM     19  C   LIG    1       26.778 -20.679   6.051  0.00  0.00    +0.244 C 
ATOM     20  O   LIG    1       27.207 -21.261   7.043  0.00  0.00    -0.270 OA
BRANCH  19  21
ATOM     21  C   LIG    1       25.321 -20.787   5.695  0.00  0.00    +0.037 A 
ATOM     22  C   LIG    1       24.910 -20.424   4.401  0.00  0.00    +0.014 A 
ATOM     23  C   LIG    1       23.559 -20.501   4.028  0.00  0.00    +0.021 A 
ATOM     24  C   LIG    1       22.611 -20.935   4.951  0.00  0.00    +0.041 A 
ATOM     25 CL   LIG    1       20.953 -21.034   4.500  0.00  0.00    -0.084 Cl
ATOM     26  C   LIG    1       23.001 -21.280   6.244  0.00  0.00    +0.021 A 
ATOM     27  C   LIG    1       24.350 -21.202   6.619  0.00  0.00    +0.014 A 
ENDBRANCH  19  21
ENDBRANCH  16  17
ENDBRANCH  15  16
ENDBRANCH   4  15
TORSDOF 8
ENDMDL
MODEL 2
REMARK VINA RESULT:      -4.9      1.766      2.698
REMARK  Name = *****
REMARK                            x       y       z     vdW  Elec       q    Type
REMARK                         _______ _______ _______ _____ _____    ______ ____
ROOT
ATOM      1  C   LIG    1       26.849 -16.261   3.376  0.00  0.00    +0.122 A 
ATOM      2  C   LIG    1       26.073 -17.424   3.333  0.00  0.00    +0.046 A 
ATOM      3  C   LIG    1       26.446 -18.578   4.047  0.00  0.00    +0.007 A 
ATOM      4  C   LIG    1       27.594 -18.595   4.852  0.00  0.00    -0.046 A 
ATOM      5  C   LIG    1       28.391 -17.448   4.857  0.00  0.00    +0.007 A 
ATOM      6  C   LIG    1       28.017 -16.298   4.134  0.00  0.00    +0.046 A 
ENDROOT
BRANCH   1   7
ATOM      7  O   LIG    1       26.360 -15.204   2.654  0.00  0.00    -0.475 OA
BRANCH   7   9
ATOM      8  C   LIG    1       27.655 -13.199   3.330  0.00  0.00    +0.067 C 
ATOM      9  C   LIG    1       26.278 -13.874   3.191  0.00  0.00    +0.200 C 
ATOM     10  C   LIG    1       25.535 -13.029   2.124  0.00  0.00    +0.067 C 
BRANCH   9  11
ATOM     11  C   LIG    1       25.451 -13.757   4.498  0.00  0.00    +0.348 C 
ATOM     12  O   LIG    1       24.373 -14.285   4.681  0.00  0.00    -0.246 OA
BRANCH  11  13
ATOM     13  O   LIG    1       26.047 -13.014   5.470  0.00  0.00    -0.478 OA
ATOM     14  H   LIG    1       26.999 -13.197   5.583  0.00  0.00    +0.295 HD
ENDBRANCH  11  13
ENDBRANCH   9  11
ENDBRANCH   7   9
ENDBRANCH   1   7
BRANCH   4  15
ATOM     15  C   LIG    1       27.974 -19.838   5.639  0.00  0.00    +0.054 C 
BRANCH  15  16
ATOM     16  C   LIG    1       26.827 -20.814   5.960  0.00  0.00    +0.109 C 
BRANCH  16  17
ATOM     17  N   LIG    1       25.552 -20.398   5.360  0.00  0.00    -0.311 N 
ATOM     18  H   LIG    1       25.597 -19.822   4.532  0.00  0.00    +0.149 HD
ATOM     19  C   LIG    1       24.327 -20.627   5.961  0.00  0.00    +0.244 C 
ATOM     20  O   LIG    1       24.209 -21.205   7.037  0.00  0.00    -0.270 OA
BRANCH  19  21
ATOM     21  C   LIG    1       23.104 -20.111   5.254  0.00  0.00    +0.037 A 
ATOM     22  C   LIG    1       22.057 -21.004   4.969  0.00  0.00    +0.014 A 
ATOM     23  C   LIG    1       20.902 -20.567   4.302  0.00  0.00    +0.021 A 
ATOM     24  C   LIG    1       20.791 -19.236   3.911  0.00  0.00    +0.041 A 
ATOM     25 CL   LIG    1       19.376 -18.692   3.095  0.00  0.00    -0.084 Cl
ATOM     26  C   LIG    1       21.829 -18.342   4.169  0.00  0.00    +0.021 A 
ATOM     27  C   LIG    1       22.986 -18.778   4.833  0.00  0.00    +0.014 A 
ENDBRANCH  19  21
ENDBRANCH  16  17
ENDBRANCH  15  16
ENDBRANCH   4  15
TORSDOF 8
ENDMDL
MODEL 3
REMARK VINA RESULT:      -4.9      0.867      1.683
REMARK  Name = *****
REMARK                            x       y       z     vdW  Elec       q    Type
REMARK                         _______ _______ _______ _____ _____    ______ ____
ROOT
ATOM      1  C   LIG    1       26.364 -15.568   3.200  0.00  0.00    +0.122 A 
ATOM      2  C   LIG    1       27.459 -14.990   3.850  0.00  0.00    +0.046 A 
ATOM      3  C   LIG    1       28.387 -15.778   4.558  0.00  0.00    +0.007 A 
ATOM      4  C   LIG    1       28.263 -17.173   4.613  0.00  0.00    -0.046 A 
ATOM      5  C   LIG    1       27.144 -17.742   4.002  0.00  0.00    +0.007 A 
ATOM      6  C   LIG    1       26.214 -16.950   3.301  0.00  0.00    +0.046 A 
ENDROOT
BRANCH   1   7
ATOM      7  O   LIG    1       25.551 -14.691   2.529  0.00  0.00    -0.475 OA
BRANCH   7   9
ATOM      8  C   LIG    1       26.571 -12.580   3.339  0.00  0.00    +0.067 C 
ATOM      9  C   LIG    1       25.287 -13.363   3.007  0.00  0.00    +0.200 C 
ATOM     10  C   LIG    1       24.659 -12.597   1.813  0.00  0.00    +0.067 C 
BRANCH   9  11
ATOM     11  C   LIG    1       24.259 -13.288   4.166  0.00  0.00    +0.348 C 
ATOM     12  O   LIG    1       24.056 -12.301   4.844  0.00  0.00    -0.246 OA
BRANCH  11  13
ATOM     13  O   LIG    1       23.557 -14.436   4.365  0.00  0.00    -0.478 OA
ATOM     14  H   LIG    1       22.752 -14.510   3.817  0.00  0.00    +0.295 HD
ENDBRANCH  11  13
ENDBRANCH   9  11
ENDBRANCH   7   9
ENDBRANCH   1   7
BRANCH   4  15
ATOM     15  C   LIG    1       29.284 -18.015   5.359  0.00  0.00    +0.054 C 
BRANCH  15  16
ATOM     16  C   LIG    1       28.897 -19.484   5.612  0.00  0.00    +0.109 C 
BRANCH  16  17
ATOM     17  N   LIG    1       27.483 -19.750   5.319  0.00  0.00    -0.311 N 
ATOM     18  H   LIG    1       27.046 -19.191   4.600  0.00  0.00    +0.149 HD
ATOM     19  C   LIG    1       26.703 -20.604   6.080  0.00  0.00    +0.244 C 
ATOM     20  O   LIG    1       27.137 -21.215   7.052  0.00  0.00    -0.270 OA
BRANCH  19  21
ATOM     21  C   LIG    1       25.259 -20.752   5.690  0.00  0.00    +0.037 A 
ATOM     22  C   LIG    1       24.296 -20.918   6.700  0.00  0.00    +0.014 A 
ATOM     23  C   LIG    1       22.938 -21.070   6.380  0.00  0.00    +0.021 A 
ATOM     24  C   LIG    1       22.537 -21.061   5.047  0.00  0.00    +0.041 A 
ATOM     25 CL   LIG    1       20.872 -21.243   4.647  0.00  0.00    -0.084 Cl
ATOM     26  C   LIG    1       23.482 -20.916   4.033  0.00  0.00    +0.021 A 
ATOM     27  C   LIG    1       24.840 -20.768   4.350  0.00  0.00    +0.014 A 
ENDBRANCH  19  21
ENDBRANCH  16  17
ENDBRANCH  15  16
ENDBRANCH   4  15
TORSDOF 8
ENDMDL
MODEL 4
REMARK VINA RESULT:      -4.5      3.311      7.253
REMARK  Name = *****
REMARK                            x       y       z     vdW  Elec       q    Type
REMARK                         _______ _______ _______ _____ _____    ______ ____
ROOT
ATOM      1  C   LIG    1       25.949 -20.256   6.245  0.00  0.00    +0.122 A 
ATOM      2  C   LIG    1       24.779 -20.552   6.952  0.00  0.00    +0.046 A 
ATOM      3  C   LIG    1       23.511 -20.417   6.355  0.00  0.00    +0.007 A 
ATOM      4  C   LIG    1       23.376 -20.009   5.020  0.00  0.00    -0.046 A 
ATOM      5  C   LIG    1       24.544 -19.670   4.332  0.00  0.00    +0.007 A 
ATOM      6  C   LIG    1       25.810 -19.800   4.936  0.00  0.00    +0.046 A 
ENDROOT
BRANCH   1   7
ATOM      7  O   LIG    1       27.116 -20.452   6.936  0.00  0.00    -0.475 OA
BRANCH   7   9
ATOM      8  C   LIG    1       29.449 -21.295   6.955  0.00  0.00    +0.067 C 
ATOM      9  C   LIG    1       28.407 -20.361   6.313  0.00  0.00    +0.200 C 
ATOM     10  C   LIG    1       28.225 -20.909   4.873  0.00  0.00    +0.067 C 
BRANCH   9  11
ATOM     11  C   LIG    1       28.952 -18.915   6.167  0.00  0.00    +0.348 C 
ATOM     12  O   LIG    1       29.473 -18.282   7.062  0.00  0.00    -0.246 OA
BRANCH  11  13
ATOM     13  O   LIG    1       28.822 -18.394   4.917  0.00  0.00    -0.478 OA
ATOM     14  H   LIG    1       29.533 -18.657   4.301  0.00  0.00    +0.295 HD
ENDBRANCH  11  13
ENDBRANCH   9  11
ENDBRANCH   7   9
ENDBRANCH   1   7
BRANCH   4  15
ATOM     15  C   LIG    1       22.005 -19.891   4.378  0.00  0.00    +0.054 C 
BRANCH  15  16
ATOM     16  C   LIG    1       21.504 -18.460   4.106  0.00  0.00    +0.109 C 
BRANCH  16  17
ATOM     17  N   LIG    1       22.603 -17.522   3.843  0.00  0.00    -0.311 N 
ATOM     18  H   LIG    1       23.337 -17.831   3.222  0.00  0.00    +0.149 HD
ATOM     19  C   LIG    1       22.749 -16.324   4.520  0.00  0.00    +0.244 C 
ATOM     20  O   LIG    1       21.965 -15.947   5.386  0.00  0.00    -0.270 OA
BRANCH  19  21
ATOM     21  C   LIG    1       23.944 -15.478   4.178  0.00  0.00    +0.037 A 
ATOM     22  C   LIG    1       25.106 -16.108   3.698  0.00  0.00    +0.014 A 
ATOM     23  C   LIG    1       26.248 -15.358   3.375  0.00  0.00    +0.021 A 
ATOM     24  C   LIG    1       26.236 -13.976   3.536  0.00  0.00    +0.041 A 
ATOM     25 CL   LIG    1       27.632 -13.050   3.140  0.00  0.00    -0.084 Cl
ATOM     26  C   LIG    1       25.098 -13.339   4.029  0.00  0.00    +0.021 A 
ATOM     27  C   LIG    1       23.957 -14.087   4.355  0.00  0.00    +0.014 A 
ENDBRANCH  19  21
ENDBRANCH  16  17
ENDBRANCH  15  16
ENDBRANCH   4  15
TORSDOF 8
ENDMDL
MODEL 5
REMARK VINA RESULT:      -4.4      3.018      6.434
REMARK  Name = *****
REMARK                            x       y       z     vdW  Elec       q    Type
REMARK                         _______ _______ _______ _____ _____    ______ ____
ROOT
ATOM      1  C   LIG    1       25.052 -20.797   5.813  0.00  0.00    +0.122 A 
ATOM      2  C   LIG    1       25.632 -20.238   4.670  0.00  0.00    +0.046 A 
ATOM      3  C   LIG    1       26.899 -19.625   4.720  0.00  0.00    +0.007 A 
ATOM      4  C   LIG    1       27.637 -19.578   5.911  0.00  0.00    -0.046 A 
ATOM      5  C   LIG    1       27.035 -20.097   7.059  0.00  0.00    +0.007 A 
ATOM      6  C   LIG    1       25.764 -20.702   7.006  0.00  0.00    +0.046 A 
ENDROOT
BRANCH   1   7
ATOM      7  O   LIG    1       23.827 -21.382   5.621  0.00  0.00    -0.475 OA
BRANCH   7   9
ATOM      8  C   LIG    1       23.216 -21.433   3.217  0.00  0.00    +0.067 C 
ATOM      9  C   LIG    1       22.895 -20.916   4.632  0.00  0.00    +0.200 C 
ATOM     10  C   LIG    1       21.534 -21.571   4.987  0.00  0.00    +0.067 C 
BRANCH   9  11
ATOM     11  C   LIG    1       22.660 -19.383   4.639  0.00  0.00    +0.348 C 
ATOM     12  O   LIG    1       22.333 -18.741   5.616  0.00  0.00    -0.246 OA
BRANCH  11  13
ATOM     13  O   LIG    1       22.874 -18.781   3.438  0.00  0.00    -0.478 OA
ATOM     14  H   LIG    1       22.240 -18.067   3.233  0.00  0.00    +0.295 HD
ENDBRANCH  11  13
ENDBRANCH   9  11
ENDBRANCH   7   9
ENDBRANCH   1   7
BRANCH   4  15
ATOM     15  C   LIG    1       29.013 -18.937   5.947  0.00  0.00    +0.054 C 
BRANCH  15  16
ATOM     16  C   LIG    1       29.318 -17.921   4.830  0.00  0.00    +0.109 C 
BRANCH  16  17
ATOM     17  N   LIG    1       28.441 -16.745   4.887  0.00  0.00    -0.311 N 
ATOM     18  H   LIG    1       28.501 -16.162   5.709  0.00  0.00    +0.149 HD
ATOM     19  C   LIG    1       27.448 -16.499   3.954  0.00  0.00    +0.244 C 
ATOM     20  O   LIG    1       27.231 -17.239   3.000  0.00  0.00    -0.270 OA
BRANCH  19  21
ATOM     21  C   LIG    1       26.598 -15.276   4.158  0.00  0.00    +0.037 A 
ATOM     22  C   LIG    1       25.313 -15.239   3.587  0.00  0.00    +0.014 A 
ATOM     23  C   LIG    1       24.490 -14.114   3.744  0.00  0.00    +0.021 A 
ATOM     24  C   LIG    1       24.949 -13.017   4.468  0.00  0.00    +0.041 A 
ATOM     25 CL   LIG    1       23.942 -11.634   4.667  0.00  0.00    -0.084 Cl
ATOM     26  C   LIG    1       26.227 -13.030   5.023  0.00  0.00    +0.021 A 
ATOM     27  C   LIG    1       27.053 -14.153   4.865  0.00  0.00    +0.014 A 
ENDBRANCH  19  21
ENDBRANCH  16  17
ENDBRANCH  15  16
ENDBRANCH   4  15
TORSDOF 8
ENDMDL
MODEL 6
REMARK VINA RESULT:      -3.9      2.958      4.527
REMARK  Name = *****
REMARK                            x       y       z     vdW  Elec       q    Type
REMARK                         _______ _______ _______ _____ _____    ______ ____
ROOT
ATOM      1  C   LIG    1       25.376 -14.045   3.591  0.00  0.00    +0.122 A 
ATOM      2  C   LIG    1       24.311 -13.623   4.392  0.00  0.00    +0.046 A 
ATOM      3  C   LIG    1       23.225 -14.475   4.671  0.00  0.00    +0.007 A 
ATOM      4  C   LIG    1       23.187 -15.789   4.181  0.00  0.00    -0.046 A 
ATOM      5  C   LIG    1       24.231 -16.191   3.345  0.00  0.00    +0.007 A 
ATOM      6  C   LIG    1       25.311 -15.332   3.062  0.00  0.00    +0.046 A 
ENDROOT
BRANCH   1   7
ATOM      7  O   LIG    1       26.378 -13.126   3.417  0.00  0.00    -0.475 OA
BRANCH   7   9
ATOM      8  C   LIG    1       28.255 -14.707   3.780  0.00  0.00    +0.067 C 
ATOM      9  C   LIG    1       27.686 -13.292   3.988  0.00  0.00    +0.200 C 
ATOM     10  C   LIG    1       28.628 -12.368   3.172  0.00  0.00    +0.067 C 
BRANCH   9  11
ATOM     11  C   LIG    1       27.805 -12.843   5.468  0.00  0.00    +0.348 C 
ATOM     12  O   LIG    1       27.023 -13.148   6.346  0.00  0.00    -0.246 OA
BRANCH  11  13
ATOM     13  O   LIG    1       28.896 -12.075   5.732  0.00  0.00    -0.478 OA
ATOM     14  H   LIG    1       28.716 -11.114   5.731  0.00  0.00    +0.295 HD
ENDBRANCH  11  13
ENDBRANCH   9  11
ENDBRANCH   7   9
ENDBRANCH   1   7
BRANCH   4  15
ATOM     15  C   LIG    1       22.023 -16.707   4.510  0.00  0.00    +0.054 C 
BRANCH  15  16
ATOM     16  C   LIG    1       22.270 -18.214   4.307  0.00  0.00    +0.109 C 
BRANCH  16  17
ATOM     17  N   LIG    1       23.550 -18.654   4.875  0.00  0.00    -0.311 N 
ATOM     18  H   LIG    1       24.176 -17.939   5.216  0.00  0.00    +0.149 HD
ATOM     19  C   LIG    1       23.988 -19.966   4.818  0.00  0.00    +0.244 C 
ATOM     20  O   LIG    1       23.336 -20.865   4.298  0.00  0.00    -0.270 OA
BRANCH  19  21
ATOM     21  C   LIG    1       25.339 -20.269   5.406  0.00  0.00    +0.037 A 
ATOM     22  C   LIG    1       26.480 -19.703   4.812  0.00  0.00    +0.014 A 
ATOM     23  C   LIG    1       27.761 -19.967   5.322  0.00  0.00    +0.021 A 
ATOM     24  C   LIG    1       27.906 -20.803   6.426  0.00  0.00    +0.041 A 
ATOM     25 CL   LIG    1       29.474 -21.128   7.059  0.00  0.00    -0.084 Cl
ATOM     26  C   LIG    1       26.786 -21.386   7.015  0.00  0.00    +0.021 A 
ATOM     27  C   LIG    1       25.505 -21.126   6.504  0.00  0.00    +0.014 A 
ENDBRANCH  19  21
ENDBRANCH  16  17
ENDBRANCH  15  16
ENDBRANCH   4  15
TORSDOF 8
ENDMDL
MODEL 7
REMARK VINA RESULT:      -2.3      3.370      7.289
REMARK  Name = *****
REMARK                            x       y       z     vdW  Elec       q    Type
REMARK                         _______ _______ _______ _____ _____    ______ ____
ROOT
ATOM      1  C   LIG    1       25.783 -19.990   4.550  0.00  0.00    +0.122 A 
ATOM      2  C   LIG    1       24.781 -20.457   5.406  0.00  0.00    +0.046 A 
ATOM      3  C   LIG    1       23.468 -19.953   5.336  0.00  0.00    +0.007 A 
ATOM      4  C   LIG    1       23.110 -18.986   4.385  0.00  0.00    -0.046 A 
ATOM      5  C   LIG    1       24.124 -18.490   3.563  0.00  0.00    +0.007 A 
ATOM      6  C   LIG    1       25.438 -18.992   3.642  0.00  0.00    +0.046 A 
ENDROOT
BRANCH   1   7
ATOM      7  O   LIG    1       27.010 -20.581   4.708  0.00  0.00    -0.475 OA
BRANCH   7   9
ATOM      8  C   LIG    1       27.627 -20.083   7.059  0.00  0.00    +0.067 C 
ATOM      9  C   LIG    1       28.022 -20.039   5.571  0.00  0.00    +0.200 C 
ATOM     10  C   LIG    1       29.236 -20.999   5.461  0.00  0.00    +0.067 C 
BRANCH   9  11
ATOM     11  C   LIG    1       28.536 -18.634   5.161  0.00  0.00    +0.348 C 
ATOM     12  O   LIG    1       28.146 -18.014   4.192  0.00  0.00    -0.246 OA
BRANCH  11  13
ATOM     13  O   LIG    1       29.471 -18.114   6.001  0.00  0.00    -0.478 OA
ATOM     14  H   LIG    1       30.194 -18.732   6.223  0.00  0.00    +0.295 HD
ENDBRANCH  11  13
ENDBRANCH   9  11
ENDBRANCH   7   9
ENDBRANCH   1   7
BRANCH   4  15
ATOM     15  C   LIG    1       21.685 -18.469   4.302  0.00  0.00    +0.054 C 
BRANCH  15  16
ATOM     16  C   LIG    1       21.522 -16.938   4.240  0.00  0.00    +0.109 C 
BRANCH  16  17
ATOM     17  N   LIG    1       22.786 -16.251   3.946  0.00  0.00    -0.311 N 
ATOM     18  H   LIG    1       23.413 -16.695   3.291  0.00  0.00    +0.149 HD
ATOM     19  C   LIG    1       23.210 -15.128   4.635  0.00  0.00    +0.244 C 
ATOM     20  O   LIG    1       22.558 -14.613   5.538  0.00  0.00    -0.270 OA
BRANCH  19  21
ATOM     21  C   LIG    1       24.546 -14.550   4.257  0.00  0.00    +0.037 A 
ATOM     22  C   LIG    1       25.439 -14.179   5.276  0.00  0.00    +0.014 A 
ATOM     23  C   LIG    1       26.692 -13.627   4.968  0.00  0.00    +0.021 A 
ATOM     24  C   LIG    1       27.056 -13.438   3.638  0.00  0.00    +0.041 A 
ATOM     25 CL   LIG    1       28.592 -12.764   3.252  0.00  0.00    -0.084 Cl
ATOM     26  C   LIG    1       26.173 -13.783   2.616  0.00  0.00    +0.021 A 
ATOM     27  C   LIG    1       24.919 -14.332   2.922  0.00  0.00    +0.014 A 
ENDBRANCH  19  21
ENDBRANCH  16  17
ENDBRANCH  15  16
ENDBRANCH   4  15
TORSDOF 8
ENDMDL
