MODEL 1
REMARK VINA RESULT:      -7.5      0.000      0.000
REMARK  Name = *****
REMARK                            x       y       z     vdW  Elec       q    Type
REMARK                         _______ _______ _______ _____ _____    ______ ____
ROOT
ATOM      1  C   LIG    1       29.245 -18.793   7.880  0.00  0.00    +0.061 C 
ATOM      2  C   LIG    1       28.923 -20.300   7.677  0.00  0.00    -0.019 C 
ATOM      3  C   LIG    1       30.208 -21.169   7.633  0.00  0.00    +0.012 C 
ATOM      4  C   LIG    1       28.259 -20.293   6.268  0.00  0.00    -0.001 C 
ATOM      5  C   LIG    1       26.777 -19.827   6.261  0.00  0.00    -0.003 C 
ATOM      6  C   LIG    1       25.884 -20.511   7.329  0.00  0.00    +0.002 C 
ATOM      7  C   LIG    1       26.557 -20.405   8.711  0.00  0.00    +0.005 C 
ATOM      8  C   LIG    1       25.262 -21.921   6.962  0.00  0.00    -0.007 C 
ATOM      9  C   LIG    1       24.025 -22.130   7.887  0.00  0.00    +0.016 C 
ATOM     10  C   LIG    1       24.844 -21.985   5.486  0.00  0.00    -0.060 C 
ATOM     11  C   LIG    1       24.099 -23.018   5.039  0.00  0.00    +0.046 C 
ATOM     12  C   LIG    1       24.878 -24.295   5.256  0.00  0.00    +0.156 C 
ATOM     13  O   LIG    1       24.751 -25.218   4.454  0.00  0.00    -0.293 OA
ATOM     14  C   LIG    1       25.660 -24.447   6.555  0.00  0.00    +0.080 C 
ATOM     15  C   LIG    1       25.787 -21.353   4.488  0.00  0.00    +0.032 C 
ATOM     16  C   LIG    1       26.211 -23.132   7.138  0.00  0.00    +0.019 C 
ATOM     17  C   LIG    1       26.110 -19.923   4.878  0.00  0.00    +0.008 C 
ATOM     18  C   LIG    1       29.164 -19.323   5.481  0.00  0.00    +0.005 C 
ATOM     19  C   LIG    1       28.004 -20.880   8.763  0.00  0.00    +0.008 C 
ATOM     20  C   LIG    1       29.717 -18.322   6.498  0.00  0.00    +0.012 C 
ENDROOT
BRANCH   1  22
ATOM     21  C   LIG    1       31.632 -18.072   8.590  0.00  0.00    +0.086 C 
ATOM     22  C   LIG    1       30.222 -18.424   8.998  0.00  0.00    +0.134 C 
ATOM     23  O   LIG    1       29.876 -18.310  10.175  0.00  0.00    -0.297 OA
ENDBRANCH   1  22
TORSDOF 1
ENDMDL
MODEL 2
REMARK VINA RESULT:      -6.8      1.367      6.371
REMARK  Name = *****
REMARK                            x       y       z     vdW  Elec       q    Type
REMARK                         _______ _______ _______ _____ _____    ______ ____
ROOT
ATOM      1  C   LIG    1       25.631 -22.031   6.043  0.00  0.00    +0.061 C 
ATOM      2  C   LIG    1       26.109 -21.080   7.175  0.00  0.00    -0.019 C 
ATOM      3  C   LIG    1       24.922 -20.384   7.892  0.00  0.00    +0.012 C 
ATOM      4  C   LIG    1       26.920 -20.020   6.374  0.00  0.00    -0.001 C 
ATOM      5  C   LIG    1       28.345 -20.480   5.960  0.00  0.00    -0.003 C 
ATOM      6  C   LIG    1       29.175 -21.110   7.110  0.00  0.00    +0.002 C 
ATOM      7  C   LIG    1       28.348 -22.209   7.803  0.00  0.00    +0.005 C 
ATOM      8  C   LIG    1       29.960 -20.120   8.066  0.00  0.00    -0.007 C 
ATOM      9  C   LIG    1       31.103 -20.942   8.736  0.00  0.00    +0.016 C 
ATOM     10  C   LIG    1       30.541 -18.930   7.289  0.00  0.00    -0.060 C 
ATOM     11  C   LIG    1       31.422 -18.099   7.886  0.00  0.00    +0.046 C 
ATOM     12  C   LIG    1       30.745 -17.464   9.079  0.00  0.00    +0.156 C 
ATOM     13  O   LIG    1       31.042 -16.314   9.395  0.00  0.00    -0.293 OA
ATOM     14  C   LIG    1       29.842 -18.339   9.941  0.00  0.00    +0.080 C 
ATOM     15  C   LIG    1       29.659 -18.322   6.223  0.00  0.00    +0.032 C 
ATOM     16  C   LIG    1       29.113 -19.463   9.183  0.00  0.00    +0.019 C 
ATOM     17  C   LIG    1       29.165 -19.385   5.258  0.00  0.00    +0.008 C 
ATOM     18  C   LIG    1       26.021 -19.777   5.143  0.00  0.00    +0.005 C 
ATOM     19  C   LIG    1       26.954 -21.786   8.249  0.00  0.00    +0.008 C 
ATOM     20  C   LIG    1       25.271 -21.086   4.889  0.00  0.00    +0.012 C 
ENDROOT
BRANCH   1  22
ATOM     21  C   LIG    1       24.915 -24.416   6.766  0.00  0.00    +0.086 C 
ATOM     22  C   LIG    1       24.508 -23.016   6.375  0.00  0.00    +0.134 C 
ATOM     23  O   LIG    1       23.324 -22.683   6.429  0.00  0.00    -0.297 OA
ENDBRANCH   1  22
TORSDOF 1
ENDMDL
MODEL 3
REMARK VINA RESULT:      -5.8      3.288      6.982
REMARK  Name = *****
REMARK                            x       y       z     vdW  Elec       q    Type
REMARK                         _______ _______ _______ _____ _____    ______ ____
ROOT
ATOM      1  C   LIG    1       24.995 -27.149   6.774  0.00  0.00    +0.061 C 
ATOM      2  C   LIG    1       24.991 -26.066   5.659  0.00  0.00    -0.019 C 
ATOM      3  C   LIG    1       25.480 -26.629   4.299  0.00  0.00    +0.012 C 
ATOM      4  C   LIG    1       26.040 -25.052   6.203  0.00  0.00    -0.001 C 
ATOM      5  C   LIG    1       25.505 -24.112   7.318  0.00  0.00    -0.003 C 
ATOM      6  C   LIG    1       24.146 -23.437   6.993  0.00  0.00    +0.002 C 
ATOM      7  C   LIG    1       23.131 -24.507   6.547  0.00  0.00    +0.005 C 
ATOM      8  C   LIG    1       24.184 -22.108   6.131  0.00  0.00    -0.007 C 
ATOM      9  C   LIG    1       22.849 -21.350   6.403  0.00  0.00    +0.016 C 
ATOM     10  C   LIG    1       25.385 -21.228   6.506  0.00  0.00    -0.060 C 
ATOM     11  C   LIG    1       25.466 -19.963   6.041  0.00  0.00    +0.046 C 
ATOM     12  C   LIG    1       25.503 -20.012   4.531  0.00  0.00    +0.156 C 
ATOM     13  O   LIG    1       26.153 -19.167   3.920  0.00  0.00    -0.293 OA
ATOM     14  C   LIG    1       24.594 -21.010   3.823  0.00  0.00    +0.080 C 
ATOM     15  C   LIG    1       26.694 -21.941   6.752  0.00  0.00    +0.032 C 
ATOM     16  C   LIG    1       24.326 -22.310   4.603  0.00  0.00    +0.019 C 
ATOM     17  C   LIG    1       26.523 -23.052   7.771  0.00  0.00    +0.008 C 
ATOM     18  C   LIG    1       27.157 -25.978   6.727  0.00  0.00    +0.005 C 
ATOM     19  C   LIG    1       23.611 -25.429   5.433  0.00  0.00    +0.008 C 
ATOM     20  C   LIG    1       26.474 -27.275   7.167  0.00  0.00    +0.012 C 
ENDROOT
BRANCH   1  22
ATOM     21  C   LIG    1       24.425 -29.568   7.514  0.00  0.00    +0.086 C 
ATOM     22  C   LIG    1       24.351 -28.499   6.450  0.00  0.00    +0.134 C 
ATOM     23  O   LIG    1       23.707 -28.700   5.421  0.00  0.00    -0.297 OA
ENDBRANCH   1  22
TORSDOF 1
ENDMDL
MODEL 4
REMARK VINA RESULT:      -5.7      7.944      9.839
REMARK  Name = *****
REMARK                            x       y       z     vdW  Elec       q    Type
REMARK                         _______ _______ _______ _____ _____    ______ ____
ROOT
ATOM      1  C   LIG    1       26.437 -28.098  14.180  0.00  0.00    +0.061 C 
ATOM      2  C   LIG    1       26.342 -27.699  12.681  0.00  0.00    -0.019 C 
ATOM      3  C   LIG    1       26.278 -26.160  12.492  0.00  0.00    +0.012 C 
ATOM      4  C   LIG    1       24.974 -28.323  12.276  0.00  0.00    -0.001 C 
ATOM      5  C   LIG    1       25.021 -29.854  12.015  0.00  0.00    -0.003 C 
ATOM      6  C   LIG    1       26.175 -30.312  11.085  0.00  0.00    +0.002 C 
ATOM      7  C   LIG    1       27.509 -29.731  11.593  0.00  0.00    +0.005 C 
ATOM      8  C   LIG    1       25.927 -30.227   9.523  0.00  0.00    -0.007 C 
ATOM      9  C   LIG    1       26.930 -31.211   8.847  0.00  0.00    +0.016 C 
ATOM     10  C   LIG    1       24.483 -30.603   9.162  0.00  0.00    -0.060 C 
ATOM     11  C   LIG    1       24.140 -30.802   7.871  0.00  0.00    +0.046 C 
ATOM     12  C   LIG    1       24.388 -29.520   7.109  0.00  0.00    +0.156 C 
ATOM     13  O   LIG    1       23.650 -29.229   6.171  0.00  0.00    -0.293 OA
ATOM     14  C   LIG    1       25.649 -28.727   7.431  0.00  0.00    +0.080 C 
ATOM     15  C   LIG    1       23.399 -30.076  10.073  0.00  0.00    +0.032 C 
ATOM     16  C   LIG    1       26.121 -28.826   8.893  0.00  0.00    +0.019 C 
ATOM     17  C   LIG    1       23.685 -30.434  11.520  0.00  0.00    +0.008 C 
ATOM     18  C   LIG    1       24.081 -27.981  13.488  0.00  0.00    +0.005 C 
ATOM     19  C   LIG    1       27.509 -28.226  11.833  0.00  0.00    +0.008 C 
ATOM     20  C   LIG    1       25.006 -27.925  14.705  0.00  0.00    +0.012 C 
ENDROOT
BRANCH   1  22
ATOM     21  C   LIG    1       28.817 -28.046  15.207  0.00  0.00    +0.086 C 
ATOM     22  C   LIG    1       27.476 -27.374  15.039  0.00  0.00    +0.134 C 
ATOM     23  O   LIG    1       27.291 -26.247  15.500  0.00  0.00    -0.297 OA
ENDBRANCH   1  22
TORSDOF 1
ENDMDL
MODEL 5
REMARK VINA RESULT:      -5.6      3.545      5.314
REMARK  Name = *****
REMARK                            x       y       z     vdW  Elec       q    Type
REMARK                         _______ _______ _______ _____ _____    ______ ____
ROOT
ATOM      1  C   LIG    1       23.729 -18.610   4.619  0.00  0.00    +0.061 C 
ATOM      2  C   LIG    1       24.093 -20.028   4.097  0.00  0.00    -0.019 C 
ATOM      3  C   LIG    1       23.922 -20.144   2.559  0.00  0.00    +0.012 C 
ATOM      4  C   LIG    1       23.019 -20.908   4.802  0.00  0.00    -0.001 C 
ATOM      5  C   LIG    1       23.325 -21.221   6.293  0.00  0.00    -0.003 C 
ATOM      6  C   LIG    1       24.767 -21.724   6.561  0.00  0.00    +0.002 C 
ATOM      7  C   LIG    1       25.780 -20.762   5.912  0.00  0.00    +0.005 C 
ATOM      8  C   LIG    1       25.046 -23.271   6.359  0.00  0.00    -0.007 C 
ATOM      9  C   LIG    1       26.321 -23.617   7.186  0.00  0.00    +0.016 C 
ATOM     10  C   LIG    1       23.857 -24.123   6.827  0.00  0.00    -0.060 C 
ATOM     11  C   LIG    1       23.989 -25.462   6.940  0.00  0.00    +0.046 C 
ATOM     12  C   LIG    1       24.329 -26.023   5.578  0.00  0.00    +0.156 C 
ATOM     13  O   LIG    1       23.918 -27.139   5.270  0.00  0.00    -0.293 OA
ATOM     14  C   LIG    1       25.311 -25.248   4.708  0.00  0.00    +0.080 C 
ATOM     15  C   LIG    1       22.479 -23.608   6.483  0.00  0.00    +0.032 C 
ATOM     16  C   LIG    1       25.278 -23.720   4.895  0.00  0.00    +0.019 C 
ATOM     17  C   LIG    1       22.306 -22.172   6.943  0.00  0.00    +0.008 C 
ATOM     18  C   LIG    1       21.741 -20.057   4.650  0.00  0.00    +0.005 C 
ATOM     19  C   LIG    1       25.529 -20.455   4.441  0.00  0.00    +0.008 C 
ATOM     20  C   LIG    1       22.194 -18.596   4.621  0.00  0.00    +0.012 C 
ENDROOT
BRANCH   1  22
ATOM     21  C   LIG    1       23.648 -16.078   4.070  0.00  0.00    +0.086 C 
ATOM     22  C   LIG    1       24.332 -17.411   3.885  0.00  0.00    +0.134 C 
ATOM     23  O   LIG    1       25.385 -17.479   3.250  0.00  0.00    -0.297 OA
ENDBRANCH   1  22
TORSDOF 1
ENDMDL
MODEL 6
REMARK VINA RESULT:      -5.5      8.614     11.586
REMARK  Name = *****
REMARK                            x       y       z     vdW  Elec       q    Type
REMARK                         _______ _______ _______ _____ _____    ______ ____
ROOT
ATOM      1  C   LIG    1       25.055 -31.945  10.107  0.00  0.00    +0.061 C 
ATOM      2  C   LIG    1       24.351 -30.642  10.577  0.00  0.00    -0.019 C 
ATOM      3  C   LIG    1       23.196 -30.229   9.627  0.00  0.00    +0.012 C 
ATOM      4  C   LIG    1       25.505 -29.603  10.465  0.00  0.00    -0.001 C 
ATOM      5  C   LIG    1       26.523 -29.647  11.638  0.00  0.00    -0.003 C 
ATOM      6  C   LIG    1       25.878 -29.661  13.049  0.00  0.00    +0.002 C 
ATOM      7  C   LIG    1       24.808 -30.768  13.117  0.00  0.00    +0.005 C 
ATOM      8  C   LIG    1       25.477 -28.263  13.678  0.00  0.00    -0.007 C 
ATOM      9  C   LIG    1       25.390 -28.465  15.221  0.00  0.00    +0.016 C 
ATOM     10  C   LIG    1       26.507 -27.177  13.338  0.00  0.00    -0.060 C 
ATOM     11  C   LIG    1       26.457 -25.981  13.961  0.00  0.00    +0.046 C 
ATOM     12  C   LIG    1       25.127 -25.336  13.648  0.00  0.00    +0.156 C 
ATOM     13  O   LIG    1       25.061 -24.112  13.550  0.00  0.00    -0.293 OA
ATOM     14  C   LIG    1       23.886 -26.221  13.634  0.00  0.00    +0.080 C 
ATOM     15  C   LIG    1       27.054 -27.180  11.929  0.00  0.00    +0.032 C 
ATOM     16  C   LIG    1       24.132 -27.674  13.187  0.00  0.00    +0.019 C 
ATOM     17  C   LIG    1       27.597 -28.549  11.562  0.00  0.00    +0.008 C 
ATOM     18  C   LIG    1       26.166 -29.984   9.124  0.00  0.00    +0.005 C 
ATOM     19  C   LIG    1       23.774 -30.738  11.999  0.00  0.00    +0.008 C 
ATOM     20  C   LIG    1       25.950 -31.488   8.947  0.00  0.00    +0.012 C 
ENDROOT
BRANCH   1  22
ATOM     21  C   LIG    1       24.121 -33.533   8.283  0.00  0.00    +0.086 C 
ATOM     22  C   LIG    1       24.166 -33.135   9.738  0.00  0.00    +0.134 C 
ATOM     23  O   LIG    1       23.585 -33.819  10.581  0.00  0.00    -0.297 OA
ENDBRANCH   1  22
TORSDOF 1
ENDMDL
MODEL 7
REMARK VINA RESULT:      -5.4      9.027     12.112
REMARK  Name = *****
REMARK                            x       y       z     vdW  Elec       q    Type
REMARK                         _______ _______ _______ _____ _____    ______ ____
ROOT
ATOM      1  C   LIG    1       21.081 -28.161  14.837  0.00  0.00    +0.061 C 
ATOM      2  C   LIG    1       22.024 -28.300  13.610  0.00  0.00    -0.019 C 
ATOM      3  C   LIG    1       21.293 -28.898  12.379  0.00  0.00    +0.012 C 
ATOM      4  C   LIG    1       23.073 -29.325  14.133  0.00  0.00    -0.001 C 
ATOM      5  C   LIG    1       24.149 -28.716  15.074  0.00  0.00    -0.003 C 
ATOM      6  C   LIG    1       24.810 -27.419  14.539  0.00  0.00    +0.002 C 
ATOM      7  C   LIG    1       23.718 -26.416  14.122  0.00  0.00    +0.005 C 
ATOM      8  C   LIG    1       26.027 -27.583  13.538  0.00  0.00    -0.007 C 
ATOM      9  C   LIG    1       26.841 -26.254  13.586  0.00  0.00    +0.016 C 
ATOM     10  C   LIG    1       26.918 -28.771  13.925  0.00  0.00    -0.060 C 
ATOM     11  C   LIG    1       28.117 -28.939  13.328  0.00  0.00    +0.046 C 
ATOM     12  C   LIG    1       27.889 -29.119  11.845  0.00  0.00    +0.156 C 
ATOM     13  O   LIG    1       28.641 -29.853  11.207  0.00  0.00    -0.293 OA
ATOM     14  C   LIG    1       26.835 -28.249  11.170  0.00  0.00    +0.080 C 
ATOM     15  C   LIG    1       26.212 -30.027  14.381  0.00  0.00    +0.032 C 
ATOM     16  C   LIG    1       25.642 -27.865  12.065  0.00  0.00    +0.019 C 
ATOM     17  C   LIG    1       25.232 -29.722  15.500  0.00  0.00    +0.008 C 
ATOM     18  C   LIG    1       22.191 -30.355  14.870  0.00  0.00    +0.005 C 
ATOM     19  C   LIG    1       22.660 -26.970  13.175  0.00  0.00    +0.008 C 
ATOM     20  C   LIG    1       20.971 -29.590  15.387  0.00  0.00    +0.012 C 
ENDROOT
BRANCH   1  22
ATOM     21  C   LIG    1       18.515 -28.419  14.568  0.00  0.00    +0.086 C 
ATOM     22  C   LIG    1       19.716 -27.506  14.610  0.00  0.00    +0.134 C 
ATOM     23  O   LIG    1       19.563 -26.286  14.562  0.00  0.00    -0.297 OA
ENDBRANCH   1  22
TORSDOF 1
ENDMDL
MODEL 8
REMARK VINA RESULT:      -5.3      8.703     10.388
REMARK  Name = *****
REMARK                            x       y       z     vdW  Elec       q    Type
REMARK                         _______ _______ _______ _____ _____    ______ ____
ROOT
ATOM      1  C   LIG    1       26.310 -26.210  14.859  0.00  0.00    +0.061 C 
ATOM      2  C   LIG    1       25.893 -27.140  13.686  0.00  0.00    -0.019 C 
ATOM      3  C   LIG    1       26.727 -26.870  12.405  0.00  0.00    +0.012 C 
ATOM      4  C   LIG    1       24.420 -26.699  13.443  0.00  0.00    -0.001 C 
ATOM      5  C   LIG    1       23.400 -27.283  14.459  0.00  0.00    -0.003 C 
ATOM      6  C   LIG    1       23.526 -28.812  14.688  0.00  0.00    +0.002 C 
ATOM      7  C   LIG    1       24.991 -29.167  15.010  0.00  0.00    +0.005 C 
ATOM      8  C   LIG    1       22.787 -29.764  13.661  0.00  0.00    -0.007 C 
ATOM      9  C   LIG    1       22.586 -31.136  14.373  0.00  0.00    +0.016 C 
ATOM     10  C   LIG    1       21.433 -29.183  13.229  0.00  0.00    -0.060 C 
ATOM     11  C   LIG    1       20.562 -29.944  12.533  0.00  0.00    +0.046 C 
ATOM     12  C   LIG    1       21.218 -30.352  11.234  0.00  0.00    +0.156 C 
ATOM     13  O   LIG    1       20.524 -30.486  10.228  0.00  0.00    -0.293 OA
ATOM     14  C   LIG    1       22.691 -30.744  11.266  0.00  0.00    +0.080 C 
ATOM     15  C   LIG    1       21.390 -27.696  12.962  0.00  0.00    +0.032 C 
ATOM     16  C   LIG    1       23.533 -30.013  12.327  0.00  0.00    +0.019 C 
ATOM     17  C   LIG    1       21.940 -26.917  14.143  0.00  0.00    +0.008 C 
ATOM     18  C   LIG    1       24.512 -25.162  13.550  0.00  0.00    +0.005 C 
ATOM     19  C   LIG    1       26.018 -28.635  14.018  0.00  0.00    +0.008 C 
ATOM     20  C   LIG    1       25.659 -24.863  14.518  0.00  0.00    +0.012 C 
ENDROOT
BRANCH   1  22
ATOM     21  C   LIG    1       28.391 -24.695  15.170  0.00  0.00    +0.086 C 
ATOM     22  C   LIG    1       27.804 -26.086  15.166  0.00  0.00    +0.134 C 
ATOM     23  O   LIG    1       28.498 -27.047  15.499  0.00  0.00    -0.297 OA
ENDBRANCH   1  22
TORSDOF 1
ENDMDL
MODEL 9
REMARK VINA RESULT:      -5.1      8.487     12.016
REMARK  Name = *****
REMARK                            x       y       z     vdW  Elec       q    Type
REMARK                         _______ _______ _______ _____ _____    ______ ____
ROOT
ATOM      1  C   LIG    1       23.505 -32.195  10.468  0.00  0.00    +0.061 C 
ATOM      2  C   LIG    1       23.196 -30.798  11.074  0.00  0.00    -0.019 C 
ATOM      3  C   LIG    1       21.836 -30.237  10.581  0.00  0.00    +0.012 C 
ATOM      4  C   LIG    1       24.351 -29.937  10.486  0.00  0.00    -0.001 C 
ATOM      5  C   LIG    1       25.714 -30.110  11.211  0.00  0.00    -0.003 C 
ATOM      6  C   LIG    1       25.636 -30.012  12.757  0.00  0.00    +0.002 C 
ATOM      7  C   LIG    1       24.534 -30.953  13.280  0.00  0.00    +0.005 C 
ATOM      8  C   LIG    1       25.677 -28.563  13.396  0.00  0.00    -0.007 C 
ATOM      9  C   LIG    1       26.137 -28.729  14.876  0.00  0.00    +0.016 C 
ATOM     10  C   LIG    1       26.640 -27.640  12.636  0.00  0.00    -0.060 C 
ATOM     11  C   LIG    1       26.977 -26.440  13.156  0.00  0.00    +0.046 C 
ATOM     12  C   LIG    1       25.718 -25.616  13.303  0.00  0.00    +0.156 C 
ATOM     13  O   LIG    1       25.779 -24.397  13.156  0.00  0.00    -0.293 OA
ATOM     14  C   LIG    1       24.457 -26.315  13.797  0.00  0.00    +0.080 C 
ATOM     15  C   LIG    1       26.626 -27.741  11.129  0.00  0.00    +0.032 C 
ATOM     16  C   LIG    1       24.333 -27.794  13.388  0.00  0.00    +0.019 C 
ATOM     17  C   LIG    1       26.817 -29.179  10.680  0.00  0.00    +0.008 C 
ATOM     18  C   LIG    1       24.419 -30.427   9.024  0.00  0.00    +0.005 C 
ATOM     19  C   LIG    1       23.174 -30.791  12.611  0.00  0.00    +0.008 C 
ATOM     20  C   LIG    1       23.962 -31.887   9.035  0.00  0.00    +0.012 C 
ENDROOT
BRANCH   1  22
ATOM     21  C   LIG    1       21.780 -33.667   9.211  0.00  0.00    +0.086 C 
ATOM     22  C   LIG    1       22.398 -33.250  10.523  0.00  0.00    +0.134 C 
ATOM     23  O   LIG    1       22.077 -33.825  11.564  0.00  0.00    -0.297 OA
ENDBRANCH   1  22
TORSDOF 1
ENDMDL
