MODEL 1
REMARK VINA RESULT:      -7.6      0.000      0.000
REMARK  Name = *****
REMARK                            x       y       z     vdW  Elec       q    Type
REMARK                         _______ _______ _______ _____ _____    ______ ____
ROOT
ATOM      1  O   LIG    1       22.701 -19.153   5.375  0.00  0.00    -0.293 OA
ATOM      2  C   LIG    1       22.995 -20.325   5.619  0.00  0.00    +0.174 C 
ATOM      3  C   LIG    1       23.829 -21.182   4.642  0.00  0.00    +0.253 C 
ATOM      4  O   LIG    1       24.870 -20.356   4.029  0.00  0.00    -0.476 OA
ATOM      5  C   LIG    1       25.932 -20.489   4.893  0.00  0.00    +0.167 A 
ATOM      6  C   LIG    1       25.800 -21.592   5.707  0.00  0.00    +0.014 A 
ATOM      7  C   LIG    1       26.622 -21.814   6.842  0.00  0.00    -0.038 A 
ATOM      8  C   LIG    1       27.678 -20.930   7.043  0.00  0.00    +0.008 A 
ATOM      9  C   LIG    1       27.872 -19.855   6.148  0.00  0.00    +0.049 A 
ATOM     10  C   LIG    1       26.284 -22.999   7.788  0.00  0.00    +0.057 C 
ATOM     11  C   LIG    1       25.242 -23.820   6.993  0.00  0.00    +0.093 C 
ATOM     12  N   LIG    1       24.938 -25.175   6.500  0.00  0.00    -0.296 NA
ATOM     13  C   LIG    1       24.931 -25.060   4.972  0.00  0.00    +0.086 C 
ATOM     14  C   LIG    1       24.775 -23.588   4.319  0.00  0.00    +0.034 C 
ATOM     15  C   LIG    1       23.995 -22.931   6.587  0.00  0.00    +0.096 C 
ATOM     16  C   LIG    1       23.476 -21.864   7.557  0.00  0.00    +0.045 C 
ATOM     17  C   LIG    1       26.990 -19.626   5.077  0.00  0.00    +0.159 A 
ATOM     18  C   LIG    1       24.546 -22.363   5.303  0.00  0.00    +0.075 C 
ATOM     19  C   LIG    1       22.430 -20.995   6.858  0.00  0.00    +0.081 C 
ENDROOT
BRANCH  15  20
ATOM     20  O   LIG    1       22.834 -23.739   6.301  0.00  0.00    -0.386 OA
ATOM     21  H   LIG    1       23.200 -24.607   6.017  0.00  0.00    +0.210 HD
ENDBRANCH  15  20
BRANCH  17  22
ATOM     22  O   LIG    1       27.143 -18.556   4.250  0.00  0.00    -0.503 OA
ATOM     23  H   LIG    1       27.403 -18.868   3.370  0.00  0.00    +0.292 HD
ENDBRANCH  17  22
BRANCH  12  24
ATOM     24  C   LIG    1       25.900 -26.167   6.990  0.00  0.00    +0.088 C 
BRANCH  24  25
ATOM     25  C   LIG    1       25.626 -27.511   6.385  0.00  0.00    +0.003 C 
ATOM     26  C   LIG    1       25.299 -28.699   7.258  0.00  0.00    +0.005 C 
ATOM     27  C   LIG    1       24.225 -28.071   6.416  0.00  0.00    +0.005 C 
ENDBRANCH  24  25
ENDBRANCH  12  24
TORSDOF 4
ENDMDL
MODEL 2
REMARK VINA RESULT:      -6.9      2.625      5.848
REMARK  Name = *****
REMARK                            x       y       z     vdW  Elec       q    Type
REMARK                         _______ _______ _______ _____ _____    ______ ____
ROOT
ATOM      1  O   LIG    1       25.988 -24.663   7.382  0.00  0.00    -0.293 OA
ATOM      2  C   LIG    1       25.285 -23.813   6.833  0.00  0.00    +0.174 C 
ATOM      3  C   LIG    1       24.876 -22.503   7.542  0.00  0.00    +0.253 C 
ATOM      4  O   LIG    1       25.994 -22.012   8.350  0.00  0.00    -0.476 OA
ATOM      5  C   LIG    1       26.686 -21.204   7.477  0.00  0.00    +0.167 A 
ATOM      6  C   LIG    1       25.916 -20.830   6.399  0.00  0.00    +0.014 A 
ATOM      7  C   LIG    1       26.458 -20.212   5.242  0.00  0.00    -0.038 A 
ATOM      8  C   LIG    1       27.806 -19.868   5.281  0.00  0.00    +0.008 A 
ATOM      9  C   LIG    1       28.573 -20.164   6.430  0.00  0.00    +0.049 A 
ATOM     10  C   LIG    1       25.534 -19.981   4.016  0.00  0.00    +0.057 C 
ATOM     11  C   LIG    1       24.115 -20.255   4.567  0.00  0.00    +0.093 C 
ATOM     12  N   LIG    1       22.764 -19.679   4.681  0.00  0.00    -0.296 NA
ATOM     13  C   LIG    1       22.520 -19.508   6.185  0.00  0.00    +0.086 C 
ATOM     14  C   LIG    1       23.452 -20.348   7.207  0.00  0.00    +0.034 C 
ATOM     15  C   LIG    1       24.012 -21.705   5.200  0.00  0.00    +0.096 C 
ATOM     16  C   LIG    1       24.765 -22.871   4.552  0.00  0.00    +0.045 C 
ATOM     17  C   LIG    1       28.015 -20.844   7.526  0.00  0.00    +0.159 A 
ATOM     18  C   LIG    1       24.499 -21.367   6.587  0.00  0.00    +0.075 C 
ATOM     19  C   LIG    1       24.699 -24.098   5.462  0.00  0.00    +0.081 C 
ENDROOT
BRANCH  15  20
ATOM     20  O   LIG    1       22.645 -22.163   5.264  0.00  0.00    -0.386 OA
ATOM     21  H   LIG    1       22.252 -21.893   4.404  0.00  0.00    +0.210 HD
ENDBRANCH  15  20
BRANCH  17  22
ATOM     22  O   LIG    1       28.768 -21.182   8.608  0.00  0.00    -0.503 OA
ATOM     23  H   LIG    1       29.594 -20.675   8.592  0.00  0.00    +0.292 HD
ENDBRANCH  17  22
BRANCH  12  24
ATOM     24  C   LIG    1       22.640 -18.419   3.941  0.00  0.00    +0.088 C 
BRANCH  24  25
ATOM     25  C   LIG    1       22.929 -17.251   4.835  0.00  0.00    +0.003 C 
ATOM     26  C   LIG    1       23.178 -15.879   4.257  0.00  0.00    +0.005 C 
ATOM     27  C   LIG    1       21.899 -16.159   4.991  0.00  0.00    +0.005 C 
ENDBRANCH  24  25
ENDBRANCH  12  24
TORSDOF 4
ENDMDL
MODEL 3
REMARK VINA RESULT:      -6.2      5.632      9.795
REMARK  Name = *****
REMARK                            x       y       z     vdW  Elec       q    Type
REMARK                         _______ _______ _______ _____ _____    ______ ____
ROOT
ATOM      1  O   LIG    1       25.461 -33.825  10.904  0.00  0.00    -0.293 OA
ATOM      2  C   LIG    1       25.569 -32.883  10.115  0.00  0.00    +0.174 C 
ATOM      3  C   LIG    1       24.367 -31.990   9.735  0.00  0.00    +0.253 C 
ATOM      4  O   LIG    1       23.525 -31.771  10.912  0.00  0.00    -0.476 OA
ATOM      5  C   LIG    1       24.059 -30.637  11.479  0.00  0.00    +0.167 A 
ATOM      6  C   LIG    1       24.833 -29.930  10.586  0.00  0.00    +0.014 A 
ATOM      7  C   LIG    1       25.690 -28.870  10.980  0.00  0.00    -0.038 A 
ATOM      8  C   LIG    1       25.629 -28.467  12.311  0.00  0.00    +0.008 A 
ATOM      9  C   LIG    1       24.758 -29.130  13.205  0.00  0.00    +0.049 A 
ATOM     10  C   LIG    1       26.645 -28.249   9.924  0.00  0.00    +0.057 C 
ATOM     11  C   LIG    1       26.134 -28.823   8.582  0.00  0.00    +0.093 C 
ATOM     12  N   LIG    1       25.690 -28.441   7.231  0.00  0.00    -0.296 NA
ATOM     13  C   LIG    1       24.228 -28.891   7.139  0.00  0.00    +0.086 C 
ATOM     14  C   LIG    1       23.702 -29.991   8.204  0.00  0.00    +0.034 C 
ATOM     15  C   LIG    1       26.121 -30.408   8.600  0.00  0.00    +0.096 C 
ATOM     16  C   LIG    1       27.238 -31.167   9.325  0.00  0.00    +0.045 C 
ATOM     17  C   LIG    1       23.980 -30.225  12.791  0.00  0.00    +0.159 A 
ATOM     18  C   LIG    1       24.758 -30.603   9.218  0.00  0.00    +0.075 C 
ATOM     19  C   LIG    1       26.887 -32.654   9.400  0.00  0.00    +0.081 C 
ENDROOT
BRANCH  15  20
ATOM     20  O   LIG    1       26.133 -30.957   7.266  0.00  0.00    -0.386 OA
ATOM     21  H   LIG    1       25.933 -31.912   7.390  0.00  0.00    +0.210 HD
ENDBRANCH  15  20
BRANCH  17  22
ATOM     22  O   LIG    1       23.186 -30.901  13.665  0.00  0.00    -0.503 OA
ATOM     23  H   LIG    1       23.711 -31.581  14.113  0.00  0.00    +0.292 HD
ENDBRANCH  17  22
BRANCH  12  24
ATOM     24  C   LIG    1       25.858 -27.006   6.983  0.00  0.00    +0.088 C 
BRANCH  24  25
ATOM     25  C   LIG    1       24.839 -26.518   5.996  0.00  0.00    +0.003 C 
ATOM     26  C   LIG    1       24.051 -25.258   6.259  0.00  0.00    +0.005 C 
ATOM     27  C   LIG    1       25.113 -25.268   5.197  0.00  0.00    +0.005 C 
ENDBRANCH  24  25
ENDBRANCH  12  24
TORSDOF 4
ENDMDL
MODEL 4
REMARK VINA RESULT:      -6.0      8.181     10.339
REMARK  Name = *****
REMARK                            x       y       z     vdW  Elec       q    Type
REMARK                         _______ _______ _______ _____ _____    ______ ____
ROOT
ATOM      1  O   LIG    1       29.080 -29.782  12.240  0.00  0.00    -0.293 OA
ATOM      2  C   LIG    1       28.090 -29.416  12.877  0.00  0.00    +0.174 C 
ATOM      3  C   LIG    1       27.308 -28.135  12.512  0.00  0.00    +0.253 C 
ATOM      4  O   LIG    1       27.245 -27.994  11.057  0.00  0.00    -0.476 OA
ATOM      5  C   LIG    1       26.094 -28.670  10.721  0.00  0.00    +0.167 A 
ATOM      6  C   LIG    1       25.261 -28.839  11.805  0.00  0.00    +0.014 A 
ATOM      7  C   LIG    1       24.141 -29.710  11.786  0.00  0.00    -0.038 A 
ATOM      8  C   LIG    1       23.822 -30.307  10.570  0.00  0.00    +0.008 A 
ATOM      9  C   LIG    1       24.622 -30.053   9.433  0.00  0.00    +0.049 A 
ATOM     10  C   LIG    1       23.364 -29.956  13.108  0.00  0.00    +0.057 C 
ATOM     11  C   LIG    1       23.913 -28.873  14.065  0.00  0.00    +0.093 C 
ATOM     12  N   LIG    1       23.504 -27.782  14.968  0.00  0.00    -0.296 NA
ATOM     13  C   LIG    1       24.100 -26.507  14.361  0.00  0.00    +0.086 C 
ATOM     14  C   LIG    1       25.306 -26.663  13.294  0.00  0.00    +0.034 C 
ATOM     15  C   LIG    1       25.488 -28.970  14.205  0.00  0.00    +0.096 C 
ATOM     16  C   LIG    1       26.166 -30.344  14.217  0.00  0.00    +0.045 C 
ATOM     17  C   LIG    1       25.767 -29.242   9.511  0.00  0.00    +0.159 A 
ATOM     18  C   LIG    1       25.860 -28.123  13.012  0.00  0.00    +0.075 C 
ATOM     19  C   LIG    1       27.683 -30.173  14.127  0.00  0.00    +0.081 C 
ENDROOT
BRANCH  15  20
ATOM     20  O   LIG    1       25.958 -28.337  15.414  0.00  0.00    -0.386 OA
ATOM     21  H   LIG    1       25.333 -27.592  15.562  0.00  0.00    +0.210 HD
ENDBRANCH  15  20
BRANCH  17  22
ATOM     22  O   LIG    1       26.570 -29.045   8.431  0.00  0.00    -0.503 OA
ATOM     23  H   LIG    1       26.153 -29.435   7.648  0.00  0.00    +0.292 HD
ENDBRANCH  17  22
BRANCH  12  24
ATOM     24  C   LIG    1       22.047 -27.711  15.119  0.00  0.00    +0.088 C 
BRANCH  24  25
ATOM     25  C   LIG    1       21.456 -26.780  14.104  0.00  0.00    +0.003 C 
ATOM     26  C   LIG    1       20.797 -27.314  12.856  0.00  0.00    +0.005 C 
ATOM     27  C   LIG    1       19.958 -26.705  13.942  0.00  0.00    +0.005 C 
ENDBRANCH  24  25
ENDBRANCH  12  24
TORSDOF 4
ENDMDL
MODEL 5
REMARK VINA RESULT:      -5.9      8.648     10.634
REMARK  Name = *****
REMARK                            x       y       z     vdW  Elec       q    Type
REMARK                         _______ _______ _______ _____ _____    ______ ____
ROOT
ATOM      1  O   LIG    1       27.518 -30.805  13.859  0.00  0.00    -0.293 OA
ATOM      2  C   LIG    1       26.452 -30.196  13.971  0.00  0.00    +0.174 C 
ATOM      3  C   LIG    1       26.242 -28.791  13.362  0.00  0.00    +0.253 C 
ATOM      4  O   LIG    1       26.912 -28.713  12.063  0.00  0.00    -0.476 OA
ATOM      5  C   LIG    1       25.943 -29.130  11.180  0.00  0.00    +0.167 A 
ATOM      6  C   LIG    1       24.681 -29.055  11.726  0.00  0.00    +0.014 A 
ATOM      7  C   LIG    1       23.544 -29.652  11.122  0.00  0.00    -0.038 A 
ATOM      8  C   LIG    1       23.720 -30.223   9.865  0.00  0.00    +0.008 A 
ATOM      9  C   LIG    1       24.997 -30.211   9.263  0.00  0.00    +0.049 A 
ATOM     10  C   LIG    1       22.199 -29.652  11.900  0.00  0.00    +0.057 C 
ATOM     11  C   LIG    1       22.450 -28.672  13.069  0.00  0.00    +0.093 C 
ATOM     12  N   LIG    1       21.913 -27.474  13.738  0.00  0.00    -0.296 NA
ATOM     13  C   LIG    1       22.989 -26.396  13.569  0.00  0.00    +0.086 C 
ATOM     14  C   LIG    1       24.490 -26.871  13.194  0.00  0.00    +0.034 C 
ATOM     15  C   LIG    1       23.704 -29.112  13.933  0.00  0.00    +0.096 C 
ATOM     16  C   LIG    1       23.972 -30.601  14.177  0.00  0.00    +0.045 C 
ATOM     17  C   LIG    1       26.114 -29.675   9.926  0.00  0.00    +0.159 A 
ATOM     18  C   LIG    1       24.775 -28.431  13.116  0.00  0.00    +0.075 C 
ATOM     19  C   LIG    1       25.345 -30.778  14.828  0.00  0.00    +0.081 C 
ENDROOT
BRANCH  15  20
ATOM     20  O   LIG    1       23.668 -28.541  15.257  0.00  0.00    -0.386 OA
ATOM     21  H   LIG    1       24.611 -28.379  15.483  0.00  0.00    +0.210 HD
ENDBRANCH  15  20
BRANCH  17  22
ATOM     22  O   LIG    1       27.356 -29.717   9.371  0.00  0.00    -0.503 OA
ATOM     23  H   LIG    1       27.343 -29.242   8.525  0.00  0.00    +0.292 HD
ENDBRANCH  17  22
BRANCH  12  24
ATOM     24  C   LIG    1       20.616 -27.071  13.184  0.00  0.00    +0.088 C 
BRANCH  24  25
ATOM     25  C   LIG    1       19.686 -26.641  14.279  0.00  0.00    +0.003 C 
ATOM     26  C   LIG    1       18.292 -26.156  13.962  0.00  0.00    +0.005 C 
ATOM     27  C   LIG    1       18.488 -27.492  14.618  0.00  0.00    +0.005 C 
ENDBRANCH  24  25
ENDBRANCH  12  24
TORSDOF 4
ENDMDL
MODEL 6
REMARK VINA RESULT:      -5.6      8.404     10.729
REMARK  Name = *****
REMARK                            x       y       z     vdW  Elec       q    Type
REMARK                         _______ _______ _______ _____ _____    ______ ____
ROOT
ATOM      1  O   LIG    1       22.930 -33.809   9.219  0.00  0.00    -0.293 OA
ATOM      2  C   LIG    1       23.792 -33.044   9.657  0.00  0.00    +0.174 C 
ATOM      3  C   LIG    1       23.862 -31.559   9.234  0.00  0.00    +0.253 C 
ATOM      4  O   LIG    1       22.507 -31.021   9.103  0.00  0.00    -0.476 OA
ATOM      5  C   LIG    1       22.231 -30.544  10.364  0.00  0.00    +0.167 A 
ATOM      6  C   LIG    1       23.375 -30.359  11.107  0.00  0.00    +0.014 A 
ATOM      7  C   LIG    1       23.355 -30.117  12.505  0.00  0.00    -0.038 A 
ATOM      8  C   LIG    1       22.110 -29.938  13.100  0.00  0.00    +0.008 A 
ATOM      9  C   LIG    1       20.939 -30.030  12.315  0.00  0.00    +0.049 A 
ATOM     10  C   LIG    1       24.703 -30.088  13.278  0.00  0.00    +0.057 C 
ATOM     11  C   LIG    1       25.769 -30.045  12.158  0.00  0.00    +0.093 C 
ATOM     12  N   LIG    1       26.947 -29.300  11.682  0.00  0.00    -0.296 NA
ATOM     13  C   LIG    1       26.547 -28.735  10.315  0.00  0.00    +0.086 C 
ATOM     14  C   LIG    1       25.282 -29.400   9.556  0.00  0.00    +0.034 C 
ATOM     15  C   LIG    1       25.611 -31.269  11.164  0.00  0.00    +0.096 C 
ATOM     16  C   LIG    1       25.201 -32.642  11.709  0.00  0.00    +0.045 C 
ATOM     17  C   LIG    1       20.998 -30.345  10.946  0.00  0.00    +0.159 A 
ATOM     18  C   LIG    1       24.591 -30.659  10.234  0.00  0.00    +0.075 C 
ATOM     19  C   LIG    1       24.893 -33.588  10.547  0.00  0.00    +0.081 C 
ENDROOT
BRANCH  15  20
ATOM     20  O   LIG    1       26.832 -31.530  10.440  0.00  0.00    -0.386 OA
ATOM     21  H   LIG    1       26.536 -31.766   9.532  0.00  0.00    +0.210 HD
ENDBRANCH  15  20
BRANCH  17  22
ATOM     22  O   LIG    1       19.868 -30.492  10.203  0.00  0.00    -0.503 OA
ATOM     23  H   LIG    1       20.110 -30.597   9.271  0.00  0.00    +0.292 HD
ENDBRANCH  17  22
BRANCH  12  24
ATOM     24  C   LIG    1       27.357 -28.258  12.629  0.00  0.00    +0.088 C 
BRANCH  24  25
ATOM     25  C   LIG    1       26.639 -26.974  12.343  0.00  0.00    +0.003 C 
ATOM     26  C   LIG    1       25.602 -26.439  13.301  0.00  0.00    +0.005 C 
ATOM     27  C   LIG    1       26.932 -25.753  13.181  0.00  0.00    +0.005 C 
ENDBRANCH  24  25
ENDBRANCH  12  24
TORSDOF 4
ENDMDL
MODEL 7
REMARK VINA RESULT:      -5.5      7.912     10.738
REMARK  Name = *****
REMARK                            x       y       z     vdW  Elec       q    Type
REMARK                         _______ _______ _______ _____ _____    ______ ____
ROOT
ATOM      1  O   LIG    1       20.277 -31.459  15.387  0.00  0.00    -0.293 OA
ATOM      2  C   LIG    1       21.081 -31.477  14.453  0.00  0.00    +0.174 C 
ATOM      3  C   LIG    1       20.678 -31.074  13.017  0.00  0.00    +0.253 C 
ATOM      4  O   LIG    1       19.747 -29.945  13.065  0.00  0.00    -0.476 OA
ATOM      5  C   LIG    1       20.576 -28.848  13.031  0.00  0.00    +0.167 A 
ATOM      6  C   LIG    1       21.832 -29.165  12.563  0.00  0.00    +0.014 A 
ATOM      7  C   LIG    1       22.937 -28.280  12.662  0.00  0.00    -0.038 A 
ATOM      8  C   LIG    1       22.682 -26.999  13.143  0.00  0.00    +0.008 A 
ATOM      9  C   LIG    1       21.371 -26.644  13.531  0.00  0.00    +0.049 A 
ATOM     10  C   LIG    1       24.345 -28.795  12.256  0.00  0.00    +0.057 C 
ATOM     11  C   LIG    1       24.055 -30.133  11.537  0.00  0.00    +0.093 C 
ATOM     12  N   LIG    1       24.304 -30.879  10.291  0.00  0.00    -0.296 NA
ATOM     13  C   LIG    1       22.925 -31.080   9.654  0.00  0.00    +0.086 C 
ATOM     14  C   LIG    1       21.619 -30.908  10.594  0.00  0.00    +0.034 C 
ATOM     15  C   LIG    1       23.240 -31.123  12.468  0.00  0.00    +0.096 C 
ATOM     16  C   LIG    1       23.536 -31.168  13.971  0.00  0.00    +0.045 C 
ATOM     17  C   LIG    1       20.317 -27.574  13.486  0.00  0.00    +0.159 A 
ATOM     18  C   LIG    1       21.852 -30.631  12.139  0.00  0.00    +0.075 C 
ATOM     19  C   LIG    1       22.480 -32.017  14.680  0.00  0.00    +0.081 C 
ENDROOT
BRANCH  15  20
ATOM     20  O   LIG    1       23.382 -32.495  12.041  0.00  0.00    -0.386 OA
ATOM     21  H   LIG    1       24.296 -32.744  12.307  0.00  0.00    +0.210 HD
ENDBRANCH  15  20
BRANCH  17  22
ATOM     22  O   LIG    1       19.068 -27.249  13.915  0.00  0.00    -0.503 OA
ATOM     23  H   LIG    1       19.127 -26.847  14.795  0.00  0.00    +0.292 HD
ENDBRANCH  17  22
BRANCH  12  24
ATOM     24  C   LIG    1       25.240 -30.175   9.408  0.00  0.00    +0.088 C 
BRANCH  24  25
ATOM     25  C   LIG    1       24.537 -29.689   8.175  0.00  0.00    +0.003 C 
ATOM     26  C   LIG    1       25.160 -28.631   7.297  0.00  0.00    +0.005 C 
ATOM     27  C   LIG    1       25.080 -30.050   6.815  0.00  0.00    +0.005 C 
ENDBRANCH  24  25
ENDBRANCH  12  24
TORSDOF 4
ENDMDL
MODEL 8
REMARK VINA RESULT:      -5.4      8.195     10.129
REMARK  Name = *****
REMARK                            x       y       z     vdW  Elec       q    Type
REMARK                         _______ _______ _______ _____ _____    ______ ____
ROOT
ATOM      1  O   LIG    1       21.454 -28.784  12.072  0.00  0.00    -0.293 OA
ATOM      2  C   LIG    1       22.519 -28.707  12.687  0.00  0.00    +0.174 C 
ATOM      3  C   LIG    1       23.468 -29.918  12.838  0.00  0.00    +0.253 C 
ATOM      4  O   LIG    1       23.478 -30.692  11.596  0.00  0.00    -0.476 OA
ATOM      5  C   LIG    1       24.494 -30.115  10.870  0.00  0.00    +0.167 A 
ATOM      6  C   LIG    1       25.345 -29.382  11.666  0.00  0.00    +0.014 A 
ATOM      7  C   LIG    1       26.318 -28.492  11.140  0.00  0.00    -0.038 A 
ATOM      8  C   LIG    1       26.481 -28.477   9.758  0.00  0.00    +0.008 A 
ATOM      9  C   LIG    1       25.673 -29.305   8.948  0.00  0.00    +0.049 A 
ATOM     10  C   LIG    1       27.113 -27.589  12.123  0.00  0.00    +0.057 C 
ATOM     11  C   LIG    1       26.784 -28.179  13.514  0.00  0.00    +0.093 C 
ATOM     12  N   LIG    1       27.399 -28.690  14.751  0.00  0.00    -0.296 NA
ATOM     13  C   LIG    1       26.974 -30.161  14.839  0.00  0.00    +0.086 C 
ATOM     14  C   LIG    1       25.706 -30.641  13.956  0.00  0.00    +0.034 C 
ATOM     15  C   LIG    1       25.221 -28.209  13.773  0.00  0.00    +0.096 C 
ATOM     16  C   LIG    1       24.344 -27.063  13.256  0.00  0.00    +0.045 C 
ATOM     17  C   LIG    1       24.669 -30.118   9.503  0.00  0.00    +0.159 A 
ATOM     18  C   LIG    1       24.923 -29.538  13.125  0.00  0.00    +0.075 C 
ATOM     19  C   LIG    1       22.868 -27.427  13.423  0.00  0.00    +0.081 C 
ENDROOT
BRANCH  15  20
ATOM     20  O   LIG    1       24.915 -28.276  15.182  0.00  0.00    -0.386 OA
ATOM     21  H   LIG    1       25.605 -27.723  15.612  0.00  0.00    +0.210 HD
ENDBRANCH  15  20
BRANCH  17  22
ATOM     22  O   LIG    1       23.852 -30.871   8.718  0.00  0.00    -0.503 OA
ATOM     23  H   LIG    1       24.013 -30.651   7.788  0.00  0.00    +0.292 HD
ENDBRANCH  17  22
BRANCH  12  24
ATOM     24  C   LIG    1       28.855 -28.520  14.753  0.00  0.00    +0.088 C 
BRANCH  24  25
ATOM     25  C   LIG    1       29.526 -29.711  14.137  0.00  0.00    +0.003 C 
ATOM     26  C   LIG    1       30.163 -29.618  12.771  0.00  0.00    +0.005 C 
ATOM     27  C   LIG    1       31.028 -29.729  13.994  0.00  0.00    +0.005 C 
ENDBRANCH  24  25
ENDBRANCH  12  24
TORSDOF 4
ENDMDL
MODEL 9
REMARK VINA RESULT:      -5.2      6.749      9.724
REMARK  Name = *****
REMARK                            x       y       z     vdW  Elec       q    Type
REMARK                         _______ _______ _______ _____ _____    ______ ____
ROOT
ATOM      1  O   LIG    1       25.380 -27.722   6.389  0.00  0.00    -0.293 OA
ATOM      2  C   LIG    1       25.283 -28.433   7.392  0.00  0.00    +0.174 C 
ATOM      3  C   LIG    1       24.220 -29.548   7.507  0.00  0.00    +0.253 C 
ATOM      4  O   LIG    1       24.059 -30.210   6.211  0.00  0.00    -0.476 OA
ATOM      5  C   LIG    1       24.984 -31.227   6.256  0.00  0.00    +0.167 A 
ATOM      6  C   LIG    1       25.380 -31.507   7.545  0.00  0.00    +0.014 A 
ATOM      7  C   LIG    1       26.495 -32.331   7.846  0.00  0.00    -0.038 A 
ATOM      8  C   LIG    1       27.118 -32.970   6.779  0.00  0.00    +0.008 A 
ATOM      9  C   LIG    1       26.647 -32.759   5.464  0.00  0.00    +0.049 A 
ATOM     10  C   LIG    1       26.958 -32.450   9.324  0.00  0.00    +0.057 C 
ATOM     11  C   LIG    1       25.800 -31.811  10.126  0.00  0.00    +0.093 C 
ATOM     12  N   LIG    1       24.866 -32.051  11.240  0.00  0.00    -0.296 NA
ATOM     13  C   LIG    1       23.469 -32.029  10.611  0.00  0.00    +0.086 C 
ATOM     14  C   LIG    1       23.298 -31.340   9.157  0.00  0.00    +0.034 C 
ATOM     15  C   LIG    1       25.516 -30.327   9.647  0.00  0.00    +0.096 C 
ATOM     16  C   LIG    1       26.686 -29.425   9.237  0.00  0.00    +0.045 C 
ATOM     17  C   LIG    1       25.585 -31.876   5.200  0.00  0.00    +0.159 A 
ATOM     18  C   LIG    1       24.573 -30.646   8.513  0.00  0.00    +0.075 C 
ATOM     19  C   LIG    1       26.150 -28.141   8.603  0.00  0.00    +0.081 C 
ENDROOT
BRANCH  15  20
ATOM     20  O   LIG    1       24.822 -29.564  10.656  0.00  0.00    -0.386 OA
ATOM     21  H   LIG    1       24.211 -30.209  11.078  0.00  0.00    +0.210 HD
ENDBRANCH  15  20
BRANCH  17  22
ATOM     22  O   LIG    1       25.170 -31.627   3.928  0.00  0.00    -0.503 OA
ATOM     23  H   LIG    1       24.835 -32.448   3.536  0.00  0.00    +0.292 HD
ENDBRANCH  17  22
BRANCH  12  24
ATOM     24  C   LIG    1       25.154 -33.308  11.937  0.00  0.00    +0.088 C 
BRANCH  24  25
ATOM     25  C   LIG    1       25.060 -33.121  13.422  0.00  0.00    +0.003 C 
ATOM     26  C   LIG    1       26.167 -33.594  14.332  0.00  0.00    +0.005 C 
ATOM     27  C   LIG    1       25.961 -32.124  14.107  0.00  0.00    +0.005 C 
ENDBRANCH  24  25
ENDBRANCH  12  24
TORSDOF 4
ENDMDL
