MODEL 1
REMARK VINA RESULT:      11.8      0.000      0.000
REMARK  Name = *****
REMARK                            x       y       z     vdW  Elec       q    Type
REMARK                         _______ _______ _______ _____ _____    ______ ____
ROOT
ATOM      1  C   LIG    1       27.170 -19.550   6.953  0.00  0.00    +0.073 C 
ATOM      2  C   LIG    1       26.303 -20.063   5.799  0.00  0.00    +0.166 C 
ATOM      3  O   LIG    1       25.006 -19.349   5.857  0.00  0.00    -0.332 OA
ATOM      4  C   LIG    1       24.812 -18.896   4.508  0.00  0.00    +0.164 C 
ATOM      5  C   LIG    1       26.264 -18.590   4.181  0.00  0.00    +0.162 C 
ATOM      6  C   LIG    1       26.225 -17.777   2.898  0.00  0.00    +0.039 C 
ATOM      7  C   LIG    1       25.259 -16.712   3.461  0.00  0.00    +0.004 C 
ATOM      8  C   LIG    1       24.762 -15.480   2.718  0.00  0.00    -0.000 C 
ATOM      9  C   LIG    1       24.145 -14.498   3.782  0.00  0.00    +0.035 C 
ATOM     10  C   LIG    1       23.182 -15.223   4.806  0.00  0.00    +0.120 C 
ATOM     11  C   LIG    1       23.559 -16.668   5.259  0.00  0.00    +0.042 C 
ATOM     12  C   LIG    1       25.175 -13.509   4.497  0.00  0.00    +0.013 C 
ATOM     13  C   LIG    1       26.333 -13.070   3.570  0.00  0.00    -0.056 C 
ATOM     14  C   LIG    1       27.248 -12.199   4.061  0.00  0.00    +0.051 C 
ATOM     15  C   LIG    1       27.922 -12.795   5.278  0.00  0.00    +0.179 C 
ATOM     16  C   LIG    1       27.109 -13.732   6.110  0.00  0.00    +0.047 C 
ATOM     17  O   LIG    1       29.048 -12.455   5.615  0.00  0.00    -0.288 OA
ATOM     18  C   LIG    1       26.895 -14.128   2.645  0.00  0.00    +0.032 C 
ATOM     19  C   LIG    1       24.356 -12.251   4.916  0.00  0.00    +0.020 C 
ATOM     20  C   LIG    1       25.841 -14.037   5.771  0.00  0.00    -0.012 C 
ATOM     21  C   LIG    1       25.804 -14.797   1.839  0.00  0.00    +0.008 C 
ATOM     22  C   LIG    1       24.091 -17.542   4.115  0.00  0.00    +0.012 C 
ATOM     23  C   LIG    1       22.950 -17.805   3.086  0.00  0.00    +0.015 C 
ATOM     24  O   LIG    1       26.935 -19.776   4.513  0.00  0.00    -0.343 OA
ATOM     25  C   LIG    1       26.121 -21.572   5.933  0.00  0.00    +0.073 C 
ENDROOT
BRANCH  10  26
ATOM     26  O   LIG    1       21.867 -15.279   4.243  0.00  0.00    -0.391 OA
ATOM     27  H   LIG    1       21.937 -15.090   3.291  0.00  0.00    +0.210 HD
ENDBRANCH  10  26
BRANCH   4  28
ATOM     28  C   LIG    1       24.225 -20.116   3.745  0.00  0.00    +0.193 C 
ATOM     29  O   LIG    1       24.592 -20.458   2.616  0.00  0.00    -0.292 OA
BRANCH  28  30
ATOM     30  C   LIG    1       23.108 -20.894   4.449  0.00  0.00    +0.233 C 
BRANCH  30  31
ATOM     31  O   LIG    1       22.483 -20.103   5.450  0.00  0.00    -0.387 OA
ATOM     32  H   LIG    1       23.031 -19.297   5.538  0.00  0.00    +0.210 HD
ENDBRANCH  30  31
ENDBRANCH  28  30
ENDBRANCH   4  28
TORSDOF 4
ENDMDL
MODEL 2
REMARK VINA RESULT:      14.7      1.896      6.923
REMARK  Name = *****
REMARK                            x       y       z     vdW  Elec       q    Type
REMARK                         _______ _______ _______ _____ _____    ______ ____
ROOT
ATOM      1  C   LIG    1       23.551 -13.803   5.560  0.00  0.00    +0.073 C 
ATOM      2  C   LIG    1       24.754 -13.621   4.630  0.00  0.00    +0.166 C 
ATOM      3  O   LIG    1       25.879 -14.408   5.186  0.00  0.00    -0.332 OA
ATOM      4  C   LIG    1       26.359 -15.153   4.057  0.00  0.00    +0.164 C 
ATOM      5  C   LIG    1       25.017 -15.404   3.388  0.00  0.00    +0.162 C 
ATOM      6  C   LIG    1       25.281 -16.473   2.342  0.00  0.00    +0.039 C 
ATOM      7  C   LIG    1       25.909 -17.467   3.343  0.00  0.00    +0.004 C 
ATOM      8  C   LIG    1       26.411 -18.866   3.012  0.00  0.00    -0.000 C 
ATOM      9  C   LIG    1       26.584 -19.644   4.370  0.00  0.00    +0.035 C 
ATOM     10  C   LIG    1       27.332 -18.797   5.476  0.00  0.00    +0.120 C 
ATOM     11  C   LIG    1       27.050 -17.263   5.529  0.00  0.00    +0.042 C 
ATOM     12  C   LIG    1       25.276 -20.371   4.928  0.00  0.00    +0.013 C 
ATOM     13  C   LIG    1       24.355 -20.903   3.805  0.00  0.00    -0.056 C 
ATOM     14  C   LIG    1       23.232 -21.572   4.163  0.00  0.00    +0.051 C 
ATOM     15  C   LIG    1       22.349 -20.677   5.006  0.00  0.00    +0.179 C 
ATOM     16  C   LIG    1       23.034 -19.652   5.850  0.00  0.00    +0.047 C 
ATOM     17  O   LIG    1       21.138 -20.845   5.062  0.00  0.00    -0.288 OA
ATOM     18  C   LIG    1       24.208 -20.026   2.580  0.00  0.00    +0.032 C 
ATOM     19  C   LIG    1       25.775 -21.572   5.787  0.00  0.00    +0.020 C 
ATOM     20  C   LIG    1       24.375 -19.530   5.839  0.00  0.00    -0.012 C 
ATOM     21  C   LIG    1       25.554 -19.635   2.012  0.00  0.00    +0.008 C 
ATOM     22  C   LIG    1       26.965 -16.614   4.141  0.00  0.00    +0.012 C 
ATOM     23  C   LIG    1       28.362 -16.670   3.453  0.00  0.00    +0.015 C 
ATOM     24  O   LIG    1       24.451 -14.124   3.291  0.00  0.00    -0.343 OA
ATOM     25  C   LIG    1       25.099 -12.138   4.532  0.00  0.00    +0.073 C 
ENDROOT
BRANCH  10  26
ATOM     26  O   LIG    1       28.744 -18.969   5.312  0.00  0.00    -0.391 OA
ATOM     27  H   LIG    1       28.984 -18.670   4.419  0.00  0.00    +0.210 HD
ENDBRANCH  10  26
BRANCH   4  28
ATOM     28  C   LIG    1       27.288 -14.176   3.283  0.00  0.00    +0.193 C 
ATOM     29  O   LIG    1       27.247 -14.019   2.059  0.00  0.00    -0.292 OA
BRANCH  28  30
ATOM     30  C   LIG    1       28.320 -13.408   4.115  0.00  0.00    +0.233 C 
BRANCH  30  31
ATOM     31  O   LIG    1       29.422 -12.998   3.316  0.00  0.00    -0.387 OA
ATOM     32  H   LIG    1       29.784 -13.815   2.916  0.00  0.00    +0.210 HD
ENDBRANCH  30  31
ENDBRANCH  28  30
ENDBRANCH   4  28
TORSDOF 4
ENDMDL
