MODEL 1
REMARK VINA RESULT:      -7.6      0.000      0.000
REMARK  Name = *****
REMARK                            x       y       z     vdW  Elec       q    Type
REMARK                         _______ _______ _______ _____ _____    ______ ____
ROOT
ATOM      1  C   LIG    1       24.928 -21.683   6.914  0.00  0.00    +0.123 C 
ATOM      2  C   LIG    1       25.262 -21.527   5.438  0.00  0.00    +0.235 C 
ATOM      3  O   LIG    1       24.729 -22.189   4.549  0.00  0.00    -0.274 OA
ATOM      4  N   LIG    1       26.163 -20.557   5.112  0.00  0.00    -0.239 N 
ATOM      5  H   LIG    1       26.384 -20.487   4.128  0.00  0.00    +0.159 HD
ATOM      6  C   LIG    1       27.126 -20.094   5.950  0.00  0.00    +0.312 C 
ATOM      7  O   LIG    1       28.155 -19.585   5.524  0.00  0.00    -0.252 OA
ATOM      8  N   LIG    1       26.937 -20.308   7.279  0.00  0.00    -0.239 N 
ATOM      9  H   LIG    1       27.703 -20.031   7.877  0.00  0.00    +0.159 HD
ATOM     10  C   LIG    1       26.081 -21.233   7.804  0.00  0.00    +0.235 C 
ATOM     11  O   LIG    1       26.222 -21.601   8.970  0.00  0.00    -0.274 OA
ENDROOT
BRANCH   1  13
ATOM     12  C   LIG    1       22.909 -20.239   6.085  0.00  0.00    +0.005 C 
ATOM     13  C   LIG    1       23.757 -20.716   7.259  0.00  0.00    +0.022 C 
ENDBRANCH   1  13
BRANCH   1  14
ATOM     14  C   LIG    1       24.568 -23.159   7.234  0.00  0.00    +0.026 C 
BRANCH  14  15
ATOM     15  C   LIG    1       25.749 -24.140   7.067  0.00  0.00    +0.004 C 
BRANCH  15  16
ATOM     16  C   LIG    1       25.501 -25.245   6.021  0.00  0.00    -0.017 C 
ATOM     17  C   LIG    1       24.026 -25.633   5.920  0.00  0.00    +0.007 C 
ATOM     18  C   LIG    1       26.334 -26.485   6.363  0.00  0.00    +0.007 C 
ENDBRANCH  15  16
ENDBRANCH  14  15
ENDBRANCH   1  14
TORSDOF 4
ENDMDL
MODEL 2
REMARK VINA RESULT:      -7.5      1.677      4.037
REMARK  Name = *****
REMARK                            x       y       z     vdW  Elec       q    Type
REMARK                         _______ _______ _______ _____ _____    ______ ____
ROOT
ATOM      1  C   LIG    1       25.693 -21.271   6.909  0.00  0.00    +0.123 C 
ATOM      2  C   LIG    1       26.463 -21.408   8.214  0.00  0.00    +0.235 C 
ATOM      3  O   LIG    1       25.922 -21.577   9.306  0.00  0.00    -0.274 OA
ATOM      4  N   LIG    1       27.824 -21.391   8.128  0.00  0.00    -0.239 N 
ATOM      5  H   LIG    1       28.313 -21.461   9.011  0.00  0.00    +0.159 HD
ATOM      6  C   LIG    1       28.520 -20.781   7.135  0.00  0.00    +0.312 C 
ATOM      7  O   LIG    1       29.672 -20.402   7.301  0.00  0.00    -0.252 OA
ATOM      8  N   LIG    1       27.849 -20.529   5.981  0.00  0.00    -0.239 N 
ATOM      9  H   LIG    1       28.360 -20.001   5.287  0.00  0.00    +0.159 HD
ATOM     10  C   LIG    1       26.489 -20.501   5.862  0.00  0.00    +0.235 C 
ATOM     11  O   LIG    1       25.973 -19.934   4.899  0.00  0.00    -0.274 OA
ENDROOT
BRANCH   1  13
ATOM     12  C   LIG    1       25.741 -23.868   7.242  0.00  0.00    +0.005 C 
ATOM     13  C   LIG    1       25.503 -22.693   6.300  0.00  0.00    +0.022 C 
ENDBRANCH   1  13
BRANCH   1  14
ATOM     14  C   LIG    1       24.333 -20.566   7.154  0.00  0.00    +0.026 C 
BRANCH  14  15
ATOM     15  C   LIG    1       23.125 -21.310   6.542  0.00  0.00    +0.004 C 
BRANCH  15  16
ATOM     16  C   LIG    1       22.690 -20.769   5.165  0.00  0.00    -0.017 C 
ATOM     17  C   LIG    1       22.529 -19.249   5.159  0.00  0.00    +0.007 C 
ATOM     18  C   LIG    1       21.371 -21.424   4.739  0.00  0.00    +0.007 C 
ENDBRANCH  15  16
ENDBRANCH  14  15
ENDBRANCH   1  14
TORSDOF 4
ENDMDL
MODEL 3
REMARK VINA RESULT:      -7.3      2.396      4.912
REMARK  Name = *****
REMARK                            x       y       z     vdW  Elec       q    Type
REMARK                         _______ _______ _______ _____ _____    ______ ____
ROOT
ATOM      1  C   LIG    1       23.798 -21.982   6.332  0.00  0.00    +0.123 C 
ATOM      2  C   LIG    1       25.201 -22.000   5.744  0.00  0.00    +0.235 C 
ATOM      3  O   LIG    1       25.644 -21.111   5.020  0.00  0.00    -0.274 OA
ATOM      4  N   LIG    1       26.002 -23.044   6.102  0.00  0.00    -0.239 N 
ATOM      5  H   LIG    1       26.922 -23.045   5.681  0.00  0.00    +0.159 HD
ATOM      6  C   LIG    1       25.545 -24.265   6.482  0.00  0.00    +0.312 C 
ATOM      7  O   LIG    1       26.232 -25.271   6.366  0.00  0.00    -0.252 OA
ATOM      8  N   LIG    1       24.256 -24.330   6.910  0.00  0.00    -0.239 N 
ATOM      9  H   LIG    1       23.911 -25.259   7.109  0.00  0.00    +0.159 HD
ATOM     10  C   LIG    1       23.303 -23.387   6.656  0.00  0.00    +0.235 C 
ATOM     11  O   LIG    1       22.112 -23.678   6.768  0.00  0.00    -0.274 OA
ENDROOT
BRANCH   1  13
ATOM     12  C   LIG    1       25.226 -20.787   8.172  0.00  0.00    +0.005 C 
ATOM     13  C   LIG    1       23.850 -21.251   7.707  0.00  0.00    +0.022 C 
ENDBRANCH   1  13
BRANCH   1  14
ATOM     14  C   LIG    1       22.810 -21.293   5.353  0.00  0.00    +0.026 C 
BRANCH  14  15
ATOM     15  C   LIG    1       22.634 -19.780   5.607  0.00  0.00    +0.004 C 
BRANCH  15  16
ATOM     16  C   LIG    1       22.581 -18.931   4.319  0.00  0.00    -0.017 C 
ATOM     17  C   LIG    1       23.916 -18.917   3.575  0.00  0.00    +0.007 C 
ATOM     18  C   LIG    1       22.167 -17.495   4.657  0.00  0.00    +0.007 C 
ENDBRANCH  15  16
ENDBRANCH  14  15
ENDBRANCH   1  14
TORSDOF 4
ENDMDL
MODEL 4
REMARK VINA RESULT:      -7.3      2.271      4.862
REMARK  Name = *****
REMARK                            x       y       z     vdW  Elec       q    Type
REMARK                         _______ _______ _______ _____ _____    ______ ____
ROOT
ATOM      1  C   LIG    1       26.692 -20.840   7.241  0.00  0.00    +0.123 C 
ATOM      2  C   LIG    1       26.183 -20.423   5.869  0.00  0.00    +0.235 C 
ATOM      3  O   LIG    1       26.914 -19.994   4.977  0.00  0.00    -0.274 OA
ATOM      4  N   LIG    1       24.853 -20.597   5.628  0.00  0.00    -0.239 N 
ATOM      5  H   LIG    1       24.535 -20.292   4.717  0.00  0.00    +0.159 HD
ATOM      6  C   LIG    1       23.896 -20.612   6.593  0.00  0.00    +0.312 C 
ATOM      7  O   LIG    1       22.732 -20.326   6.344  0.00  0.00    -0.252 OA
ATOM      8  N   LIG    1       24.310 -20.866   7.862  0.00  0.00    -0.239 N 
ATOM      9  H   LIG    1       23.597 -20.790   8.574  0.00  0.00    +0.159 HD
ATOM     10  C   LIG    1       25.598 -20.750   8.299  0.00  0.00    +0.235 C 
ATOM     11  O   LIG    1       25.826 -20.657   9.505  0.00  0.00    -0.274 OA
ENDROOT
BRANCH   1  13
ATOM     12  C   LIG    1       25.920 -23.340   7.325  0.00  0.00    +0.005 C 
ATOM     13  C   LIG    1       27.071 -22.350   7.186  0.00  0.00    +0.022 C 
ENDBRANCH   1  13
BRANCH   1  14
ATOM     14  C   LIG    1       27.898 -19.959   7.662  0.00  0.00    +0.026 C 
BRANCH  14  15
ATOM     15  C   LIG    1       29.271 -20.624   7.416  0.00  0.00    +0.004 C 
BRANCH  15  16
ATOM     16  C   LIG    1       30.336 -19.667   6.842  0.00  0.00    -0.017 C 
ATOM     17  C   LIG    1       31.245 -19.088   7.926  0.00  0.00    +0.007 C 
ATOM     18  C   LIG    1       29.655 -18.524   6.081  0.00  0.00    +0.007 C 
ENDBRANCH  15  16
ENDBRANCH  14  15
ENDBRANCH   1  14
TORSDOF 4
ENDMDL
MODEL 5
REMARK VINA RESULT:      -7.3      1.997      4.554
REMARK  Name = *****
REMARK                            x       y       z     vdW  Elec       q    Type
REMARK                         _______ _______ _______ _____ _____    ______ ____
ROOT
ATOM      1  C   LIG    1       25.087 -21.430   6.685  0.00  0.00    +0.123 C 
ATOM      2  C   LIG    1       25.517 -22.637   7.506  0.00  0.00    +0.235 C 
ATOM      3  O   LIG    1       26.058 -22.550   8.607  0.00  0.00    -0.274 OA
ATOM      4  N   LIG    1       25.223 -23.865   6.991  0.00  0.00    -0.239 N 
ATOM      5  H   LIG    1       25.538 -24.651   7.545  0.00  0.00    +0.159 HD
ATOM      6  C   LIG    1       25.068 -24.123   5.667  0.00  0.00    +0.312 C 
ATOM      7  O   LIG    1       25.248 -25.243   5.207  0.00  0.00    -0.252 OA
ATOM      8  N   LIG    1       24.795 -23.061   4.864  0.00  0.00    -0.239 N 
ATOM      9  H   LIG    1       24.765 -23.261   3.874  0.00  0.00    +0.159 HD
ATOM     10  C   LIG    1       25.017 -21.756   5.197  0.00  0.00    +0.235 C 
ATOM     11  O   LIG    1       25.075 -20.902   4.312  0.00  0.00    -0.274 OA
ENDROOT
BRANCH   1  13
ATOM     12  C   LIG    1       22.849 -20.215   6.080  0.00  0.00    +0.005 C 
ATOM     13  C   LIG    1       23.626 -21.061   7.082  0.00  0.00    +0.022 C 
ENDBRANCH   1  13
BRANCH   1  14
ATOM     14  C   LIG    1       26.062 -20.245   6.914  0.00  0.00    +0.026 C 
BRANCH  14  15
ATOM     15  C   LIG    1       27.493 -20.505   6.396  0.00  0.00    +0.004 C 
BRANCH  15  16
ATOM     16  C   LIG    1       28.602 -19.991   7.337  0.00  0.00    -0.017 C 
ATOM     17  C   LIG    1       29.543 -19.004   6.646  0.00  0.00    +0.007 C 
ATOM     18  C   LIG    1       29.412 -21.172   7.884  0.00  0.00    +0.007 C 
ENDBRANCH  15  16
ENDBRANCH  14  15
ENDBRANCH   1  14
TORSDOF 4
ENDMDL
MODEL 6
REMARK VINA RESULT:      -7.2      1.987      4.696
REMARK  Name = *****
REMARK                            x       y       z     vdW  Elec       q    Type
REMARK                         _______ _______ _______ _____ _____    ______ ____
ROOT
ATOM      1  C   LIG    1       24.499 -21.717   6.149  0.00  0.00    +0.123 C 
ATOM      2  C   LIG    1       23.972 -21.699   7.576  0.00  0.00    +0.235 C 
ATOM      3  O   LIG    1       22.803 -21.946   7.870  0.00  0.00    -0.274 OA
ATOM      4  N   LIG    1       24.878 -21.444   8.562  0.00  0.00    -0.239 N 
ATOM      5  H   LIG    1       24.500 -21.416   9.499  0.00  0.00    +0.159 HD
ATOM      6  C   LIG    1       26.023 -20.735   8.384  0.00  0.00    +0.312 C 
ATOM      7  O   LIG    1       26.568 -20.156   9.315  0.00  0.00    -0.252 OA
ATOM      8  N   LIG    1       26.481 -20.620   7.110  0.00  0.00    -0.239 N 
ATOM      9  H   LIG    1       27.286 -20.020   6.990  0.00  0.00    +0.159 HD
ATOM     10  C   LIG    1       25.730 -20.833   5.990  0.00  0.00    +0.235 C 
ATOM     11  O   LIG    1       26.105 -20.378   4.910  0.00  0.00    -0.274 OA
ENDROOT
BRANCH   1  13
ATOM     12  C   LIG    1       24.145 -24.302   6.364  0.00  0.00    +0.005 C 
ATOM     13  C   LIG    1       24.999 -23.158   5.828  0.00  0.00    +0.022 C 
ENDBRANCH   1  13
BRANCH   1  14
ATOM     14  C   LIG    1       23.396 -21.259   5.158  0.00  0.00    +0.026 C 
BRANCH  14  15
ATOM     15  C   LIG    1       22.808 -19.867   5.481  0.00  0.00    +0.004 C 
BRANCH  15  16
ATOM     16  C   LIG    1       22.634 -18.959   4.245  0.00  0.00    -0.017 C 
ATOM     17  C   LIG    1       23.932 -18.796   3.455  0.00  0.00    +0.007 C 
ATOM     18  C   LIG    1       22.122 -17.581   4.678  0.00  0.00    +0.007 C 
ENDBRANCH  15  16
ENDBRANCH  14  15
ENDBRANCH   1  14
TORSDOF 4
ENDMDL
MODEL 7
REMARK VINA RESULT:      -6.7      2.266      4.372
REMARK  Name = *****
REMARK                            x       y       z     vdW  Elec       q    Type
REMARK                         _______ _______ _______ _____ _____    ______ ____
ROOT
ATOM      1  C   LIG    1       25.020 -20.942   6.217  0.00  0.00    +0.123 C 
ATOM      2  C   LIG    1       25.219 -20.072   4.984  0.00  0.00    +0.235 C 
ATOM      3  O   LIG    1       26.322 -19.694   4.592  0.00  0.00    -0.274 OA
ATOM      4  N   LIG    1       24.102 -19.757   4.268  0.00  0.00    -0.239 N 
ATOM      5  H   LIG    1       24.258 -19.160   3.466  0.00  0.00    +0.159 HD
ATOM      6  C   LIG    1       22.850 -19.700   4.790  0.00  0.00    +0.312 C 
ATOM      7  O   LIG    1       21.974 -19.013   4.280  0.00  0.00    -0.252 OA
ATOM      8  N   LIG    1       22.641 -20.367   5.956  0.00  0.00    -0.239 N 
ATOM      9  H   LIG    1       21.727 -20.243   6.369  0.00  0.00    +0.159 HD
ATOM     10  C   LIG    1       23.627 -20.769   6.810  0.00  0.00    +0.235 C 
ATOM     11  O   LIG    1       23.348 -21.041   7.978  0.00  0.00    -0.274 OA
ENDROOT
BRANCH   1  13
ATOM     12  C   LIG    1       24.972 -23.470   6.894  0.00  0.00    +0.005 C 
ATOM     13  C   LIG    1       25.084 -22.436   5.779  0.00  0.00    +0.022 C 
ENDBRANCH   1  13
BRANCH   1  14
ATOM     14  C   LIG    1       26.090 -20.611   7.291  0.00  0.00    +0.026 C 
BRANCH  14  15
ATOM     15  C   LIG    1       27.506 -21.121   6.938  0.00  0.00    +0.004 C 
BRANCH  15  16
ATOM     16  C   LIG    1       28.643 -20.228   7.476  0.00  0.00    -0.017 C 
ATOM     17  C   LIG    1       29.211 -19.298   6.404  0.00  0.00    +0.007 C 
ATOM     18  C   LIG    1       29.768 -21.102   8.043  0.00  0.00    +0.007 C 
ENDBRANCH  15  16
ENDBRANCH  14  15
ENDBRANCH   1  14
TORSDOF 4
ENDMDL
MODEL 8
REMARK VINA RESULT:      -6.7      2.278      4.959
REMARK  Name = *****
REMARK                            x       y       z     vdW  Elec       q    Type
REMARK                         _______ _______ _______ _____ _____    ______ ____
ROOT
ATOM      1  C   LIG    1       24.585 -22.236   6.371  0.00  0.00    +0.123 C 
ATOM      2  C   LIG    1       25.594 -22.759   7.382  0.00  0.00    +0.235 C 
ATOM      3  O   LIG    1       26.056 -22.077   8.295  0.00  0.00    -0.274 OA
ATOM      4  N   LIG    1       25.945 -24.073   7.275  0.00  0.00    -0.239 N 
ATOM      5  H   LIG    1       26.633 -24.392   7.944  0.00  0.00    +0.159 HD
ATOM      6  C   LIG    1       25.894 -24.787   6.121  0.00  0.00    +0.312 C 
ATOM      7  O   LIG    1       26.600 -25.772   5.946  0.00  0.00    -0.252 OA
ATOM      8  N   LIG    1       25.094 -24.303   5.135  0.00  0.00    -0.239 N 
ATOM      9  H   LIG    1       25.135 -24.802   4.257  0.00  0.00    +0.159 HD
ATOM     10  C   LIG    1       24.637 -23.018   5.064  0.00  0.00    +0.235 C 
ATOM     11  O   LIG    1       24.224 -22.577   3.992  0.00  0.00    -0.274 OA
ENDROOT
BRANCH   1  13
ATOM     12  C   LIG    1       22.584 -23.887   6.720  0.00  0.00    +0.005 C 
ATOM     13  C   LIG    1       23.153 -22.489   6.931  0.00  0.00    +0.022 C 
ENDBRANCH   1  13
BRANCH   1  14
ATOM     14  C   LIG    1       24.833 -20.730   6.089  0.00  0.00    +0.026 C 
BRANCH  14  15
ATOM     15  C   LIG    1       23.538 -19.897   5.963  0.00  0.00    +0.004 C 
BRANCH  15  16
ATOM     16  C   LIG    1       23.178 -19.516   4.512  0.00  0.00    -0.017 C 
ATOM     17  C   LIG    1       24.404 -19.119   3.692  0.00  0.00    +0.007 C 
ATOM     18  C   LIG    1       22.166 -18.365   4.511  0.00  0.00    +0.007 C 
ENDBRANCH  15  16
ENDBRANCH  14  15
ENDBRANCH   1  14
TORSDOF 4
ENDMDL
MODEL 9
REMARK VINA RESULT:      -6.6      3.686      6.471
REMARK  Name = *****
REMARK                            x       y       z     vdW  Elec       q    Type
REMARK                         _______ _______ _______ _____ _____    ______ ____
ROOT
ATOM      1  C   LIG    1       28.834 -19.767   7.348  0.00  0.00    +0.123 C 
ATOM      2  C   LIG    1       28.906 -19.175   5.949  0.00  0.00    +0.235 C 
ATOM      3  O   LIG    1       29.766 -18.369   5.596  0.00  0.00    -0.274 OA
ATOM      4  N   LIG    1       27.987 -19.621   5.046  0.00  0.00    -0.239 N 
ATOM      5  H   LIG    1       28.041 -19.197   4.129  0.00  0.00    +0.159 HD
ATOM      6  C   LIG    1       26.766 -20.115   5.377  0.00  0.00    +0.312 C 
ATOM      7  O   LIG    1       25.829 -20.087   4.590  0.00  0.00    -0.252 OA
ATOM      8  N   LIG    1       26.608 -20.555   6.653  0.00  0.00    -0.239 N 
ATOM      9  H   LIG    1       25.671 -20.840   6.902  0.00  0.00    +0.159 HD
ATOM     10  C   LIG    1       27.422 -20.221   7.698  0.00  0.00    +0.235 C 
ATOM     11  O   LIG    1       27.022 -20.368   8.852  0.00  0.00    -0.274 OA
ENDROOT
BRANCH   1  13
ATOM     12  C   LIG    1       30.213 -21.504   8.739  0.00  0.00    +0.005 C 
ATOM     13  C   LIG    1       29.690 -21.069   7.375  0.00  0.00    +0.022 C 
ENDBRANCH   1  13
BRANCH   1  14
ATOM     14  C   LIG    1       29.325 -18.735   8.398  0.00  0.00    +0.026 C 
BRANCH  14  15
ATOM     15  C   LIG    1       30.827 -18.393   8.281  0.00  0.00    +0.004 C 
BRANCH  15  16
ATOM     16  C   LIG    1       31.451 -17.858   9.586  0.00  0.00    -0.017 C 
ATOM     17  C   LIG    1       30.400 -17.548  10.651  0.00  0.00    +0.007 C 
ATOM     18  C   LIG    1       32.272 -16.597   9.295  0.00  0.00    +0.007 C 
ENDBRANCH  15  16
ENDBRANCH  14  15
ENDBRANCH   1  14
TORSDOF 4
ENDMDL
