MODEL 1
REMARK VINA RESULT:      -4.7      0.000      0.000
REMARK  Name = *****
REMARK                            x       y       z     vdW  Elec       q    Type
REMARK                         _______ _______ _______ _____ _____    ______ ____
ROOT
ATOM      1  C   LIG    1       26.082 -18.873   4.877  0.00  0.00    +0.178 C 
ENDROOT
BRANCH   1   6
ATOM      2 CL   LIG    1       20.642 -21.571   4.739  0.00  0.00    -0.084 Cl
ATOM      3  C   LIG    1       22.193 -20.824   4.775  0.00  0.00    +0.041 A 
ATOM      4  C   LIG    1       22.554 -19.930   3.771  0.00  0.00    +0.020 A 
ATOM      5  C   LIG    1       23.812 -19.315   3.805  0.00  0.00    +0.008 A 
ATOM      6  C   LIG    1       24.731 -19.596   4.836  0.00  0.00    -0.014 A 
ATOM      7  C   LIG    1       24.344 -20.511   5.832  0.00  0.00    +0.008 A 
ATOM      8  C   LIG    1       23.080 -21.114   5.807  0.00  0.00    +0.020 A 
ENDBRANCH   1   6
BRANCH   1   9
ATOM      9  C   LIG    1       27.147 -19.665   5.631  0.00  0.00    -0.015 A 
ATOM     10  C   LIG    1       28.509 -19.310   5.572  0.00  0.00    +0.006 A 
ATOM     11  C   LIG    1       29.472 -20.062   6.245  0.00  0.00    +0.000 A 
ATOM     12  C   LIG    1       29.103 -21.186   6.976  0.00  0.00    +0.000 A 
ATOM     13  C   LIG    1       27.756 -21.543   7.061  0.00  0.00    +0.000 A 
ATOM     14  C   LIG    1       26.788 -20.774   6.413  0.00  0.00    +0.006 A 
ENDBRANCH   1   9
BRANCH   1  15
ATOM     15  O   LIG    1       26.524 -18.553   3.541  0.00  0.00    -0.366 OA
BRANCH  15  16
ATOM     16  C   LIG    1       26.002 -17.292   3.089  0.00  0.00    +0.176 C 
BRANCH  16  17
ATOM     17  C   LIG    1       26.883 -16.125   3.576  0.00  0.00    +0.112 C 
BRANCH  17  18
ATOM     18  N   LIG    1       26.261 -14.785   3.610  0.00  0.00    -0.300 NA
ATOM     19  C   LIG    1       24.796 -14.844   3.716  0.00  0.00    +0.084 C 
ATOM     20  C   LIG    1       24.199 -13.446   3.899  0.00  0.00    +0.015 C 
ATOM     21  C   LIG    1       24.624 -12.513   2.770  0.00  0.00    +0.002 C 
ATOM     22  C   LIG    1       26.141 -12.514   2.628  0.00  0.00    +0.015 C 
ATOM     23  C   LIG    1       26.686 -13.938   2.490  0.00  0.00    +0.084 C 
ENDBRANCH  17  18
ENDBRANCH  16  17
ENDBRANCH  15  16
ENDBRANCH   1  15
TORSDOF 6
ENDMDL
MODEL 2
REMARK VINA RESULT:      -4.0      2.838      5.807
REMARK  Name = *****
REMARK                            x       y       z     vdW  Elec       q    Type
REMARK                         _______ _______ _______ _____ _____    ______ ____
ROOT
ATOM      1  C   LIG    1       26.256 -17.984   3.364  0.00  0.00    +0.178 C 
ENDROOT
BRANCH   1   6
ATOM      2 CL   LIG    1       24.588 -12.178   4.001  0.00  0.00    -0.084 Cl
ATOM      3  C   LIG    1       25.073 -13.822   3.836  0.00  0.00    +0.041 A 
ATOM      4  C   LIG    1       24.167 -14.843   4.110  0.00  0.00    +0.020 A 
ATOM      5  C   LIG    1       24.560 -16.179   3.967  0.00  0.00    +0.008 A 
ATOM      6  C   LIG    1       25.867 -16.514   3.561  0.00  0.00    -0.014 A 
ATOM      7  C   LIG    1       26.765 -15.464   3.301  0.00  0.00    +0.008 A 
ATOM      8  C   LIG    1       26.369 -14.126   3.429  0.00  0.00    +0.020 A 
ENDBRANCH   1   6
BRANCH   1   9
ATOM      9  C   LIG    1       27.262 -18.466   4.406  0.00  0.00    -0.015 A 
ATOM     10  C   LIG    1       27.021 -19.613   5.188  0.00  0.00    +0.006 A 
ATOM     11  C   LIG    1       27.939 -20.023   6.155  0.00  0.00    +0.000 A 
ATOM     12  C   LIG    1       29.105 -19.298   6.372  0.00  0.00    +0.000 A 
ATOM     13  C   LIG    1       29.372 -18.169   5.593  0.00  0.00    +0.000 A 
ATOM     14  C   LIG    1       28.468 -17.774   4.606  0.00  0.00    +0.006 A 
ENDBRANCH   1   9
BRANCH   1  15
ATOM     15  O   LIG    1       25.080 -18.821   3.354  0.00  0.00    -0.366 OA
BRANCH  15  16
ATOM     16  C   LIG    1       25.219 -19.932   2.453  0.00  0.00    +0.176 C 
BRANCH  16  17
ATOM     17  C   LIG    1       24.298 -21.096   2.869  0.00  0.00    +0.112 C 
BRANCH  17  18
ATOM     18  N   LIG    1       23.717 -21.037   4.228  0.00  0.00    -0.300 NA
ATOM     19  C   LIG    1       23.174 -19.711   4.553  0.00  0.00    +0.084 C 
ATOM     20  C   LIG    1       22.450 -19.727   5.903  0.00  0.00    +0.015 C 
ATOM     21  C   LIG    1       23.367 -20.226   7.014  0.00  0.00    +0.002 C 
ATOM     22  C   LIG    1       23.975 -21.570   6.633  0.00  0.00    +0.015 C 
ATOM     23  C   LIG    1       24.648 -21.506   5.260  0.00  0.00    +0.084 C 
ENDBRANCH  17  18
ENDBRANCH  16  17
ENDBRANCH  15  16
ENDBRANCH   1  15
TORSDOF 6
ENDMDL
MODEL 3
REMARK VINA RESULT:      -3.1      2.818      6.732
REMARK  Name = *****
REMARK                            x       y       z     vdW  Elec       q    Type
REMARK                         _______ _______ _______ _____ _____    ______ ____
ROOT
ATOM      1  C   LIG    1       24.099 -18.472   4.119  0.00  0.00    +0.178 C 
ENDROOT
BRANCH   1   6
ATOM      2 CL   LIG    1       24.827 -12.462   3.628  0.00  0.00    -0.084 Cl
ATOM      3  C   LIG    1       24.606 -14.165   3.754  0.00  0.00    +0.041 A 
ATOM      4  C   LIG    1       25.594 -15.028   3.289  0.00  0.00    +0.020 A 
ATOM      5  C   LIG    1       25.418 -16.413   3.400  0.00  0.00    +0.008 A 
ATOM      6  C   LIG    1       24.246 -16.954   3.965  0.00  0.00    -0.014 A 
ATOM      7  C   LIG    1       23.260 -16.060   4.417  0.00  0.00    +0.008 A 
ATOM      8  C   LIG    1       23.442 -14.675   4.321  0.00  0.00    +0.020 A 
ENDBRANCH   1   6
BRANCH   1   9
ATOM      9  C   LIG    1       22.646 -18.931   4.034  0.00  0.00    -0.015 A 
ATOM     10  C   LIG    1       22.234 -20.174   4.554  0.00  0.00    +0.006 A 
ATOM     11  C   LIG    1       20.907 -20.590   4.442  0.00  0.00    +0.000 A 
ATOM     12  C   LIG    1       19.969 -19.787   3.803  0.00  0.00    +0.000 A 
ATOM     13  C   LIG    1       20.354 -18.543   3.298  0.00  0.00    +0.000 A 
ATOM     14  C   LIG    1       21.675 -18.113   3.435  0.00  0.00    +0.006 A 
ENDBRANCH   1   9
BRANCH   1  15
ATOM     15  O   LIG    1       24.917 -19.160   3.148  0.00  0.00    -0.366 OA
BRANCH  15  16
ATOM     16  C   LIG    1       25.289 -20.475   3.593  0.00  0.00    +0.176 C 
BRANCH  16  17
ATOM     17  C   LIG    1       25.623 -20.472   5.098  0.00  0.00    +0.112 C 
BRANCH  17  18
ATOM     18  N   LIG    1       27.054 -20.441   5.467  0.00  0.00    -0.300 NA
ATOM     19  C   LIG    1       27.313 -21.049   6.780  0.00  0.00    +0.084 C 
ATOM     20  C   LIG    1       28.816 -21.135   7.062  0.00  0.00    +0.015 C 
ATOM     21  C   LIG    1       29.475 -19.764   6.958  0.00  0.00    +0.002 C 
ATOM     22  C   LIG    1       29.142 -19.118   5.618  0.00  0.00    +0.015 C 
ATOM     23  C   LIG    1       27.632 -19.096   5.372  0.00  0.00    +0.084 C 
ENDBRANCH  17  18
ENDBRANCH  16  17
ENDBRANCH  15  16
ENDBRANCH   1  15
TORSDOF 6
ENDMDL
MODEL 4
REMARK VINA RESULT:      -2.3      1.416      2.136
REMARK  Name = *****
REMARK                            x       y       z     vdW  Elec       q    Type
REMARK                         _______ _______ _______ _____ _____    ______ ____
ROOT
ATOM      1  C   LIG    1       25.410 -18.639   4.627  0.00  0.00    +0.178 C 
ENDROOT
BRANCH   1   6
ATOM      2 CL   LIG    1       19.570 -20.123   3.859  0.00  0.00    -0.084 Cl
ATOM      3  C   LIG    1       21.230 -19.713   4.061  0.00  0.00    +0.041 A 
ATOM      4  C   LIG    1       21.642 -18.393   3.900  0.00  0.00    +0.020 A 
ATOM      5  C   LIG    1       22.991 -18.058   4.073  0.00  0.00    +0.008 A 
ATOM      6  C   LIG    1       23.948 -19.040   4.396  0.00  0.00    -0.014 A 
ATOM      7  C   LIG    1       23.507 -20.367   4.541  0.00  0.00    +0.008 A 
ATOM      8  C   LIG    1       22.156 -20.701   4.384  0.00  0.00    +0.020 A 
ENDBRANCH   1   6
BRANCH   1   9
ATOM      9  C   LIG    1       26.172 -19.663   5.464  0.00  0.00    -0.015 A 
ATOM     10  C   LIG    1       25.501 -20.658   6.201  0.00  0.00    +0.006 A 
ATOM     11  C   LIG    1       26.213 -21.569   6.983  0.00  0.00    +0.000 A 
ATOM     12  C   LIG    1       27.599 -21.501   7.057  0.00  0.00    +0.000 A 
ATOM     13  C   LIG    1       28.284 -20.533   6.318  0.00  0.00    +0.000 A 
ATOM     14  C   LIG    1       27.575 -19.640   5.513  0.00  0.00    +0.006 A 
ENDBRANCH   1   9
BRANCH   1  15
ATOM     15  O   LIG    1       26.075 -18.402   3.368  0.00  0.00    -0.366 OA
BRANCH  15  16
ATOM     16  C   LIG    1       26.812 -17.168   3.372  0.00  0.00    +0.176 C 
BRANCH  16  17
ATOM     17  C   LIG    1       25.890 -15.976   3.048  0.00  0.00    +0.112 C 
BRANCH  17  18
ATOM     18  N   LIG    1       26.334 -14.642   3.506  0.00  0.00    -0.300 NA
ATOM     19  C   LIG    1       27.767 -14.604   3.829  0.00  0.00    +0.084 C 
ATOM     20  C   LIG    1       28.222 -13.178   4.154  0.00  0.00    +0.015 C 
ATOM     21  C   LIG    1       27.394 -12.581   5.287  0.00  0.00    +0.002 C 
ATOM     22  C   LIG    1       25.907 -12.689   4.968  0.00  0.00    +0.015 C 
ATOM     23  C   LIG    1       25.519 -14.125   4.611  0.00  0.00    +0.084 C 
ENDBRANCH  17  18
ENDBRANCH  16  17
ENDBRANCH  15  16
ENDBRANCH   1  15
TORSDOF 6
ENDMDL
MODEL 5
REMARK VINA RESULT:      -2.2      2.597      6.443
REMARK  Name = *****
REMARK                            x       y       z     vdW  Elec       q    Type
REMARK                         _______ _______ _______ _____ _____    ______ ____
ROOT
ATOM      1  C   LIG    1       25.502 -15.969   3.066  0.00  0.00    +0.178 C 
ENDROOT
BRANCH   1   6
ATOM      2 CL   LIG    1       20.793 -15.140   6.812  0.00  0.00    -0.084 Cl
ATOM      3  C   LIG    1       22.115 -15.375   5.734  0.00  0.00    +0.041 A 
ATOM      4  C   LIG    1       23.059 -14.366   5.566  0.00  0.00    +0.020 A 
ATOM      5  C   LIG    1       24.139 -14.561   4.696  0.00  0.00    +0.008 A 
ATOM      6  C   LIG    1       24.284 -15.762   3.974  0.00  0.00    -0.014 A 
ATOM      7  C   LIG    1       23.310 -16.761   4.155  0.00  0.00    +0.008 A 
ATOM      8  C   LIG    1       22.238 -16.572   5.036  0.00  0.00    +0.020 A 
ENDBRANCH   1   6
BRANCH   1   9
ATOM      9  C   LIG    1       26.493 -14.811   3.143  0.00  0.00    -0.015 A 
ATOM     10  C   LIG    1       27.660 -14.891   3.928  0.00  0.00    +0.006 A 
ATOM     11  C   LIG    1       28.540 -13.812   4.009  0.00  0.00    +0.000 A 
ATOM     12  C   LIG    1       28.273 -12.631   3.324  0.00  0.00    +0.000 A 
ATOM     13  C   LIG    1       27.130 -12.539   2.526  0.00  0.00    +0.000 A 
ATOM     14  C   LIG    1       26.264 -13.629   2.420  0.00  0.00    +0.006 A 
ENDBRANCH   1   9
BRANCH   1  15
ATOM     15  O   LIG    1       26.149 -17.224   3.366  0.00  0.00    -0.366 OA
BRANCH  15  16
ATOM     16  C   LIG    1       25.221 -18.323   3.358  0.00  0.00    +0.176 C 
BRANCH  16  17
ATOM     17  C   LIG    1       25.870 -19.593   3.942  0.00  0.00    +0.112 C 
BRANCH  17  18
ATOM     18  N   LIG    1       25.025 -20.433   4.819  0.00  0.00    -0.300 NA
ATOM     19  C   LIG    1       23.612 -20.030   4.798  0.00  0.00    +0.084 C 
ATOM     20  C   LIG    1       22.747 -21.009   5.596  0.00  0.00    +0.015 C 
ATOM     21  C   LIG    1       23.250 -21.148   7.028  0.00  0.00    +0.002 C 
ATOM     22  C   LIG    1       24.733 -21.500   7.035  0.00  0.00    +0.015 C 
ATOM     23  C   LIG    1       25.542 -20.514   6.190  0.00  0.00    +0.084 C 
ENDBRANCH  17  18
ENDBRANCH  16  17
ENDBRANCH  15  16
ENDBRANCH   1  15
TORSDOF 6
ENDMDL
