MODEL 1
REMARK VINA RESULT:      -3.1      0.000      0.000
REMARK  Name = *****
REMARK                            x       y       z     vdW  Elec       q    Type
REMARK                         _______ _______ _______ _____ _____    ______ ____
ROOT
ATOM      1  C   LIG    1       26.095 -13.254   2.607  0.00  0.00    +0.159 C 
ATOM      2  O   LIG    1       26.651 -14.351   1.872  0.00  0.00    -0.370 OA
ATOM      3  C   LIG    1       27.332 -13.975   3.078  0.00  0.00    +0.193 C 
ENDROOT
BRANCH   1   5
ATOM      4 CL   LIG    1       23.848 -12.004   3.337  0.00  0.00    -0.123 Cl
ATOM      5  C   LIG    1       24.773 -13.517   3.240  0.00  0.00    +0.142 C 
ENDBRANCH   1   5
TORSDOF 1
ENDMDL
MODEL 2
REMARK VINA RESULT:      -3.0      2.019      2.502
REMARK  Name = *****
REMARK                            x       y       z     vdW  Elec       q    Type
REMARK                         _______ _______ _______ _____ _____    ______ ____
ROOT
ATOM      1  C   LIG    1       26.372 -14.439   3.221  0.00  0.00    +0.159 C 
ATOM      2  O   LIG    1       26.638 -14.338   1.817  0.00  0.00    -0.370 OA
ATOM      3  C   LIG    1       25.736 -13.369   2.371  0.00  0.00    +0.193 C 
ENDROOT
BRANCH   1   5
ATOM      4 CL   LIG    1       26.920 -13.554   5.683  0.00  0.00    -0.123 Cl
ATOM      5  C   LIG    1       27.523 -14.120   4.111  0.00  0.00    +0.142 C 
ENDBRANCH   1   5
TORSDOF 1
ENDMDL
MODEL 3
REMARK VINA RESULT:      -2.9      2.383      2.732
REMARK  Name = *****
REMARK                            x       y       z     vdW  Elec       q    Type
REMARK                         _______ _______ _______ _____ _____    ______ ____
ROOT
ATOM      1  C   LIG    1       26.243 -14.431   3.282  0.00  0.00    +0.159 C 
ATOM      2  O   LIG    1       26.751 -14.190   1.964  0.00  0.00    -0.370 OA
ATOM      3  C   LIG    1       25.540 -13.508   2.320  0.00  0.00    +0.193 C 
ENDROOT
BRANCH   1   5
ATOM      4 CL   LIG    1       28.622 -13.305   3.747  0.00  0.00    -0.123 Cl
ATOM      5  C   LIG    1       27.072 -13.885   4.391  0.00  0.00    +0.142 C 
ENDBRANCH   1   5
TORSDOF 1
ENDMDL
MODEL 4
REMARK VINA RESULT:      -2.8      1.320      1.320
REMARK  Name = *****
REMARK                            x       y       z     vdW  Elec       q    Type
REMARK                         _______ _______ _______ _____ _____    ______ ____
ROOT
ATOM      1  C   LIG    1       25.974 -13.661   2.516  0.00  0.00    +0.159 C 
ATOM      2  O   LIG    1       26.452 -14.995   2.727  0.00  0.00    -0.370 OA
ATOM      3  C   LIG    1       27.385 -13.933   2.970  0.00  0.00    +0.193 C 
ENDROOT
BRANCH   1   5
ATOM      4 CL   LIG    1       23.971 -14.581   4.027  0.00  0.00    -0.123 Cl
ATOM      5  C   LIG    1       24.940 -13.197   3.481  0.00  0.00    +0.142 C 
ENDBRANCH   1   5
TORSDOF 1
ENDMDL
MODEL 5
REMARK VINA RESULT:      -2.8      7.162      7.273
REMARK  Name = *****
REMARK                            x       y       z     vdW  Elec       q    Type
REMARK                         _______ _______ _______ _____ _____    ______ ____
ROOT
ATOM      1  C   LIG    1       23.807 -20.496   4.209  0.00  0.00    +0.159 C 
ATOM      2  O   LIG    1       24.634 -21.547   4.724  0.00  0.00    -0.370 OA
ATOM      3  C   LIG    1       25.281 -20.295   4.452  0.00  0.00    +0.193 C 
ENDROOT
BRANCH   1   5
ATOM      4 CL   LIG    1       22.191 -18.398   4.567  0.00  0.00    -0.123 Cl
ATOM      5  C   LIG    1       22.798 -19.957   5.162  0.00  0.00    +0.142 C 
ENDBRANCH   1   5
TORSDOF 1
ENDMDL
MODEL 6
REMARK VINA RESULT:      -2.7      7.583      7.712
REMARK  Name = *****
REMARK                            x       y       z     vdW  Elec       q    Type
REMARK                         _______ _______ _______ _____ _____    ______ ____
ROOT
ATOM      1  C   LIG    1       23.849 -20.637   4.383  0.00  0.00    +0.159 C 
ATOM      2  O   LIG    1       25.179 -20.901   4.845  0.00  0.00    -0.370 OA
ATOM      3  C   LIG    1       25.032 -19.852   3.878  0.00  0.00    +0.193 C 
ENDROOT
BRANCH   1   5
ATOM      4 CL   LIG    1       23.321 -20.708   7.002  0.00  0.00    -0.123 Cl
ATOM      5  C   LIG    1       22.928 -20.056   5.398  0.00  0.00    +0.142 C 
ENDBRANCH   1   5
TORSDOF 1
ENDMDL
MODEL 7
REMARK VINA RESULT:      -2.6      7.733      7.986
REMARK  Name = *****
REMARK                            x       y       z     vdW  Elec       q    Type
REMARK                         _______ _______ _______ _____ _____    ______ ____
ROOT
ATOM      1  C   LIG    1       23.623 -21.062   5.428  0.00  0.00    +0.159 C 
ATOM      2  O   LIG    1       22.725 -20.070   5.941  0.00  0.00    -0.370 OA
ATOM      3  C   LIG    1       23.472 -20.822   6.909  0.00  0.00    +0.193 C 
ENDROOT
BRANCH   1   5
ATOM      4 CL   LIG    1       24.302 -19.153   3.686  0.00  0.00    -0.123 Cl
ATOM      5  C   LIG    1       24.801 -20.532   4.688  0.00  0.00    +0.142 C 
ENDBRANCH   1   5
TORSDOF 1
ENDMDL
MODEL 8
REMARK VINA RESULT:      -2.6      2.590      2.998
REMARK  Name = *****
REMARK                            x       y       z     vdW  Elec       q    Type
REMARK                         _______ _______ _______ _____ _____    ______ ____
ROOT
ATOM      1  C   LIG    1       25.597 -13.468   3.184  0.00  0.00    +0.159 C 
ATOM      2  O   LIG    1       25.537 -13.449   4.616  0.00  0.00    -0.370 OA
ATOM      3  C   LIG    1       24.655 -14.363   3.948  0.00  0.00    +0.193 C 
ENDROOT
BRANCH   1   5
ATOM      4 CL   LIG    1       28.229 -13.547   3.643  0.00  0.00    -0.123 Cl
ATOM      5  C   LIG    1       26.860 -14.007   2.609  0.00  0.00    +0.142 C 
ENDBRANCH   1   5
TORSDOF 1
ENDMDL
MODEL 9
REMARK VINA RESULT:      -2.6      7.436      7.671
REMARK  Name = *****
REMARK                            x       y       z     vdW  Elec       q    Type
REMARK                         _______ _______ _______ _____ _____    ______ ____
ROOT
ATOM      1  C   LIG    1       23.474 -20.706   4.516  0.00  0.00    +0.159 C 
ATOM      2  O   LIG    1       22.330 -20.990   5.329  0.00  0.00    -0.370 OA
ATOM      3  C   LIG    1       23.607 -21.032   5.981  0.00  0.00    +0.193 C 
ENDROOT
BRANCH   1   5
ATOM      4 CL   LIG    1       22.040 -18.461   4.309  0.00  0.00    -0.123 Cl
ATOM      5  C   LIG    1       23.581 -19.300   4.037  0.00  0.00    +0.142 C 
ENDBRANCH   1   5
TORSDOF 1
ENDMDL
