MODEL 1
REMARK VINA RESULT:      -7.9      0.000      0.000
REMARK  Name = *****
REMARK                            x       y       z     vdW  Elec       q    Type
REMARK                         _______ _______ _______ _____ _____    ______ ____
ROOT
ATOM      1  C   LIG    1       25.077 -20.534   6.625  0.00  0.00    -0.047 A 
ATOM      2  C   LIG    1       25.769 -20.609   7.840  0.00  0.00    +0.004 A 
ATOM      3  C   LIG    1       27.158 -20.466   7.883  0.00  0.00    +0.005 A 
ATOM      4  C   LIG    1       27.890 -20.264   6.705  0.00  0.00    -0.034 A 
ATOM      5  C   LIG    1       27.198 -20.200   5.487  0.00  0.00    +0.005 A 
ATOM      6  C   LIG    1       25.805 -20.327   5.447  0.00  0.00    +0.004 A 
ENDROOT
BRANCH   4   7
ATOM      7  C   LIG    1       29.403 -20.127   6.766  0.00  0.00    +0.124 C 
ATOM      8  C   LIG    1       29.976 -20.821   8.006  0.00  0.00    +0.024 C 
BRANCH   7   9
ATOM      9  C   LIG    1       29.873 -18.676   6.681  0.00  0.00    +0.312 C 
ATOM     10  O   LIG    1       30.325 -18.031   7.614  0.00  0.00    -0.250 OA
BRANCH   9  11
ATOM     11  O   LIG    1       29.812 -18.159   5.429  0.00  0.00    -0.480 OA
ATOM     12  H   LIG    1       30.623 -18.315   4.904  0.00  0.00    +0.295 HD
ENDBRANCH   9  11
ENDBRANCH   7   9
ENDBRANCH   4   7
BRANCH   1  13
ATOM     13  C   LIG    1       23.570 -20.649   6.596  0.00  0.00    +0.038 C 
BRANCH  13  15
ATOM     14  C   LIG    1       21.796 -21.431   4.993  0.00  0.00    +0.007 C 
ATOM     15  C   LIG    1       22.937 -20.431   5.205  0.00  0.00    -0.013 C 
ATOM     16  C   LIG    1       22.399 -19.011   5.011  0.00  0.00    +0.007 C 
ENDBRANCH  13  15
ENDBRANCH   1  13
TORSDOF 5
ENDMDL
MODEL 2
REMARK VINA RESULT:      -7.8      1.479      2.183
REMARK  Name = *****
REMARK                            x       y       z     vdW  Elec       q    Type
REMARK                         _______ _______ _______ _____ _____    ______ ____
ROOT
ATOM      1  C   LIG    1       26.268 -20.464   6.164  0.00  0.00    -0.047 A 
ATOM      2  C   LIG    1       26.327 -20.650   7.550  0.00  0.00    +0.004 A 
ATOM      3  C   LIG    1       27.479 -20.319   8.268  0.00  0.00    +0.005 A 
ATOM      4  C   LIG    1       28.607 -19.811   7.611  0.00  0.00    -0.034 A 
ATOM      5  C   LIG    1       28.551 -19.635   6.220  0.00  0.00    +0.005 A 
ATOM      6  C   LIG    1       27.391 -19.952   5.504  0.00  0.00    +0.004 A 
ENDROOT
BRANCH   4   7
ATOM      7  C   LIG    1       29.859 -19.471   8.403  0.00  0.00    +0.124 C 
ATOM      8  C   LIG    1       29.998 -17.958   8.601  0.00  0.00    +0.024 C 
BRANCH   7   9
ATOM      9  C   LIG    1       31.127 -20.066   7.797  0.00  0.00    +0.312 C 
ATOM     10  O   LIG    1       31.869 -19.488   7.017  0.00  0.00    -0.250 OA
BRANCH   9  11
ATOM     11  O   LIG    1       31.418 -21.308   8.258  0.00  0.00    -0.480 OA
ATOM     12  H   LIG    1       31.001 -21.511   9.120  0.00  0.00    +0.295 HD
ENDBRANCH   9  11
ENDBRANCH   7   9
ENDBRANCH   4   7
BRANCH   1  13
ATOM     13  C   LIG    1       25.001 -20.787   5.403  0.00  0.00    +0.038 C 
BRANCH  13  15
ATOM     14  C   LIG    1       22.692 -19.789   5.388  0.00  0.00    +0.007 C 
ATOM     15  C   LIG    1       23.701 -20.594   6.212  0.00  0.00    -0.013 C 
ATOM     16  C   LIG    1       23.058 -21.920   6.632  0.00  0.00    +0.007 C 
ENDBRANCH  13  15
ENDBRANCH   1  13
TORSDOF 5
ENDMDL
MODEL 3
REMARK VINA RESULT:      -7.8      1.550      2.486
REMARK  Name = *****
REMARK                            x       y       z     vdW  Elec       q    Type
REMARK                         _______ _______ _______ _____ _____    ______ ____
ROOT
ATOM      1  C   LIG    1       26.021 -20.502   6.070  0.00  0.00    -0.047 A 
ATOM      2  C   LIG    1       27.188 -20.057   5.440  0.00  0.00    +0.004 A 
ATOM      3  C   LIG    1       28.339 -19.773   6.181  0.00  0.00    +0.005 A 
ATOM      4  C   LIG    1       28.339 -19.910   7.575  0.00  0.00    -0.034 A 
ATOM      5  C   LIG    1       27.166 -20.345   8.208  0.00  0.00    +0.005 A 
ATOM      6  C   LIG    1       26.019 -20.645   7.463  0.00  0.00    +0.004 A 
ENDROOT
BRANCH   4   7
ATOM      7  C   LIG    1       29.593 -19.582   8.370  0.00  0.00    +0.124 C 
ATOM      8  C   LIG    1       30.279 -18.322   7.832  0.00  0.00    +0.024 C 
BRANCH   7   9
ATOM      9  C   LIG    1       30.572 -20.752   8.446  0.00  0.00    +0.312 C 
ATOM     10  O   LIG    1       30.398 -21.768   9.101  0.00  0.00    -0.250 OA
BRANCH   9  11
ATOM     11  O   LIG    1       31.659 -20.603   7.649  0.00  0.00    -0.480 OA
ATOM     12  H   LIG    1       31.606 -19.823   7.061  0.00  0.00    +0.295 HD
ENDBRANCH   9  11
ENDBRANCH   7   9
ENDBRANCH   4   7
BRANCH   1  13
ATOM     13  C   LIG    1       24.795 -20.845   5.254  0.00  0.00    +0.038 C 
BRANCH  13  15
ATOM     14  C   LIG    1       22.519 -19.775   5.180  0.00  0.00    +0.007 C 
ATOM     15  C   LIG    1       23.457 -20.667   6.001  0.00  0.00    -0.013 C 
ATOM     16  C   LIG    1       22.754 -21.996   6.291  0.00  0.00    +0.007 C 
ENDBRANCH  13  15
ENDBRANCH   1  13
TORSDOF 5
ENDMDL
MODEL 4
REMARK VINA RESULT:      -7.8      4.983      5.869
REMARK  Name = *****
REMARK                            x       y       z     vdW  Elec       q    Type
REMARK                         _______ _______ _______ _____ _____    ______ ____
ROOT
ATOM      1  C   LIG    1       24.017 -22.639   7.062  0.00  0.00    -0.047 A 
ATOM      2  C   LIG    1       25.368 -22.958   7.239  0.00  0.00    +0.004 A 
ATOM      3  C   LIG    1       25.834 -24.255   7.006  0.00  0.00    +0.005 A 
ATOM      4  C   LIG    1       24.951 -25.268   6.609  0.00  0.00    -0.034 A 
ATOM      5  C   LIG    1       23.595 -24.951   6.443  0.00  0.00    +0.005 A 
ATOM      6  C   LIG    1       23.133 -23.647   6.660  0.00  0.00    +0.004 A 
ENDROOT
BRANCH   4   7
ATOM      7  C   LIG    1       25.470 -26.678   6.376  0.00  0.00    +0.124 C 
ATOM      8  C   LIG    1       26.181 -27.222   7.619  0.00  0.00    +0.024 C 
BRANCH   7   9
ATOM      9  C   LIG    1       26.359 -26.788   5.140  0.00  0.00    +0.312 C 
ATOM     10  O   LIG    1       25.978 -26.643   3.988  0.00  0.00    -0.250 OA
BRANCH   9  11
ATOM     11  O   LIG    1       27.667 -27.000   5.429  0.00  0.00    -0.480 OA
ATOM     12  H   LIG    1       28.095 -27.654   4.841  0.00  0.00    +0.295 HD
ENDBRANCH   9  11
ENDBRANCH   7   9
ENDBRANCH   4   7
BRANCH   1  13
ATOM     13  C   LIG    1       23.533 -21.222   7.276  0.00  0.00    +0.038 C 
BRANCH  13  15
ATOM     14  C   LIG    1       24.723 -20.456   5.196  0.00  0.00    +0.007 C 
ATOM     15  C   LIG    1       23.412 -20.384   5.986  0.00  0.00    -0.013 C 
ATOM     16  C   LIG    1       22.261 -20.840   5.085  0.00  0.00    +0.007 C 
ENDBRANCH  13  15
ENDBRANCH   1  13
TORSDOF 5
ENDMDL
MODEL 5
REMARK VINA RESULT:      -7.7      5.536      6.344
REMARK  Name = *****
REMARK                            x       y       z     vdW  Elec       q    Type
REMARK                         _______ _______ _______ _____ _____    ______ ____
ROOT
ATOM      1  C   LIG    1       23.995 -22.776   7.067  0.00  0.00    -0.047 A 
ATOM      2  C   LIG    1       25.374 -22.916   7.261  0.00  0.00    +0.004 A 
ATOM      3  C   LIG    1       26.019 -24.122   6.974  0.00  0.00    +0.005 A 
ATOM      4  C   LIG    1       25.292 -25.224   6.504  0.00  0.00    -0.034 A 
ATOM      5  C   LIG    1       23.908 -25.087   6.320  0.00  0.00    +0.005 A 
ATOM      6  C   LIG    1       23.266 -23.873   6.592  0.00  0.00    +0.004 A 
ENDROOT
BRANCH   4   7
ATOM      7  C   LIG    1       26.004 -26.535   6.212  0.00  0.00    +0.124 C 
ATOM      8  C   LIG    1       25.914 -26.898   4.726  0.00  0.00    +0.024 C 
BRANCH   7   9
ATOM      9  C   LIG    1       25.517 -27.685   7.090  0.00  0.00    +0.312 C 
ATOM     10  O   LIG    1       24.539 -28.379   6.857  0.00  0.00    -0.250 OA
BRANCH   9  11
ATOM     11  O   LIG    1       26.321 -27.933   8.154  0.00  0.00    -0.480 OA
ATOM     12  H   LIG    1       27.148 -27.410   8.147  0.00  0.00    +0.295 HD
ENDBRANCH   9  11
ENDBRANCH   7   9
ENDBRANCH   4   7
BRANCH   1  13
ATOM     13  C   LIG    1       23.316 -21.453   7.342  0.00  0.00    +0.038 C 
BRANCH  13  15
ATOM     14  C   LIG    1       24.647 -20.446   5.460  0.00  0.00    +0.007 C 
ATOM     15  C   LIG    1       23.273 -20.492   6.135  0.00  0.00    -0.013 C 
ATOM     16  C   LIG    1       22.219 -20.888   5.097  0.00  0.00    +0.007 C 
ENDBRANCH  13  15
ENDBRANCH   1  13
TORSDOF 5
ENDMDL
MODEL 6
REMARK VINA RESULT:      -7.7      3.011      6.244
REMARK  Name = *****
REMARK                            x       y       z     vdW  Elec       q    Type
REMARK                         _______ _______ _______ _____ _____    ______ ____
ROOT
ATOM      1  C   LIG    1       27.630 -20.185   6.785  0.00  0.00    -0.047 A 
ATOM      2  C   LIG    1       26.880 -20.253   5.606  0.00  0.00    +0.004 A 
ATOM      3  C   LIG    1       25.513 -20.541   5.641  0.00  0.00    +0.005 A 
ATOM      4  C   LIG    1       24.869 -20.787   6.860  0.00  0.00    -0.034 A 
ATOM      5  C   LIG    1       25.622 -20.730   8.042  0.00  0.00    +0.005 A 
ATOM      6  C   LIG    1       26.988 -20.425   8.006  0.00  0.00    +0.004 A 
ENDROOT
BRANCH   4   7
ATOM      7  C   LIG    1       23.384 -21.115   6.882  0.00  0.00    +0.124 C 
ATOM      8  C   LIG    1       23.149 -22.624   7.006  0.00  0.00    +0.024 C 
BRANCH   7   9
ATOM      9  C   LIG    1       22.630 -20.536   5.687  0.00  0.00    +0.312 C 
ATOM     10  O   LIG    1       22.473 -19.344   5.468  0.00  0.00    -0.250 OA
BRANCH   9  11
ATOM     11  O   LIG    1       22.188 -21.478   4.817  0.00  0.00    -0.480 OA
ATOM     12  H   LIG    1       21.804 -22.263   5.255  0.00  0.00    +0.295 HD
ENDBRANCH   9  11
ENDBRANCH   7   9
ENDBRANCH   4   7
BRANCH   1  13
ATOM     13  C   LIG    1       29.099 -19.832   6.737  0.00  0.00    +0.038 C 
BRANCH  13  15
ATOM     14  C   LIG    1       30.829 -20.616   8.388  0.00  0.00    +0.007 C 
ATOM     15  C   LIG    1       29.741 -19.572   8.117  0.00  0.00    -0.013 C 
ATOM     16  C   LIG    1       30.352 -18.172   8.235  0.00  0.00    +0.007 C 
ENDBRANCH  13  15
ENDBRANCH   1  13
TORSDOF 5
ENDMDL
MODEL 7
REMARK VINA RESULT:      -7.6      4.873      6.110
REMARK  Name = *****
REMARK                            x       y       z     vdW  Elec       q    Type
REMARK                         _______ _______ _______ _____ _____    ______ ____
ROOT
ATOM      1  C   LIG    1       24.875 -25.477   6.255  0.00  0.00    -0.047 A 
ATOM      2  C   LIG    1       23.605 -24.889   6.287  0.00  0.00    +0.004 A 
ATOM      3  C   LIG    1       23.431 -23.584   6.756  0.00  0.00    +0.005 A 
ATOM      4  C   LIG    1       24.526 -22.843   7.222  0.00  0.00    -0.034 A 
ATOM      5  C   LIG    1       25.796 -23.436   7.200  0.00  0.00    +0.005 A 
ATOM      6  C   LIG    1       25.971 -24.737   6.715  0.00  0.00    +0.004 A 
ENDROOT
BRANCH   4   7
ATOM      7  C   LIG    1       24.319 -21.430   7.743  0.00  0.00    +0.124 C 
ATOM      8  C   LIG    1       23.446 -20.607   6.791  0.00  0.00    +0.024 C 
BRANCH   7   9
ATOM      9  C   LIG    1       25.631 -20.711   8.049  0.00  0.00    +0.312 C 
ATOM     10  O   LIG    1       26.369 -20.215   7.212  0.00  0.00    -0.250 OA
BRANCH   9  11
ATOM     11  O   LIG    1       25.892 -20.600   9.375  0.00  0.00    -0.480 OA
ATOM     12  H   LIG    1       25.291 -21.130   9.936  0.00  0.00    +0.295 HD
ENDBRANCH   9  11
ENDBRANCH   7   9
ENDBRANCH   4   7
BRANCH   1  13
ATOM     13  C   LIG    1       25.056 -26.875   5.708  0.00  0.00    +0.038 C 
BRANCH  13  15
ATOM     14  C   LIG    1       24.157 -29.223   5.799  0.00  0.00    +0.007 C 
ATOM     15  C   LIG    1       24.540 -27.997   6.634  0.00  0.00    -0.013 C 
ATOM     16  C   LIG    1       25.564 -28.414   7.693  0.00  0.00    +0.007 C 
ENDBRANCH  13  15
ENDBRANCH   1  13
TORSDOF 5
ENDMDL
MODEL 8
REMARK VINA RESULT:      -7.6      4.556      5.456
REMARK  Name = *****
REMARK                            x       y       z     vdW  Elec       q    Type
REMARK                         _______ _______ _______ _____ _____    ______ ____
ROOT
ATOM      1  C   LIG    1       24.520 -24.995   6.540  0.00  0.00    -0.047 A 
ATOM      2  C   LIG    1       25.850 -24.591   6.700  0.00  0.00    +0.004 A 
ATOM      3  C   LIG    1       26.171 -23.245   6.896  0.00  0.00    +0.005 A 
ATOM      4  C   LIG    1       25.166 -22.269   6.917  0.00  0.00    -0.034 A 
ATOM      5  C   LIG    1       23.834 -22.673   6.745  0.00  0.00    +0.005 A 
ATOM      6  C   LIG    1       23.512 -24.023   6.566  0.00  0.00    +0.004 A 
ENDROOT
BRANCH   4   7
ATOM      7  C   LIG    1       25.532 -20.807   7.115  0.00  0.00    +0.124 C 
ATOM      8  C   LIG    1       26.317 -20.263   5.918  0.00  0.00    +0.024 C 
BRANCH   7   9
ATOM      9  C   LIG    1       26.276 -20.552   8.424  0.00  0.00    +0.312 C 
ATOM     10  O   LIG    1       25.801 -20.701   9.540  0.00  0.00    -0.250 OA
BRANCH   9  11
ATOM     11  O   LIG    1       27.575 -20.201   8.250  0.00  0.00    -0.480 OA
ATOM     12  H   LIG    1       28.184 -20.966   8.219  0.00  0.00    +0.295 HD
ENDBRANCH   9  11
ENDBRANCH   7   9
ENDBRANCH   4   7
BRANCH   1  13
ATOM     13  C   LIG    1       24.181 -26.459   6.369  0.00  0.00    +0.038 C 
BRANCH  13  15
ATOM     14  C   LIG    1       25.040 -28.693   7.147  0.00  0.00    +0.007 C 
ATOM     15  C   LIG    1       25.400 -27.406   6.398  0.00  0.00    -0.013 C 
ATOM     16  C   LIG    1       25.906 -27.768   4.999  0.00  0.00    +0.007 C 
ENDBRANCH  13  15
ENDBRANCH   1  13
TORSDOF 5
ENDMDL
MODEL 9
REMARK VINA RESULT:      -7.5      1.389      2.254
REMARK  Name = *****
REMARK                            x       y       z     vdW  Elec       q    Type
REMARK                         _______ _______ _______ _____ _____    ______ ____
ROOT
ATOM      1  C   LIG    1       26.450 -20.872   6.224  0.00  0.00    -0.047 A 
ATOM      2  C   LIG    1       27.312 -19.950   5.618  0.00  0.00    +0.004 A 
ATOM      3  C   LIG    1       28.597 -19.733   6.122  0.00  0.00    +0.005 A 
ATOM      4  C   LIG    1       29.043 -20.423   7.257  0.00  0.00    -0.034 A 
ATOM      5  C   LIG    1       28.175 -21.339   7.870  0.00  0.00    +0.005 A 
ATOM      6  C   LIG    1       26.894 -21.566   7.355  0.00  0.00    +0.004 A 
ENDROOT
BRANCH   4   7
ATOM      7  C   LIG    1       30.438 -20.165   7.803  0.00  0.00    +0.124 C 
ATOM      8  C   LIG    1       30.880 -21.284   8.751  0.00  0.00    +0.024 C 
BRANCH   7   9
ATOM      9  C   LIG    1       30.575 -18.795   8.464  0.00  0.00    +0.312 C 
ATOM     10  O   LIG    1       29.908 -18.406   9.411  0.00  0.00    -0.250 OA
BRANCH   9  11
ATOM     11  O   LIG    1       31.576 -18.041   7.947  0.00  0.00    -0.480 OA
ATOM     12  H   LIG    1       32.456 -18.463   8.014  0.00  0.00    +0.295 HD
ENDBRANCH   9  11
ENDBRANCH   7   9
ENDBRANCH   4   7
BRANCH   1  13
ATOM     13  C   LIG    1       25.076 -21.127   5.645  0.00  0.00    +0.038 C 
BRANCH  13  15
ATOM     14  C   LIG    1       22.819 -20.020   5.729  0.00  0.00    +0.007 C 
ATOM     15  C   LIG    1       23.907 -20.705   6.561  0.00  0.00    -0.013 C 
ATOM     16  C   LIG    1       23.289 -21.884   7.318  0.00  0.00    +0.007 C 
ENDBRANCH  13  15
ENDBRANCH   1  13
TORSDOF 5
ENDMDL
