MODEL 1
REMARK VINA RESULT:      -8.1      0.000      0.000
REMARK  Name = *****
REMARK                            x       y       z     vdW  Elec       q    Type
REMARK                         _______ _______ _______ _____ _____    ______ ____
ROOT
ATOM      1  C   LIG    1       24.944 -21.906   5.278  0.00  0.00    +0.064 C 
ATOM      2  C   LIG    1       25.244 -20.922   6.459  0.00  0.00    +0.039 C 
ATOM      3  C   LIG    1       24.833 -21.757   7.701  0.00  0.00    -0.002 C 
ATOM      4  C   LIG    1       25.214 -23.181   7.297  0.00  0.00    +0.009 C 
ATOM      5  C   LIG    1       23.290 -21.850   7.731  0.00  0.00    +0.004 C 
ATOM      6  C   LIG    1       22.979 -22.860   6.617  0.00  0.00    +0.005 C 
ATOM      7  C   LIG    1       24.366 -23.148   6.021  0.00  0.00    +0.007 C 
ENDROOT
BRANCH   2   8
ATOM      8  C   LIG    1       26.668 -20.389   6.546  0.00  0.00    -0.043 A 
ATOM      9  C   LIG    1       27.312 -20.413   7.795  0.00  0.00    +0.004 A 
ATOM     10  C   LIG    1       28.612 -19.925   7.943  0.00  0.00    +0.000 A 
ATOM     11  C   LIG    1       29.298 -19.411   6.844  0.00  0.00    +0.000 A 
ATOM     12  C   LIG    1       28.682 -19.391   5.598  0.00  0.00    +0.000 A 
ATOM     13  C   LIG    1       27.384 -19.883   5.451  0.00  0.00    +0.004 A 
ENDBRANCH   2   8
BRANCH   1  14
ATOM     14  N   LIG    1       24.030 -21.373   4.259  0.00  0.00    -0.313 NA
ATOM     15  H   LIG    1       24.408 -21.572   3.332  0.00  0.00    +0.122 HD
BRANCH  14  17
ATOM     16  C   LIG    1       22.410 -19.618   4.813  0.00  0.00    +0.020 C 
ATOM     17  C   LIG    1       23.842 -19.925   4.403  0.00  0.00    +0.077 C 
ENDBRANCH  14  17
ENDBRANCH   1  14
TORSDOF 3
ENDMDL
MODEL 2
REMARK VINA RESULT:      -8.0      1.297      2.797
REMARK  Name = *****
REMARK                            x       y       z     vdW  Elec       q    Type
REMARK                         _______ _______ _______ _____ _____    ______ ____
ROOT
ATOM      1  C   LIG    1       24.849 -22.710   6.049  0.00  0.00    +0.064 C 
ATOM      2  C   LIG    1       25.387 -21.271   5.742  0.00  0.00    +0.039 C 
ATOM      3  C   LIG    1       24.272 -20.365   6.328  0.00  0.00    -0.002 C 
ATOM      4  C   LIG    1       23.798 -21.154   7.549  0.00  0.00    +0.009 C 
ATOM      5  C   LIG    1       23.037 -20.462   5.404  0.00  0.00    +0.004 C 
ATOM      6  C   LIG    1       22.459 -21.845   5.736  0.00  0.00    +0.005 C 
ATOM      7  C   LIG    1       23.481 -22.411   6.734  0.00  0.00    +0.007 C 
ENDROOT
BRANCH   2   8
ATOM      8  C   LIG    1       26.770 -20.939   6.288  0.00  0.00    -0.043 A 
ATOM      9  C   LIG    1       27.487 -19.890   5.689  0.00  0.00    +0.004 A 
ATOM     10  C   LIG    1       28.766 -19.546   6.133  0.00  0.00    +0.000 A 
ATOM     11  C   LIG    1       29.350 -20.239   7.192  0.00  0.00    +0.000 A 
ATOM     12  C   LIG    1       28.651 -21.272   7.806  0.00  0.00    +0.000 A 
ATOM     13  C   LIG    1       27.371 -21.611   7.363  0.00  0.00    +0.004 A 
ENDBRANCH   2   8
BRANCH   1  14
ATOM     14  N   LIG    1       24.722 -23.577   4.870  0.00  0.00    -0.313 NA
ATOM     15  H   LIG    1       23.754 -23.568   4.550  0.00  0.00    +0.122 HD
BRANCH  14  17
ATOM     16  C   LIG    1       25.877 -25.016   6.483  0.00  0.00    +0.020 C 
ATOM     17  C   LIG    1       25.120 -24.957   5.166  0.00  0.00    +0.077 C 
ENDBRANCH  14  17
ENDBRANCH   1  14
TORSDOF 3
ENDMDL
MODEL 3
REMARK VINA RESULT:      -7.9      1.906      4.349
REMARK  Name = *****
REMARK                            x       y       z     vdW  Elec       q    Type
REMARK                         _______ _______ _______ _____ _____    ______ ____
ROOT
ATOM      1  C   LIG    1       25.644 -22.359   6.867  0.00  0.00    +0.064 C 
ATOM      2  C   LIG    1       25.105 -22.308   5.397  0.00  0.00    +0.039 C 
ATOM      3  C   LIG    1       24.293 -23.625   5.293  0.00  0.00    -0.002 C 
ATOM      4  C   LIG    1       23.716 -23.783   6.700  0.00  0.00    +0.009 C 
ATOM      5  C   LIG    1       25.291 -24.804   5.239  0.00  0.00    +0.004 C 
ATOM      6  C   LIG    1       25.786 -24.910   6.689  0.00  0.00    +0.005 C 
ATOM      7  C   LIG    1       25.090 -23.724   7.374  0.00  0.00    +0.007 C 
ENDROOT
BRANCH   2   8
ATOM      8  C   LIG    1       24.291 -21.077   5.021  0.00  0.00    -0.043 A 
ATOM      9  C   LIG    1       24.712 -20.310   3.922  0.00  0.00    +0.004 A 
ATOM     10  C   LIG    1       24.017 -19.162   3.536  0.00  0.00    +0.000 A 
ATOM     11  C   LIG    1       22.880 -18.762   4.237  0.00  0.00    +0.000 A 
ATOM     12  C   LIG    1       22.440 -19.515   5.319  0.00  0.00    +0.000 A 
ATOM     13  C   LIG    1       23.134 -20.664   5.701  0.00  0.00    +0.004 A 
ENDBRANCH   2   8
BRANCH   1  14
ATOM     14  N   LIG    1       27.105 -22.256   6.983  0.00  0.00    -0.313 NA
ATOM     15  H   LIG    1       27.462 -23.079   7.468  0.00  0.00    +0.122 HD
BRANCH  14  17
ATOM     16  C   LIG    1       26.314 -20.457   8.449  0.00  0.00    +0.020 C 
ATOM     17  C   LIG    1       27.507 -21.051   7.717  0.00  0.00    +0.077 C 
ENDBRANCH  14  17
ENDBRANCH   1  14
TORSDOF 3
ENDMDL
MODEL 4
REMARK VINA RESULT:      -7.9      1.709      4.679
REMARK  Name = *****
REMARK                            x       y       z     vdW  Elec       q    Type
REMARK                         _______ _______ _______ _____ _____    ______ ____
ROOT
ATOM      1  C   LIG    1       26.927 -20.242   6.512  0.00  0.00    +0.064 C 
ATOM      2  C   LIG    1       25.680 -21.067   6.044  0.00  0.00    +0.039 C 
ATOM      3  C   LIG    1       25.201 -21.726   7.364  0.00  0.00    -0.002 C 
ATOM      4  C   LIG    1       25.517 -20.659   8.412  0.00  0.00    +0.009 C 
ATOM      5  C   LIG    1       26.209 -22.835   7.743  0.00  0.00    +0.004 C 
ATOM      6  C   LIG    1       27.418 -22.045   8.263  0.00  0.00    +0.005 C 
ATOM      7  C   LIG    1       26.998 -20.585   8.030  0.00  0.00    +0.007 C 
ENDROOT
BRANCH   2   8
ATOM      8  C   LIG    1       24.581 -20.284   5.337  0.00  0.00    -0.043 A 
ATOM      9  C   LIG    1       24.917 -19.558   4.183  0.00  0.00    +0.004 A 
ATOM     10  C   LIG    1       23.958 -18.808   3.499  0.00  0.00    +0.000 A 
ATOM     11  C   LIG    1       22.640 -18.776   3.951  0.00  0.00    +0.000 A 
ATOM     12  C   LIG    1       22.284 -19.499   5.084  0.00  0.00    +0.000 A 
ATOM     13  C   LIG    1       23.244 -20.250   5.764  0.00  0.00    +0.004 A 
ENDBRANCH   2   8
BRANCH   1  14
ATOM     14  N   LIG    1       28.169 -20.557   5.794  0.00  0.00    -0.313 NA
ATOM     15  H   LIG    1       28.370 -21.553   5.893  0.00  0.00    +0.122 HD
BRANCH  14  17
ATOM     16  C   LIG    1       29.349 -18.413   5.649  0.00  0.00    +0.020 C 
ATOM     17  C   LIG    1       29.304 -19.782   6.308  0.00  0.00    +0.077 C 
ENDBRANCH  14  17
ENDBRANCH   1  14
TORSDOF 3
ENDMDL
MODEL 5
REMARK VINA RESULT:      -7.6      2.713      4.431
REMARK  Name = *****
REMARK                            x       y       z     vdW  Elec       q    Type
REMARK                         _______ _______ _______ _____ _____    ______ ____
ROOT
ATOM      1  C   LIG    1       24.401 -22.048   5.004  0.00  0.00    +0.064 C 
ATOM      2  C   LIG    1       24.969 -22.819   6.243  0.00  0.00    +0.039 C 
ATOM      3  C   LIG    1       23.867 -22.593   7.311  0.00  0.00    -0.002 C 
ATOM      4  C   LIG    1       22.583 -22.586   6.481  0.00  0.00    +0.009 C 
ATOM      5  C   LIG    1       23.939 -21.120   7.775  0.00  0.00    +0.004 C 
ATOM      6  C   LIG    1       23.327 -20.352   6.595  0.00  0.00    +0.005 C 
ATOM      7  C   LIG    1       23.070 -21.461   5.563  0.00  0.00    +0.007 C 
ENDROOT
BRANCH   2   8
ATOM      8  C   LIG    1       25.296 -24.291   6.029  0.00  0.00    -0.043 A 
ATOM      9  C   LIG    1       25.051 -24.850   4.764  0.00  0.00    +0.004 A 
ATOM     10  C   LIG    1       25.315 -26.197   4.509  0.00  0.00    +0.000 A 
ATOM     11  C   LIG    1       25.839 -27.011   5.512  0.00  0.00    +0.000 A 
ATOM     12  C   LIG    1       26.102 -26.473   6.767  0.00  0.00    +0.000 A 
ATOM     13  C   LIG    1       25.840 -25.125   7.018  0.00  0.00    +0.004 A 
ENDBRANCH   2   8
BRANCH   1  14
ATOM     14  N   LIG    1       25.299 -21.019   4.463  0.00  0.00    -0.313 NA
ATOM     15  H   LIG    1       25.590 -20.398   5.218  0.00  0.00    +0.122 HD
BRANCH  14  17
ATOM     16  C   LIG    1       25.055 -18.768   3.522  0.00  0.00    +0.020 C 
ATOM     17  C   LIG    1       24.647 -20.228   3.413  0.00  0.00    +0.077 C 
ENDBRANCH  14  17
ENDBRANCH   1  14
TORSDOF 3
ENDMDL
MODEL 6
REMARK VINA RESULT:      -7.5      2.175      4.860
REMARK  Name = *****
REMARK                            x       y       z     vdW  Elec       q    Type
REMARK                         _______ _______ _______ _____ _____    ______ ____
ROOT
ATOM      1  C   LIG    1       24.984 -22.108   5.541  0.00  0.00    +0.064 C 
ATOM      2  C   LIG    1       24.718 -23.112   6.713  0.00  0.00    +0.039 C 
ATOM      3  C   LIG    1       23.250 -22.792   7.101  0.00  0.00    -0.002 C 
ATOM      4  C   LIG    1       22.613 -22.434   5.758  0.00  0.00    +0.009 C 
ATOM      5  C   LIG    1       23.229 -21.425   7.823  0.00  0.00    +0.004 C 
ATOM      6  C   LIG    1       23.427 -20.422   6.679  0.00  0.00    +0.005 C 
ATOM      7  C   LIG    1       23.634 -21.333   5.458  0.00  0.00    +0.007 C 
ENDROOT
BRANCH   2   8
ATOM      8  C   LIG    1       24.942 -24.586   6.402  0.00  0.00    -0.043 A 
ATOM      9  C   LIG    1       26.262 -25.065   6.362  0.00  0.00    +0.004 A 
ATOM     10  C   LIG    1       26.534 -26.402   6.067  0.00  0.00    +0.000 A 
ATOM     11  C   LIG    1       25.491 -27.291   5.814  0.00  0.00    +0.000 A 
ATOM     12  C   LIG    1       24.177 -26.839   5.862  0.00  0.00    +0.000 A 
ATOM     13  C   LIG    1       23.907 -25.503   6.160  0.00  0.00    +0.004 A 
ENDBRANCH   2   8
BRANCH   1  14
ATOM     14  N   LIG    1       26.140 -21.225   5.746  0.00  0.00    -0.313 NA
ATOM     15  H   LIG    1       26.757 -21.286   4.936  0.00  0.00    +0.122 HD
BRANCH  14  17
ATOM     16  C   LIG    1       26.888 -20.432   7.942  0.00  0.00    +0.020 C 
ATOM     17  C   LIG    1       26.891 -21.587   6.953  0.00  0.00    +0.077 C 
ENDBRANCH  14  17
ENDBRANCH   1  14
TORSDOF 3
ENDMDL
MODEL 7
REMARK VINA RESULT:      -7.4      1.803      4.428
REMARK  Name = *****
REMARK                            x       y       z     vdW  Elec       q    Type
REMARK                         _______ _______ _______ _____ _____    ______ ____
ROOT
ATOM      1  C   LIG    1       25.296 -22.498   6.162  0.00  0.00    +0.064 C 
ATOM      2  C   LIG    1       24.473 -21.264   6.666  0.00  0.00    +0.039 C 
ATOM      3  C   LIG    1       25.468 -20.573   7.635  0.00  0.00    -0.002 C 
ATOM      4  C   LIG    1       26.823 -20.830   6.976  0.00  0.00    +0.009 C 
ATOM      5  C   LIG    1       25.579 -21.440   8.911  0.00  0.00    +0.004 C 
ATOM      6  C   LIG    1       26.437 -22.628   8.451  0.00  0.00    +0.005 C 
ATOM      7  C   LIG    1       26.631 -22.350   6.953  0.00  0.00    +0.007 C 
ENDROOT
BRANCH   2   8
ATOM      8  C   LIG    1       23.942 -20.324   5.591  0.00  0.00    -0.043 A 
ATOM      9  C   LIG    1       24.769 -20.034   4.493  0.00  0.00    +0.004 A 
ATOM     10  C   LIG    1       24.346 -19.168   3.483  0.00  0.00    +0.000 A 
ATOM     11  C   LIG    1       23.082 -18.582   3.545  0.00  0.00    +0.000 A 
ATOM     12  C   LIG    1       22.244 -18.867   4.617  0.00  0.00    +0.000 A 
ATOM     13  C   LIG    1       22.668 -19.736   5.624  0.00  0.00    +0.004 A 
ENDBRANCH   2   8
BRANCH   1  14
ATOM     14  N   LIG    1       24.642 -23.795   6.380  0.00  0.00    -0.313 NA
ATOM     15  H   LIG    1       24.683 -24.029   7.373  0.00  0.00    +0.122 HD
BRANCH  14  17
ATOM     16  C   LIG    1       25.894 -25.897   6.539  0.00  0.00    +0.020 C 
ATOM     17  C   LIG    1       25.283 -24.863   5.606  0.00  0.00    +0.077 C 
ENDBRANCH  14  17
ENDBRANCH   1  14
TORSDOF 3
ENDMDL
MODEL 8
REMARK VINA RESULT:      -7.4      2.460      5.225
REMARK  Name = *****
REMARK                            x       y       z     vdW  Elec       q    Type
REMARK                         _______ _______ _______ _____ _____    ______ ____
ROOT
ATOM      1  C   LIG    1       26.017 -22.399   6.774  0.00  0.00    +0.064 C 
ATOM      2  C   LIG    1       24.910 -23.468   7.068  0.00  0.00    +0.039 C 
ATOM      3  C   LIG    1       23.634 -22.794   6.498  0.00  0.00    -0.002 C 
ATOM      4  C   LIG    1       24.165 -22.026   5.288  0.00  0.00    +0.009 C 
ATOM      5  C   LIG    1       23.237 -21.636   7.444  0.00  0.00    +0.004 C 
ATOM      6  C   LIG    1       24.277 -20.552   7.124  0.00  0.00    +0.005 C 
ATOM      7  C   LIG    1       25.198 -21.250   6.111  0.00  0.00    +0.007 C 
ENDROOT
BRANCH   2   8
ATOM      8  C   LIG    1       25.150 -24.860   6.500  0.00  0.00    -0.043 A 
ATOM      9  C   LIG    1       24.034 -25.638   6.151  0.00  0.00    +0.004 A 
ATOM     10  C   LIG    1       24.187 -26.929   5.639  0.00  0.00    +0.000 A 
ATOM     11  C   LIG    1       25.462 -27.464   5.456  0.00  0.00    +0.000 A 
ATOM     12  C   LIG    1       26.579 -26.704   5.783  0.00  0.00    +0.000 A 
ATOM     13  C   LIG    1       26.423 -25.413   6.292  0.00  0.00    +0.004 A 
ENDBRANCH   2   8
BRANCH   1  14
ATOM     14  N   LIG    1       26.767 -21.958   7.957  0.00  0.00    -0.313 NA
ATOM     15  H   LIG    1       26.279 -21.176   8.392  0.00  0.00    +0.122 HD
BRANCH  14  17
ATOM     16  C   LIG    1       28.258 -20.031   7.689  0.00  0.00    +0.020 C 
ATOM     17  C   LIG    1       28.131 -21.544   7.611  0.00  0.00    +0.077 C 
ENDBRANCH  14  17
ENDBRANCH   1  14
TORSDOF 3
ENDMDL
MODEL 9
REMARK VINA RESULT:      -7.4      1.234      3.071
REMARK  Name = *****
REMARK                            x       y       z     vdW  Elec       q    Type
REMARK                         _______ _______ _______ _____ _____    ______ ____
ROOT
ATOM      1  C   LIG    1       23.939 -20.669   6.775  0.00  0.00    +0.064 C 
ATOM      2  C   LIG    1       25.164 -21.029   5.868  0.00  0.00    +0.039 C 
ATOM      3  C   LIG    1       24.721 -20.494   4.480  0.00  0.00    -0.002 C 
ATOM      4  C   LIG    1       23.911 -19.248   4.837  0.00  0.00    +0.009 C 
ATOM      5  C   LIG    1       23.617 -21.429   3.933  0.00  0.00    +0.004 C 
ATOM      6  C   LIG    1       22.389 -21.047   4.771  0.00  0.00    +0.005 C 
ATOM      7  C   LIG    1       22.956 -20.015   5.758  0.00  0.00    +0.007 C 
ENDROOT
BRANCH   2   8
ATOM      8  C   LIG    1       26.514 -20.481   6.311  0.00  0.00    -0.043 A 
ATOM      9  C   LIG    1       27.345 -19.894   5.343  0.00  0.00    +0.004 A 
ATOM     10  C   LIG    1       28.601 -19.387   5.683  0.00  0.00    +0.000 A 
ATOM     11  C   LIG    1       29.048 -19.449   7.002  0.00  0.00    +0.000 A 
ATOM     12  C   LIG    1       28.235 -20.014   7.978  0.00  0.00    +0.000 A 
ATOM     13  C   LIG    1       26.978 -20.517   7.635  0.00  0.00    +0.004 A 
ENDBRANCH   2   8
BRANCH   1  14
ATOM     14  N   LIG    1       23.350 -21.814   7.484  0.00  0.00    -0.313 NA
ATOM     15  H   LIG    1       23.323 -21.610   8.484  0.00  0.00    +0.122 HD
BRANCH  14  17
ATOM     16  C   LIG    1       23.226 -24.125   6.678  0.00  0.00    +0.020 C 
ATOM     17  C   LIG    1       24.119 -23.043   7.262  0.00  0.00    +0.077 C 
ENDBRANCH  14  17
ENDBRANCH   1  14
TORSDOF 3
ENDMDL
