MODEL 1
REMARK VINA RESULT:      -1.3      0.000      0.000
REMARK  Name = *****
REMARK                            x       y       z     vdW  Elec       q    Type
REMARK                         _______ _______ _______ _____ _____    ______ ____
ROOT
ATOM      1  O   LIG    1       24.575 -18.580   3.304  0.00  0.00    -0.252 OA
ATOM      2  C   LIG    1       24.759 -17.398   3.578  0.00  0.00    +0.306 C 
ATOM      3  N   LIG    1       25.976 -16.726   3.535  0.00  0.00    -0.272 N 
ATOM      4  C   LIG    1       25.880 -15.438   4.214  0.00  0.00    +0.152 C 
ATOM      5  C   LIG    1       24.361 -15.204   4.344  0.00  0.00    +0.155 C 
ATOM      6  C   LIG    1       23.925 -14.087   3.378  0.00  0.00    +0.230 C 
ATOM      7  S   LIG    1       25.306 -13.797   2.169  0.00  0.00    -0.004 S 
ATOM      8  C   LIG    1       25.276 -11.986   2.426  0.00  0.00    +0.278 C 
ATOM      9  C   LIG    1       23.964 -11.652   3.114  0.00  0.00    +0.059 C 
ATOM     10  C   LIG    1       23.722 -12.759   4.120  0.00  0.00    +0.064 C 
ATOM     11  C   LIG    1       26.491 -14.246   3.490  0.00  0.00    +0.302 C 
ATOM     12  N   LIG    1       23.801 -16.518   4.059  0.00  0.00    -0.271 N 
ENDROOT
BRANCH   3  13
ATOM     13  C   LIG    1       27.233 -17.414   3.310  0.00  0.00    +0.145 C 
BRANCH  13  14
ATOM     14  C   LIG    1       27.727 -18.207   4.501  0.00  0.00    -0.030 A 
ATOM     15  C   LIG    1       27.030 -19.338   4.954  0.00  0.00    +0.005 A 
ATOM     16  C   LIG    1       27.538 -20.121   5.994  0.00  0.00    +0.000 A 
ATOM     17  C   LIG    1       28.757 -19.792   6.583  0.00  0.00    +0.000 A 
ATOM     18  C   LIG    1       29.450 -18.661   6.157  0.00  0.00    +0.000 A 
ATOM     19  C   LIG    1       28.934 -17.866   5.130  0.00  0.00    +0.005 A 
ENDBRANCH  13  14
ENDBRANCH   3  13
BRANCH  12  20
ATOM     20  C   LIG    1       22.451 -16.919   4.406  0.00  0.00    +0.145 C 
BRANCH  20  21
ATOM     21  C   LIG    1       22.331 -18.393   4.720  0.00  0.00    -0.030 A 
ATOM     22  C   LIG    1       23.037 -18.958   5.796  0.00  0.00    +0.005 A 
ATOM     23  C   LIG    1       22.935 -20.323   6.071  0.00  0.00    +0.000 A 
ATOM     24  C   LIG    1       22.153 -21.142   5.261  0.00  0.00    +0.000 A 
ATOM     25  C   LIG    1       21.444 -20.592   4.194  0.00  0.00    +0.000 A 
ATOM     26  C   LIG    1       21.519 -19.223   3.934  0.00  0.00    +0.005 A 
ENDBRANCH  20  21
ENDBRANCH  12  20
TORSDOF 4
ENDMDL
MODEL 2
REMARK VINA RESULT:      -0.4      1.846      5.905
REMARK  Name = *****
REMARK                            x       y       z     vdW  Elec       q    Type
REMARK                         _______ _______ _______ _____ _____    ______ ____
ROOT
ATOM      1  O   LIG    1       26.275 -16.903   2.717  0.00  0.00    -0.252 OA
ATOM      2  C   LIG    1       25.362 -17.397   3.372  0.00  0.00    +0.306 C 
ATOM      3  N   LIG    1       24.218 -16.739   3.812  0.00  0.00    -0.272 N 
ATOM      4  C   LIG    1       23.514 -17.537   4.810  0.00  0.00    +0.152 C 
ATOM      5  C   LIG    1       24.130 -18.943   4.657  0.00  0.00    +0.155 C 
ATOM      6  C   LIG    1       23.105 -19.888   4.004  0.00  0.00    +0.230 C 
ATOM      7  S   LIG    1       21.739 -18.852   3.287  0.00  0.00    -0.004 S 
ATOM      8  C   LIG    1       20.433 -19.867   4.068  0.00  0.00    +0.278 C 
ATOM      9  C   LIG    1       21.079 -21.169   4.509  0.00  0.00    +0.059 C 
ATOM     10  C   LIG    1       22.446 -20.799   5.048  0.00  0.00    +0.064 C 
ATOM     11  C   LIG    1       22.005 -17.650   4.641  0.00  0.00    +0.302 C 
ATOM     12  N   LIG    1       25.327 -18.693   3.867  0.00  0.00    -0.271 N 
ENDROOT
BRANCH   3  13
ATOM     13  C   LIG    1       24.052 -15.304   3.679  0.00  0.00    +0.145 C 
BRANCH  13  14
ATOM     14  C   LIG    1       25.340 -14.518   3.797  0.00  0.00    -0.030 A 
ATOM     15  C   LIG    1       25.941 -14.302   5.048  0.00  0.00    +0.005 A 
ATOM     16  C   LIG    1       27.177 -13.656   5.145  0.00  0.00    +0.000 A 
ATOM     17  C   LIG    1       27.834 -13.233   3.992  0.00  0.00    +0.000 A 
ATOM     18  C   LIG    1       27.240 -13.422   2.746  0.00  0.00    +0.000 A 
ATOM     19  C   LIG    1       25.996 -14.050   2.649  0.00  0.00    +0.005 A 
ENDBRANCH  13  14
ENDBRANCH   3  13
BRANCH  12  20
ATOM     20  C   LIG    1       26.439 -19.617   3.760  0.00  0.00    +0.145 C 
BRANCH  20  21
ATOM     21  C   LIG    1       27.404 -19.525   4.920  0.00  0.00    -0.030 A 
ATOM     22  C   LIG    1       28.437 -18.574   4.922  0.00  0.00    +0.005 A 
ATOM     23  C   LIG    1       29.334 -18.504   5.989  0.00  0.00    +0.000 A 
ATOM     24  C   LIG    1       29.229 -19.401   7.049  0.00  0.00    +0.000 A 
ATOM     25  C   LIG    1       28.205 -20.346   7.061  0.00  0.00    +0.000 A 
ATOM     26  C   LIG    1       27.287 -20.398   6.011  0.00  0.00    +0.005 A 
ENDBRANCH  20  21
ENDBRANCH  12  20
TORSDOF 4
ENDMDL
MODEL 3
REMARK VINA RESULT:       0.2      2.049      5.682
REMARK  Name = *****
REMARK                            x       y       z     vdW  Elec       q    Type
REMARK                         _______ _______ _______ _____ _____    ______ ____
ROOT
ATOM      1  O   LIG    1       24.725 -16.504   3.510  0.00  0.00    -0.252 OA
ATOM      2  C   LIG    1       25.715 -17.187   3.754  0.00  0.00    +0.306 C 
ATOM      3  N   LIG    1       27.013 -16.718   3.925  0.00  0.00    -0.272 N 
ATOM      4  C   LIG    1       27.969 -17.820   3.891  0.00  0.00    +0.152 C 
ATOM      5  C   LIG    1       27.092 -19.074   4.076  0.00  0.00    +0.155 C 
ATOM      6  C   LIG    1       27.322 -19.665   5.479  0.00  0.00    +0.230 C 
ATOM      7  S   LIG    1       28.214 -18.395   6.501  0.00  0.00    -0.004 S 
ATOM      8  C   LIG    1       29.475 -19.596   7.062  0.00  0.00    +0.278 C 
ATOM      9  C   LIG    1       28.936 -20.984   6.766  0.00  0.00    +0.059 C 
ATOM     10  C   LIG    1       28.245 -20.889   5.421  0.00  0.00    +0.064 C 
ATOM     11  C   LIG    1       29.041 -17.817   4.974  0.00  0.00    +0.302 C 
ATOM     12  N   LIG    1       25.746 -18.572   3.834  0.00  0.00    -0.271 N 
ENDROOT
BRANCH   3  13
ATOM     13  C   LIG    1       27.379 -15.340   3.662  0.00  0.00    +0.145 C 
BRANCH  13  14
ATOM     14  C   LIG    1       26.201 -14.392   3.577  0.00  0.00    -0.030 A 
ATOM     15  C   LIG    1       25.576 -13.912   4.738  0.00  0.00    +0.005 A 
ATOM     16  C   LIG    1       24.550 -12.967   4.659  0.00  0.00    +0.000 A 
ATOM     17  C   LIG    1       24.148 -12.477   3.419  0.00  0.00    +0.000 A 
ATOM     18  C   LIG    1       24.746 -12.958   2.256  0.00  0.00    +0.000 A 
ATOM     19  C   LIG    1       25.758 -13.918   2.332  0.00  0.00    +0.005 A 
ENDBRANCH  13  14
ENDBRANCH   3  13
BRANCH  12  20
ATOM     20  C   LIG    1       24.606 -19.414   3.527  0.00  0.00    +0.145 C 
BRANCH  20  21
ATOM     21  C   LIG    1       24.086 -20.172   4.728  0.00  0.00    -0.030 A 
ATOM     22  C   LIG    1       22.847 -20.833   4.679  0.00  0.00    +0.005 A 
ATOM     23  C   LIG    1       22.365 -21.517   5.796  0.00  0.00    +0.000 A 
ATOM     24  C   LIG    1       23.098 -21.525   6.980  0.00  0.00    +0.000 A 
ATOM     25  C   LIG    1       24.331 -20.878   7.039  0.00  0.00    +0.000 A 
ATOM     26  C   LIG    1       24.831 -20.219   5.915  0.00  0.00    +0.005 A 
ENDBRANCH  20  21
ENDBRANCH  12  20
TORSDOF 4
ENDMDL
MODEL 4
REMARK VINA RESULT:       1.5      1.909      5.449
REMARK  Name = *****
REMARK                            x       y       z     vdW  Elec       q    Type
REMARK                         _______ _______ _______ _____ _____    ______ ____
ROOT
ATOM      1  O   LIG    1       25.786 -15.976   4.420  0.00  0.00    -0.252 OA
ATOM      2  C   LIG    1       25.075 -16.927   4.109  0.00  0.00    +0.306 C 
ATOM      3  N   LIG    1       25.513 -18.202   3.765  0.00  0.00    -0.272 N 
ATOM      4  C   LIG    1       24.433 -18.974   3.161  0.00  0.00    +0.152 C 
ATOM      5  C   LIG    1       23.163 -18.178   3.524  0.00  0.00    +0.155 C 
ATOM      6  C   LIG    1       22.356 -18.946   4.587  0.00  0.00    +0.230 C 
ATOM      7  S   LIG    1       23.448 -20.274   5.293  0.00  0.00    -0.004 S 
ATOM      8  C   LIG    1       22.175 -21.568   5.070  0.00  0.00    +0.278 C 
ATOM      9  C   LIG    1       20.851 -20.862   4.839  0.00  0.00    +0.059 C 
ATOM     10  C   LIG    1       21.158 -19.669   3.957  0.00  0.00    +0.064 C 
ATOM     11  C   LIG    1       24.264 -20.403   3.660  0.00  0.00    +0.302 C 
ATOM     12  N   LIG    1       23.695 -16.895   3.965  0.00  0.00    -0.271 N 
ENDROOT
BRANCH   3  13
ATOM     13  C   LIG    1       26.916 -18.512   3.573  0.00  0.00    +0.145 C 
BRANCH  13  14
ATOM     14  C   LIG    1       27.632 -18.950   4.833  0.00  0.00    -0.030 A 
ATOM     15  C   LIG    1       27.247 -20.116   5.513  0.00  0.00    +0.005 A 
ATOM     16  C   LIG    1       27.968 -20.568   6.621  0.00  0.00    +0.000 A 
ATOM     17  C   LIG    1       29.092 -19.869   7.053  0.00  0.00    +0.000 A 
ATOM     18  C   LIG    1       29.475 -18.699   6.401  0.00  0.00    +0.000 A 
ATOM     19  C   LIG    1       28.744 -18.235   5.304  0.00  0.00    +0.005 A 
ENDBRANCH  13  14
ENDBRANCH   3  13
BRANCH  12  20
ATOM     20  C   LIG    1       22.911 -15.680   4.065  0.00  0.00    +0.145 C 
BRANCH  20  21
ATOM     21  C   LIG    1       23.711 -14.430   3.777  0.00  0.00    -0.030 A 
ATOM     22  C   LIG    1       23.887 -13.977   2.458  0.00  0.00    +0.005 A 
ATOM     23  C   LIG    1       24.640 -12.832   2.197  0.00  0.00    +0.000 A 
ATOM     24  C   LIG    1       25.249 -12.143   3.243  0.00  0.00    +0.000 A 
ATOM     25  C   LIG    1       25.077 -12.579   4.556  0.00  0.00    +0.000 A 
ATOM     26  C   LIG    1       24.299 -13.706   4.824  0.00  0.00    +0.005 A 
ENDBRANCH  20  21
ENDBRANCH  12  20
TORSDOF 4
ENDMDL
