MODEL 1
REMARK VINA RESULT:      11.5      0.000      0.000
REMARK  Name = *****
REMARK                            x       y       z     vdW  Elec       q    Type
REMARK                         _______ _______ _______ _____ _____    ______ ____
ROOT
ATOM      1  C   LIG    1       25.218 -14.454   4.194  0.00  0.00    +0.032 C 
ATOM      2  C   LIG    1       25.714 -13.587   5.364  0.00  0.00    +0.019 C 
ATOM      3  C   LIG    1       26.263 -15.515   3.680  0.00  0.00    -0.017 C 
ATOM      4  C   LIG    1       27.279 -14.914   2.688  0.00  0.00    +0.012 C 
ATOM      5  C   LIG    1       25.355 -16.560   2.981  0.00  0.00    +0.003 C 
ATOM      6  C   LIG    1       26.045 -17.901   2.662  0.00  0.00    +0.019 C 
ATOM      7  C   LIG    1       26.906 -18.527   3.779  0.00  0.00    +0.006 C 
ATOM      8  C   LIG    1       27.784 -17.465   4.464  0.00  0.00    +0.005 C 
ATOM      9  C   LIG    1       26.190 -19.598   4.710  0.00  0.00    -0.003 C 
ATOM     10  C   LIG    1       27.152 -20.822   4.787  0.00  0.00    +0.016 C 
ATOM     11  C   LIG    1       24.855 -20.117   4.144  0.00  0.00    -0.035 C 
ATOM     12  C   LIG    1       23.906 -20.648   4.941  0.00  0.00    +0.050 C 
ATOM     13  C   LIG    1       24.064 -20.748   6.409  0.00  0.00    +0.156 C 
ATOM     14  O   LIG    1       23.223 -21.364   7.062  0.00  0.00    -0.293 OA
ATOM     15  C   LIG    1       25.265 -20.117   7.062  0.00  0.00    +0.080 C 
ATOM     16  C   LIG    1       24.603 -19.960   2.712  0.00  0.00    -0.050 C 
ATOM     17  C   LIG    1       23.724 -20.953   1.996  0.00  0.00    +0.044 C 
ATOM     18  C   LIG    1       25.940 -19.091   6.156  0.00  0.00    +0.019 C 
ATOM     19  C   LIG    1       25.127 -18.916   2.047  0.00  0.00    -0.019 C 
ATOM     20  C   LIG    1       24.083 -16.622   3.840  0.00  0.00    +0.006 C 
ATOM     21  C   LIG    1       27.045 -16.181   4.848  0.00  0.00    +0.008 C 
ATOM     22  C   LIG    1       24.045 -15.341   4.679  0.00  0.00    +0.015 C 
ENDROOT
BRANCH   1  24
ATOM     23  C   LIG    1       23.848 -12.329   3.412  0.00  0.00    +0.086 C 
ATOM     24  C   LIG    1       24.685 -13.536   3.053  0.00  0.00    +0.137 C 
ATOM     25  O   LIG    1       24.943 -13.756   1.867  0.00  0.00    -0.297 OA
ENDBRANCH   1  24
TORSDOF 1
ENDMDL
MODEL 2
REMARK VINA RESULT:      12.2      1.700      2.322
REMARK  Name = *****
REMARK                            x       y       z     vdW  Elec       q    Type
REMARK                         _______ _______ _______ _____ _____    ______ ____
ROOT
ATOM      1  C   LIG    1       25.084 -13.843   5.030  0.00  0.00    +0.032 C 
ATOM      2  C   LIG    1       26.474 -13.555   5.621  0.00  0.00    +0.019 C 
ATOM      3  C   LIG    1       25.099 -14.736   3.732  0.00  0.00    -0.017 C 
ATOM      4  C   LIG    1       25.376 -13.920   2.454  0.00  0.00    +0.012 C 
ATOM      5  C   LIG    1       23.663 -15.320   3.718  0.00  0.00    +0.003 C 
ATOM      6  C   LIG    1       23.459 -16.505   2.753  0.00  0.00    +0.019 C 
ATOM      7  C   LIG    1       24.540 -17.607   2.761  0.00  0.00    +0.006 C 
ATOM      8  C   LIG    1       25.953 -16.997   2.791  0.00  0.00    +0.005 C 
ATOM      9  C   LIG    1       24.263 -18.864   3.693  0.00  0.00    -0.003 C 
ATOM     10  C   LIG    1       24.541 -20.125   2.819  0.00  0.00    +0.016 C 
ATOM     11  C   LIG    1       22.805 -18.969   4.175  0.00  0.00    -0.035 C 
ATOM     12  C   LIG    1       22.474 -19.653   5.288  0.00  0.00    +0.050 C 
ATOM     13  C   LIG    1       23.481 -20.328   6.137  0.00  0.00    +0.156 C 
ATOM     14  O   LIG    1       23.102 -21.047   7.060  0.00  0.00    -0.293 OA
ATOM     15  C   LIG    1       24.943 -20.138   5.831  0.00  0.00    +0.080 C 
ATOM     16  C   LIG    1       21.776 -18.245   3.429  0.00  0.00    -0.050 C 
ATOM     17  C   LIG    1       20.366 -18.778   3.392  0.00  0.00    +0.044 C 
ATOM     18  C   LIG    1       25.191 -18.927   4.936  0.00  0.00    +0.019 C 
ATOM     19  C   LIG    1       22.081 -17.094   2.807  0.00  0.00    -0.019 C 
ATOM     20  C   LIG    1       23.315 -15.562   5.194  0.00  0.00    +0.006 C 
ATOM     21  C   LIG    1       26.143 -15.885   3.824  0.00  0.00    +0.008 C 
ATOM     22  C   LIG    1       24.275 -14.707   6.028  0.00  0.00    +0.015 C 
ENDROOT
BRANCH   1  24
ATOM     23  C   LIG    1       24.353 -11.460   5.920  0.00  0.00    +0.086 C 
ATOM     24  C   LIG    1       24.316 -12.502   4.826  0.00  0.00    +0.137 C 
ATOM     25  O   LIG    1       23.695 -12.259   3.788  0.00  0.00    -0.297 OA
ENDBRANCH   1  24
TORSDOF 1
ENDMDL
MODEL 3
REMARK VINA RESULT:      12.8      1.608      2.348
REMARK  Name = *****
REMARK                            x       y       z     vdW  Elec       q    Type
REMARK                         _______ _______ _______ _____ _____    ______ ____
ROOT
ATOM      1  C   LIG    1       25.775 -13.501   4.988  0.00  0.00    +0.032 C 
ATOM      2  C   LIG    1       27.212 -12.997   5.202  0.00  0.00    +0.019 C 
ATOM      3  C   LIG    1       25.573 -14.363   3.686  0.00  0.00    -0.017 C 
ATOM      4  C   LIG    1       25.361 -13.497   2.428  0.00  0.00    +0.012 C 
ATOM      5  C   LIG    1       24.295 -15.175   4.022  0.00  0.00    +0.003 C 
ATOM      6  C   LIG    1       24.021 -16.365   3.081  0.00  0.00    +0.019 C 
ATOM      7  C   LIG    1       25.219 -17.274   2.738  0.00  0.00    +0.006 C 
ATOM      8  C   LIG    1       26.475 -16.442   2.423  0.00  0.00    +0.005 C 
ATOM      9  C   LIG    1       25.405 -18.571   3.637  0.00  0.00    -0.003 C 
ATOM     10  C   LIG    1       25.624 -19.758   2.650  0.00  0.00    +0.016 C 
ATOM     11  C   LIG    1       24.167 -18.920   4.484  0.00  0.00    -0.035 C 
ATOM     12  C   LIG    1       24.263 -19.664   5.605  0.00  0.00    +0.050 C 
ATOM     13  C   LIG    1       25.555 -20.175   6.114  0.00  0.00    +0.156 C 
ATOM     14  O   LIG    1       25.558 -20.958   7.062  0.00  0.00    -0.293 OA
ATOM     15  C   LIG    1       26.830 -19.744   5.440  0.00  0.00    +0.080 C 
ATOM     16  C   LIG    1       22.875 -18.365   4.083  0.00  0.00    -0.050 C 
ATOM     17  C   LIG    1       21.609 -19.122   4.393  0.00  0.00    +0.044 C 
ATOM     18  C   LIG    1       26.635 -18.497   4.581  0.00  0.00    +0.019 C 
ATOM     19  C   LIG    1       22.818 -17.172   3.468  0.00  0.00    -0.019 C 
ATOM     20  C   LIG    1       24.405 -15.489   5.521  0.00  0.00    +0.006 C 
ATOM     21  C   LIG    1       26.767 -15.327   3.429  0.00  0.00    +0.008 C 
ATOM     22  C   LIG    1       25.412 -14.499   6.116  0.00  0.00    +0.015 C 
ENDROOT
BRANCH   1  24
ATOM     23  C   LIG    1       23.800 -12.080   3.946  0.00  0.00    +0.086 C 
ATOM     24  C   LIG    1       24.783 -12.302   5.073  0.00  0.00    +0.137 C 
ATOM     25  O   LIG    1       24.763 -11.541   6.044  0.00  0.00    -0.297 OA
ENDBRANCH   1  24
TORSDOF 1
ENDMDL
