MODEL 1
REMARK VINA RESULT:      -7.3      0.000      0.000
REMARK  Name = *****
REMARK                            x       y       z     vdW  Elec       q    Type
REMARK                         _______ _______ _______ _____ _____    ______ ____
ROOT
ATOM      1  C   LIG    1       25.411 -23.987   5.978  0.00  0.00    +0.239 C 
ATOM      2  N   LIG    1       25.985 -25.010   6.716  0.00  0.00    -0.300 N 
ATOM      3  H   LIG    1       26.079 -24.886   7.718  0.00  0.00    +0.150 HD
ATOM      4  O   LIG    1       25.173 -24.114   4.777  0.00  0.00    -0.273 OA
ENDROOT
BRANCH   2   5
ATOM      5  CA  LIG    1       26.280 -26.330   6.104  0.00  0.00    +0.191 C 
ATOM      6  C   LIG    1       26.673 -27.509   7.044  0.00  0.00    +0.169 C 
ATOM      7  N   LIG    1       25.641 -28.293   6.378  0.00  0.00    -0.249 N 
ATOM      8  CA  LIG    1       25.088 -29.447   6.895  0.00  0.00    +0.123 C 
ATOM      9  C   LIG    1       25.384 -29.875   8.153  0.00  0.00    -0.021 C 
ATOM     10  C   LIG    1       26.277 -29.099   9.106  0.00  0.00    +0.104 C 
ATOM     11  S   LIG    1       26.249 -27.309   8.800  0.00  0.00    -0.131 S 
ATOM     12  C   LIG    1       25.054 -27.224   5.769  0.00  0.00    +0.244 C 
ATOM     13  O   LIG    1       23.940 -27.024   5.315  0.00  0.00    -0.273 OA
BRANCH   8  14
ATOM     14  C   LIG    1       24.199 -30.276   5.997  0.00  0.00    +0.351 C 
ATOM     15  O   LIG    1       24.411 -31.409   5.597  0.00  0.00    -0.244 OA
BRANCH  14  16
ATOM     16  OXT LIG    1       23.100 -29.633   5.583  0.00  0.00    -0.476 OA
ATOM     17  HXT LIG    1       22.536 -29.538   6.375  0.00  0.00    +0.295 HD
ENDBRANCH  14  16
ENDBRANCH   8  14
BRANCH   9  18
ATOM     18  C   LIG    1       24.770 -31.105   8.813  0.00  0.00    +0.111 C 
BRANCH  18  19
ATOM     19  S   LIG    1       24.533 -30.844  10.597  0.00  0.00    -0.080 S 
BRANCH  19  20
ATOM     20  C   LIG    1       22.810 -30.709  10.628  0.00  0.00    +0.209 A 
ATOM     21  N   LIG    1       22.090 -29.978  11.528  0.00  0.00    -0.223 N 
ATOM     22  C   LIG    1       22.507 -29.184  12.649  0.00  0.00    +0.177 C 
ATOM     23  N   LIG    1       20.779 -30.078  11.234  0.00  0.00    -0.043 NA
ATOM     24  N   LIG    1       20.720 -30.873  10.174  0.00  0.00    -0.022 NA
ATOM     25  N   LIG    1       21.976 -31.278   9.788  0.00  0.00    -0.102 NA
ENDBRANCH  19  20
ENDBRANCH  18  19
ENDBRANCH   9  18
ENDBRANCH   2   5
BRANCH   1  26
ATOM     26  CA  LIG    1       25.171 -22.660   6.741  0.00  0.00    +0.191 C 
BRANCH  26  34
ATOM     27  N   LIG    1       30.596 -19.691   8.697  0.00  0.00    -0.292 N 
ATOM     28  C   LIG    1       30.378 -21.015   8.330  0.00  0.00    +0.302 C 
ATOM     29  O   LIG    1       31.184 -21.922   8.498  0.00  0.00    -0.265 OA
ATOM     30  C   LIG    1       29.032 -21.329   7.647  0.00  0.00    +0.309 C 
ATOM     31  O   LIG    1       28.989 -22.255   6.837  0.00  0.00    -0.265 OA
ATOM     32  N   LIG    1       27.946 -20.495   7.943  0.00  0.00    -0.217 N 
ATOM     33  C   LIG    1       26.612 -20.883   7.771  0.00  0.00    +0.310 C 
ATOM     34  N   LIG    1       26.447 -22.051   7.090  0.00  0.00    -0.284 N 
ATOM     35  H   LIG    1       27.299 -22.488   6.759  0.00  0.00    +0.151 HD
ATOM     36  O   LIG    1       25.666 -20.239   8.213  0.00  0.00    -0.252 OA
ATOM     37  C   LIG    1       28.185 -19.282   8.711  0.00  0.00    +0.137 C 
ATOM     38  C   LIG    1       29.568 -18.702   8.421  0.00  0.00    +0.127 C 
BRANCH  27  40
ATOM     39  C   LIG    1       32.042 -17.763   9.307  0.00  0.00    +0.024 C 
ATOM     40  C   LIG    1       31.938 -19.261   9.073  0.00  0.00    +0.105 C 
ENDBRANCH  27  40
ENDBRANCH  26  34
BRANCH  26  41
ATOM     41  C   LIG    1       24.317 -21.683   5.924  0.00  0.00    -0.018 A 
ATOM     42  C   LIG    1       24.878 -20.833   4.946  0.00  0.00    +0.009 A 
ATOM     43  C   LIG    1       24.103 -19.892   4.268  0.00  0.00    +0.045 A 
ATOM     44  C   LIG    1       22.744 -19.822   4.526  0.00  0.00    +0.117 A 
ATOM     45  C   LIG    1       22.149 -20.687   5.437  0.00  0.00    +0.045 A 
ATOM     46  C   LIG    1       22.932 -21.612   6.139  0.00  0.00    +0.009 A 
BRANCH  44  47
ATOM     47  O   LIG    1       21.956 -18.907   3.894  0.00  0.00    -0.507 OA
ATOM     48  H   LIG    1       22.450 -18.547   3.138  0.00  0.00    +0.292 HD
ENDBRANCH  44  47
ENDBRANCH  26  41
ENDBRANCH   1  26
TORSDOF 11
ENDMDL
MODEL 2
REMARK VINA RESULT:      -7.2      2.418      2.932
REMARK  Name = *****
REMARK                            x       y       z     vdW  Elec       q    Type
REMARK                         _______ _______ _______ _____ _____    ______ ____
ROOT
ATOM      1  C   LIG    1       25.160 -23.457   5.582  0.00  0.00    +0.239 C 
ATOM      2  N   LIG    1       25.729 -24.479   6.324  0.00  0.00    -0.300 N 
ATOM      3  H   LIG    1       25.797 -24.364   7.330  0.00  0.00    +0.150 HD
ATOM      4  O   LIG    1       24.954 -23.575   4.375  0.00  0.00    -0.273 OA
ENDROOT
BRANCH   2   5
ATOM      5  CA  LIG    1       26.056 -25.790   5.707  0.00  0.00    +0.191 C 
ATOM      6  C   LIG    1       26.591 -26.928   6.629  0.00  0.00    +0.169 C 
ATOM      7  N   LIG    1       25.559 -27.783   6.055  0.00  0.00    -0.249 N 
ATOM      8  CA  LIG    1       25.118 -28.958   6.627  0.00  0.00    +0.123 C 
ATOM      9  C   LIG    1       25.536 -29.347   7.864  0.00  0.00    -0.021 C 
ATOM     10  C   LIG    1       26.451 -28.503   8.735  0.00  0.00    +0.104 C 
ATOM     11  S   LIG    1       26.291 -26.723   8.410  0.00  0.00    -0.131 S 
ATOM     12  C   LIG    1       24.864 -26.760   5.480  0.00  0.00    +0.244 C 
ATOM     13  O   LIG    1       23.709 -26.634   5.112  0.00  0.00    -0.273 OA
BRANCH   8  14
ATOM     14  C   LIG    1       24.215 -29.854   5.811  0.00  0.00    +0.351 C 
ATOM     15  O   LIG    1       23.035 -30.088   6.015  0.00  0.00    -0.244 OA
BRANCH  14  16
ATOM     16  OXT LIG    1       24.839 -30.474   4.801  0.00  0.00    -0.476 OA
ATOM     17  HXT LIG    1       25.564 -30.984   5.212  0.00  0.00    +0.295 HD
ENDBRANCH  14  16
ENDBRANCH   8  14
BRANCH   9  18
ATOM     18  C   LIG    1       25.049 -30.600   8.584  0.00  0.00    +0.111 C 
BRANCH  18  19
ATOM     19  S   LIG    1       26.359 -31.859   8.670  0.00  0.00    -0.080 S 
BRANCH  19  20
ATOM     20  C   LIG    1       26.198 -32.532   7.087  0.00  0.00    +0.209 A 
ATOM     21  N   LIG    1       25.171 -33.325   6.666  0.00  0.00    -0.223 N 
ATOM     22  C   LIG    1       24.017 -33.825   7.359  0.00  0.00    +0.177 C 
ATOM     23  N   LIG    1       25.355 -33.641   5.369  0.00  0.00    -0.043 NA
ATOM     24  N   LIG    1       26.492 -33.048   5.026  0.00  0.00    -0.022 NA
ATOM     25  N   LIG    1       27.030 -32.359   6.086  0.00  0.00    -0.102 NA
ENDBRANCH  19  20
ENDBRANCH  18  19
ENDBRANCH   9  18
ENDBRANCH   2   5
BRANCH   1  26
ATOM     26  CA  LIG    1       24.885 -22.140   6.351  0.00  0.00    +0.191 C 
BRANCH  26  34
ATOM     27  N   LIG    1       30.633 -19.470   7.735  0.00  0.00    -0.292 N 
ATOM     28  C   LIG    1       29.911 -19.486   6.545  0.00  0.00    +0.302 C 
ATOM     29  O   LIG    1       30.355 -19.128   5.461  0.00  0.00    -0.265 OA
ATOM     30  C   LIG    1       28.449 -19.968   6.630  0.00  0.00    +0.309 C 
ATOM     31  O   LIG    1       27.634 -19.509   5.831  0.00  0.00    -0.265 OA
ATOM     32  N   LIG    1       28.120 -20.857   7.662  0.00  0.00    -0.217 N 
ATOM     33  C   LIG    1       27.005 -21.701   7.621  0.00  0.00    +0.310 C 
ATOM     34  N   LIG    1       26.138 -21.441   6.601  0.00  0.00    -0.284 N 
ATOM     35  H   LIG    1       26.380 -20.654   6.013  0.00  0.00    +0.151 HD
ATOM     36  O   LIG    1       26.826 -22.614   8.419  0.00  0.00    -0.252 OA
ATOM     37  C   LIG    1       29.109 -21.123   8.698  0.00  0.00    +0.137 C 
ATOM     38  C   LIG    1       29.982 -19.898   8.961  0.00  0.00    +0.127 C 
BRANCH  27  40
ATOM     39  C   LIG    1       31.940 -17.682   8.863  0.00  0.00    +0.024 C 
ATOM     40  C   LIG    1       31.906 -18.762   7.794  0.00  0.00    +0.105 C 
ENDBRANCH  27  40
ENDBRANCH  26  34
BRANCH  26  41
ATOM     41  C   LIG    1       23.909 -21.234   5.593  0.00  0.00    -0.018 A 
ATOM     42  C   LIG    1       24.347 -20.125   4.837  0.00  0.00    +0.009 A 
ATOM     43  C   LIG    1       23.443 -19.262   4.219  0.00  0.00    +0.045 A 
ATOM     44  C   LIG    1       22.086 -19.525   4.308  0.00  0.00    +0.117 A 
ATOM     45  C   LIG    1       21.624 -20.644   4.992  0.00  0.00    +0.045 A 
ATOM     46  C   LIG    1       22.530 -21.494   5.636  0.00  0.00    +0.009 A 
BRANCH  44  47
ATOM     47  O   LIG    1       21.171 -18.698   3.729  0.00  0.00    -0.507 OA
ATOM     48  H   LIG    1       20.669 -19.208   3.071  0.00  0.00    +0.292 HD
ENDBRANCH  44  47
ENDBRANCH  26  41
ENDBRANCH   1  26
TORSDOF 11
ENDMDL
MODEL 3
REMARK VINA RESULT:      -7.0      1.834      2.048
REMARK  Name = *****
REMARK                            x       y       z     vdW  Elec       q    Type
REMARK                         _______ _______ _______ _____ _____    ______ ____
ROOT
ATOM      1  C   LIG    1       25.127 -23.538   5.554  0.00  0.00    +0.239 C 
ATOM      2  N   LIG    1       25.680 -24.564   6.302  0.00  0.00    -0.300 N 
ATOM      3  H   LIG    1       25.743 -24.447   7.307  0.00  0.00    +0.150 HD
ATOM      4  O   LIG    1       24.926 -23.657   4.345  0.00  0.00    -0.273 OA
ENDROOT
BRANCH   2   5
ATOM      5  CA  LIG    1       25.997 -25.879   5.690  0.00  0.00    +0.191 C 
ATOM      6  C   LIG    1       26.548 -27.010   6.612  0.00  0.00    +0.169 C 
ATOM      7  N   LIG    1       25.508 -27.870   6.061  0.00  0.00    -0.249 N 
ATOM      8  CA  LIG    1       25.076 -29.041   6.649  0.00  0.00    +0.123 C 
ATOM      9  C   LIG    1       25.515 -29.420   7.882  0.00  0.00    -0.021 C 
ATOM     10  C   LIG    1       26.443 -28.569   8.732  0.00  0.00    +0.104 C 
ATOM     11  S   LIG    1       26.277 -26.791   8.395  0.00  0.00    -0.131 S 
ATOM     12  C   LIG    1       24.802 -26.852   5.489  0.00  0.00    +0.244 C 
ATOM     13  O   LIG    1       23.641 -26.730   5.139  0.00  0.00    -0.273 OA
BRANCH   8  14
ATOM     14  C   LIG    1       24.161 -29.943   5.856  0.00  0.00    +0.351 C 
ATOM     15  O   LIG    1       24.386 -31.088   5.500  0.00  0.00    -0.244 OA
BRANCH  14  16
ATOM     16  OXT LIG    1       23.015 -29.357   5.484  0.00  0.00    -0.476 OA
ATOM     17  HXT LIG    1       23.221 -28.875   4.660  0.00  0.00    +0.295 HD
ENDBRANCH  14  16
ENDBRANCH   8  14
BRANCH   9  18
ATOM     18  C   LIG    1       25.040 -30.667   8.620  0.00  0.00    +0.111 C 
BRANCH  18  19
ATOM     19  S   LIG    1       24.020 -30.229  10.061  0.00  0.00    -0.080 S 
BRANCH  19  20
ATOM     20  C   LIG    1       24.980 -30.949  11.305  0.00  0.00    +0.209 A 
ATOM     21  N   LIG    1       25.728 -30.268  12.221  0.00  0.00    -0.223 N 
ATOM     22  C   LIG    1       25.948 -28.861  12.402  0.00  0.00    +0.177 C 
ATOM     23  N   LIG    1       26.319 -31.147  13.055  0.00  0.00    -0.043 NA
ATOM     24  N   LIG    1       25.934 -32.343  12.628  0.00  0.00    -0.022 NA
ATOM     25  N   LIG    1       25.105 -32.236  11.537  0.00  0.00    -0.102 NA
ENDBRANCH  19  20
ENDBRANCH  18  19
ENDBRANCH   9  18
ENDBRANCH   2   5
BRANCH   1  26
ATOM     26  CA  LIG    1       24.859 -22.216   6.318  0.00  0.00    +0.191 C 
BRANCH  26  34
ATOM     27  N   LIG    1       30.640 -19.596   7.659  0.00  0.00    -0.292 N 
ATOM     28  C   LIG    1       29.875 -19.541   6.498  0.00  0.00    +0.302 C 
ATOM     29  O   LIG    1       30.277 -19.111   5.424  0.00  0.00    -0.265 OA
ATOM     30  C   LIG    1       28.420 -20.039   6.606  0.00  0.00    +0.309 C 
ATOM     31  O   LIG    1       27.573 -19.536   5.867  0.00  0.00    -0.265 OA
ATOM     32  N   LIG    1       28.134 -20.994   7.589  0.00  0.00    -0.217 N 
ATOM     33  C   LIG    1       27.022 -21.843   7.534  0.00  0.00    +0.310 C 
ATOM     34  N   LIG    1       26.117 -21.525   6.566  0.00  0.00    -0.284 N 
ATOM     35  H   LIG    1       26.333 -20.700   6.022  0.00  0.00    +0.151 HD
ATOM     36  O   LIG    1       26.878 -22.807   8.279  0.00  0.00    -0.252 OA
ATOM     37  C   LIG    1       29.161 -21.318   8.569  0.00  0.00    +0.137 C 
ATOM     38  C   LIG    1       30.037 -20.107   8.879  0.00  0.00    +0.127 C 
BRANCH  27  40
ATOM     39  C   LIG    1       31.916 -17.754   8.735  0.00  0.00    +0.024 C 
ATOM     40  C   LIG    1       31.911 -18.883   7.717  0.00  0.00    +0.105 C 
ENDBRANCH  27  40
ENDBRANCH  26  34
BRANCH  26  41
ATOM     41  C   LIG    1       23.890 -21.307   5.555  0.00  0.00    -0.018 A 
ATOM     42  C   LIG    1       24.337 -20.209   4.788  0.00  0.00    +0.009 A 
ATOM     43  C   LIG    1       23.440 -19.341   4.166  0.00  0.00    +0.045 A 
ATOM     44  C   LIG    1       22.080 -19.589   4.263  0.00  0.00    +0.117 A 
ATOM     45  C   LIG    1       21.609 -20.696   4.959  0.00  0.00    +0.045 A 
ATOM     46  C   LIG    1       22.509 -21.551   5.607  0.00  0.00    +0.009 A 
BRANCH  44  47
ATOM     47  O   LIG    1       21.172 -18.756   3.681  0.00  0.00    -0.507 OA
ATOM     48  H   LIG    1       20.288 -19.151   3.778  0.00  0.00    +0.292 HD
ENDBRANCH  44  47
ENDBRANCH  26  41
ENDBRANCH   1  26
TORSDOF 11
ENDMDL
MODEL 4
REMARK VINA RESULT:      -6.6      5.891      9.486
REMARK  Name = *****
REMARK                            x       y       z     vdW  Elec       q    Type
REMARK                         _______ _______ _______ _____ _____    ______ ____
ROOT
ATOM      1  C   LIG    1       23.416 -31.953  12.375  0.00  0.00    +0.239 C 
ATOM      2  N   LIG    1       24.447 -32.022  11.453  0.00  0.00    -0.300 N 
ATOM      3  H   LIG    1       25.355 -31.658  11.719  0.00  0.00    +0.150 HD
ATOM      4  O   LIG    1       22.320 -32.468  12.155  0.00  0.00    -0.273 OA
ENDROOT
BRANCH   2   5
ATOM      5  CA  LIG    1       24.297 -32.776  10.182  0.00  0.00    +0.191 C 
ATOM      6  C   LIG    1       23.772 -32.013   8.928  0.00  0.00    +0.169 C 
ATOM      7  N   LIG    1       24.925 -32.541   8.210  0.00  0.00    -0.249 N 
ATOM      8  CA  LIG    1       25.405 -32.023   7.024  0.00  0.00    +0.123 C 
ATOM      9  C   LIG    1       24.900 -30.875   6.495  0.00  0.00    -0.021 C 
ATOM     10  C   LIG    1       23.834 -30.041   7.184  0.00  0.00    +0.104 C 
ATOM     11  S   LIG    1       23.872 -30.200   8.993  0.00  0.00    -0.131 S 
ATOM     12  C   LIG    1       25.584 -32.952   9.330  0.00  0.00    +0.244 C 
ATOM     13  O   LIG    1       26.756 -33.183   9.577  0.00  0.00    -0.273 OA
BRANCH   8  14
ATOM     14  C   LIG    1       26.459 -32.807   6.278  0.00  0.00    +0.351 C 
ATOM     15  O   LIG    1       26.275 -33.727   5.498  0.00  0.00    -0.244 OA
BRANCH  14  16
ATOM     16  OXT LIG    1       27.714 -32.450   6.582  0.00  0.00    -0.476 OA
ATOM     17  HXT LIG    1       27.921 -31.694   5.999  0.00  0.00    +0.295 HD
ENDBRANCH  14  16
ENDBRANCH   8  14
BRANCH   9  18
ATOM     18  C   LIG    1       25.417 -30.211   5.223  0.00  0.00    +0.111 C 
BRANCH  18  19
ATOM     19  S   LIG    1       24.426 -28.747   4.796  0.00  0.00    -0.080 S 
BRANCH  19  20
ATOM     20  C   LIG    1       25.553 -27.514   5.241  0.00  0.00    +0.209 A 
ATOM     21  N   LIG    1       25.229 -26.297   5.766  0.00  0.00    -0.223 N 
ATOM     22  C   LIG    1       23.954 -25.706   6.062  0.00  0.00    +0.177 C 
ATOM     23  N   LIG    1       26.358 -25.606   6.018  0.00  0.00    -0.043 NA
ATOM     24  N   LIG    1       27.346 -26.404   5.634  0.00  0.00    -0.022 NA
ATOM     25  N   LIG    1       26.861 -27.592   5.143  0.00  0.00    -0.102 NA
ENDBRANCH  19  20
ENDBRANCH  18  19
ENDBRANCH   9  18
ENDBRANCH   2   5
BRANCH   1  26
ATOM     26  CA  LIG    1       23.706 -31.122  13.650  0.00  0.00    +0.191 C 
BRANCH  26  34
ATOM     27  N   LIG    1       30.035 -29.746  14.013  0.00  0.00    -0.292 N 
ATOM     28  C   LIG    1       29.163 -29.686  12.930  0.00  0.00    +0.302 C 
ATOM     29  O   LIG    1       29.511 -29.525  11.768  0.00  0.00    -0.265 OA
ATOM     30  C   LIG    1       27.659 -29.812  13.248  0.00  0.00    +0.309 C 
ATOM     31  O   LIG    1       26.856 -29.241  12.512  0.00  0.00    -0.265 OA
ATOM     32  N   LIG    1       27.298 -30.519  14.402  0.00  0.00    -0.217 N 
ATOM     33  C   LIG    1       26.032 -31.086  14.591  0.00  0.00    +0.310 C 
ATOM     34  N   LIG    1       25.104 -30.713  13.665  0.00  0.00    -0.284 N 
ATOM     35  H   LIG    1       25.423 -30.049  12.971  0.00  0.00    +0.151 HD
ATOM     36  O   LIG    1       25.778 -31.869  15.500  0.00  0.00    -0.252 OA
ATOM     37  C   LIG    1       28.345 -30.925  15.330  0.00  0.00    +0.137 C 
ATOM     38  C   LIG    1       29.492 -29.917  15.350  0.00  0.00    +0.127 C 
BRANCH  27  40
ATOM     39  C   LIG    1       32.410 -30.475  14.097  0.00  0.00    +0.024 C 
ATOM     40  C   LIG    1       31.426 -29.346  13.836  0.00  0.00    +0.105 C 
ENDBRANCH  27  40
ENDBRANCH  26  34
BRANCH  26  41
ATOM     41  C   LIG    1       22.789 -29.898  13.750  0.00  0.00    -0.018 A 
ATOM     42  C   LIG    1       23.041 -28.710  13.030  0.00  0.00    +0.009 A 
ATOM     43  C   LIG    1       22.244 -27.577  13.193  0.00  0.00    +0.045 A 
ATOM     44  C   LIG    1       21.153 -27.633  14.044  0.00  0.00    +0.117 A 
ATOM     45  C   LIG    1       20.841 -28.806  14.720  0.00  0.00    +0.045 A 
ATOM     46  C   LIG    1       21.657 -29.935  14.579  0.00  0.00    +0.009 A 
BRANCH  44  47
ATOM     47  O   LIG    1       20.359 -26.543  14.240  0.00  0.00    -0.507 OA
ATOM     48  H   LIG    1       19.502 -26.706  13.811  0.00  0.00    +0.292 HD
ENDBRANCH  44  47
ENDBRANCH  26  41
ENDBRANCH   1  26
TORSDOF 11
ENDMDL
MODEL 5
REMARK VINA RESULT:      -6.3      3.026     10.171
REMARK  Name = *****
REMARK                            x       y       z     vdW  Elec       q    Type
REMARK                         _______ _______ _______ _____ _____    ______ ____
ROOT
ATOM      1  C   LIG    1       24.553 -28.088   6.437  0.00  0.00    +0.239 C 
ATOM      2  N   LIG    1       25.073 -26.834   6.158  0.00  0.00    -0.300 N 
ATOM      3  H   LIG    1       26.064 -26.758   5.957  0.00  0.00    +0.150 HD
ATOM      4  O   LIG    1       23.344 -28.265   6.588  0.00  0.00    -0.273 OA
ENDROOT
BRANCH   2   5
ATOM      5  CA  LIG    1       24.188 -25.657   5.967  0.00  0.00    +0.191 C 
ATOM      6  C   LIG    1       24.379 -24.428   6.906  0.00  0.00    +0.169 C 
ATOM      7  N   LIG    1       24.446 -23.607   5.703  0.00  0.00    -0.249 N 
ATOM      8  CA  LIG    1       24.971 -22.332   5.661  0.00  0.00    +0.123 C 
ATOM      9  C   LIG    1       25.596 -21.786   6.741  0.00  0.00    -0.021 C 
ATOM     10  C   LIG    1       25.828 -22.542   8.038  0.00  0.00    +0.104 C 
ATOM     11  S   LIG    1       25.962 -24.338   7.794  0.00  0.00    -0.131 S 
ATOM     12  C   LIG    1       24.602 -24.659   4.850  0.00  0.00    +0.244 C 
ATOM     13  O   LIG    1       25.060 -24.767   3.725  0.00  0.00    -0.273 OA
BRANCH   8  14
ATOM     14  C   LIG    1       24.767 -21.517   4.406  0.00  0.00    +0.351 C 
ATOM     15  O   LIG    1       25.433 -20.565   4.032  0.00  0.00    -0.244 OA
BRANCH  14  16
ATOM     16  OXT LIG    1       23.696 -21.886   3.691  0.00  0.00    -0.476 OA
ATOM     17  HXT LIG    1       22.956 -21.342   4.026  0.00  0.00    +0.295 HD
ENDBRANCH  14  16
ENDBRANCH   8  14
BRANCH   9  18
ATOM     18  C   LIG    1       26.252 -20.409   6.752  0.00  0.00    +0.111 C 
BRANCH  18  19
ATOM     19  S   LIG    1       27.565 -20.317   8.008  0.00  0.00    -0.080 S 
BRANCH  19  20
ATOM     20  C   LIG    1       28.815 -19.611   7.046  0.00  0.00    +0.209 A 
ATOM     21  N   LIG    1       30.142 -19.593   7.362  0.00  0.00    -0.223 N 
ATOM     22  C   LIG    1       30.847 -20.093   8.509  0.00  0.00    +0.177 C 
ATOM     23  N   LIG    1       30.827 -18.988   6.372  0.00  0.00    -0.043 NA
ATOM     24  N   LIG    1       29.910 -18.637   5.479  0.00  0.00    -0.022 NA
ATOM     25  N   LIG    1       28.652 -19.013   5.887  0.00  0.00    -0.102 NA
ENDBRANCH  19  20
ENDBRANCH  18  19
ENDBRANCH   9  18
ENDBRANCH   2   5
BRANCH   1  26
ATOM     26  CA  LIG    1       25.593 -29.221   6.626  0.00  0.00    +0.191 C 
BRANCH  26  34
ATOM     27  N   LIG    1       26.332 -30.001  13.023  0.00  0.00    -0.292 N 
ATOM     28  C   LIG    1       25.447 -30.611  12.139  0.00  0.00    +0.302 C 
ATOM     29  O   LIG    1       24.494 -31.301  12.478  0.00  0.00    -0.265 OA
ATOM     30  C   LIG    1       25.722 -30.406  10.636  0.00  0.00    +0.309 C 
ATOM     31  O   LIG    1       25.384 -31.293   9.853  0.00  0.00    -0.265 OA
ATOM     32  N   LIG    1       26.404 -29.244  10.255  0.00  0.00    -0.217 N 
ATOM     33  C   LIG    1       26.345 -28.707   8.964  0.00  0.00    +0.310 C 
ATOM     34  N   LIG    1       25.750 -29.517   8.043  0.00  0.00    -0.284 N 
ATOM     35  H   LIG    1       25.450 -30.421   8.386  0.00  0.00    +0.151 HD
ATOM     36  O   LIG    1       26.771 -27.592   8.681  0.00  0.00    -0.252 OA
ATOM     37  C   LIG    1       26.980 -28.399  11.293  0.00  0.00    +0.137 C 
ATOM     38  C   LIG    1       27.440 -29.226  12.492  0.00  0.00    +0.127 C 
BRANCH  27  40
ATOM     39  C   LIG    1       27.707 -30.578  15.011  0.00  0.00    +0.024 C 
ATOM     40  C   LIG    1       26.317 -30.382  14.430  0.00  0.00    +0.105 C 
ENDBRANCH  27  40
ENDBRANCH  26  34
BRANCH  26  41
ATOM     41  C   LIG    1       25.198 -30.486   5.855  0.00  0.00    -0.018 A 
ATOM     42  C   LIG    1       25.892 -30.908   4.700  0.00  0.00    +0.009 A 
ATOM     43  C   LIG    1       25.473 -32.015   3.963  0.00  0.00    +0.045 A 
ATOM     44  C   LIG    1       24.380 -32.746   4.399  0.00  0.00    +0.117 A 
ATOM     45  C   LIG    1       23.712 -32.393   5.567  0.00  0.00    +0.045 A 
ATOM     46  C   LIG    1       24.115 -31.266   6.291  0.00  0.00    +0.009 A 
BRANCH  44  47
ATOM     47  O   LIG    1       23.931 -33.825   3.699  0.00  0.00    -0.507 OA
ATOM     48  H   LIG    1       24.365 -33.827   2.828  0.00  0.00    +0.292 HD
ENDBRANCH  44  47
ENDBRANCH  26  41
ENDBRANCH   1  26
TORSDOF 11
ENDMDL
MODEL 6
REMARK VINA RESULT:      -6.0      3.981      8.706
REMARK  Name = *****
REMARK                            x       y       z     vdW  Elec       q    Type
REMARK                         _______ _______ _______ _____ _____    ______ ____
ROOT
ATOM      1  C   LIG    1       25.285 -30.710   9.259  0.00  0.00    +0.239 C 
ATOM      2  N   LIG    1       24.429 -31.525   9.981  0.00  0.00    -0.300 N 
ATOM      3  H   LIG    1       23.756 -32.088   9.471  0.00  0.00    +0.150 HD
ATOM      4  O   LIG    1       26.191 -30.082   9.807  0.00  0.00    -0.273 OA
ENDROOT
BRANCH   2   5
ATOM      5  CA  LIG    1       24.605 -31.728  11.441  0.00  0.00    +0.191 C 
ATOM      6  C   LIG    1       24.070 -30.629  12.409  0.00  0.00    +0.169 C 
ATOM      7  N   LIG    1       23.378 -31.694  13.124  0.00  0.00    -0.249 N 
ATOM      8  CA  LIG    1       22.326 -31.490  13.994  0.00  0.00    +0.123 C 
ATOM      9  C   LIG    1       21.764 -30.259  14.152  0.00  0.00    -0.021 C 
ATOM     10  C   LIG    1       22.190 -29.042  13.349  0.00  0.00    +0.104 C 
ATOM     11  S   LIG    1       22.855 -29.471  11.713  0.00  0.00    -0.131 S 
ATOM     12  C   LIG    1       23.549 -32.627  12.144  0.00  0.00    +0.244 C 
ATOM     13  O   LIG    1       22.966 -33.658  11.855  0.00  0.00    -0.273 OA
BRANCH   8  14
ATOM     14  C   LIG    1       21.858 -32.654  14.834  0.00  0.00    +0.351 C 
ATOM     15  O   LIG    1       20.706 -33.022  15.004  0.00  0.00    -0.244 OA
BRANCH  14  16
ATOM     16  OXT LIG    1       22.846 -33.284  15.482  0.00  0.00    -0.476 OA
ATOM     17  HXT LIG    1       22.653 -34.238  15.395  0.00  0.00    +0.295 HD
ENDBRANCH  14  16
ENDBRANCH   8  14
BRANCH   9  18
ATOM     18  C   LIG    1       20.565 -29.967  15.048  0.00  0.00    +0.111 C 
BRANCH  18  19
ATOM     19  S   LIG    1       19.974 -28.262  14.819  0.00  0.00    -0.080 S 
BRANCH  19  20
ATOM     20  C   LIG    1       18.289 -28.583  14.605  0.00  0.00    +0.209 A 
ATOM     21  N   LIG    1       17.334 -27.647  14.331  0.00  0.00    -0.223 N 
ATOM     22  C   LIG    1       17.425 -26.222  14.175  0.00  0.00    +0.177 C 
ATOM     23  N   LIG    1       16.140 -28.256  14.200  0.00  0.00    -0.043 NA
ATOM     24  N   LIG    1       16.382 -29.544  14.407  0.00  0.00    -0.022 NA
ATOM     25  N   LIG    1       17.714 -29.762  14.665  0.00  0.00    -0.102 NA
ENDBRANCH  19  20
ENDBRANCH  18  19
ENDBRANCH   9  18
ENDBRANCH   2   5
BRANCH   1  26
ATOM     26  CA  LIG    1       24.976 -30.580   7.747  0.00  0.00    +0.191 C 
BRANCH  26  34
ATOM     27  N   LIG    1       25.186 -24.436   5.674  0.00  0.00    -0.292 N 
ATOM     28  C   LIG    1       25.597 -24.992   6.883  0.00  0.00    +0.302 C 
ATOM     29  O   LIG    1       25.918 -24.344   7.870  0.00  0.00    -0.265 OA
ATOM     30  C   LIG    1       25.664 -26.532   6.946  0.00  0.00    +0.309 C 
ATOM     31  O   LIG    1       26.491 -27.051   7.695  0.00  0.00    -0.265 OA
ATOM     32  N   LIG    1       24.818 -27.252   6.093  0.00  0.00    -0.217 N 
ATOM     33  C   LIG    1       24.444 -28.581   6.326  0.00  0.00    +0.310 C 
ATOM     34  N   LIG    1       25.137 -29.195   7.326  0.00  0.00    -0.284 N 
ATOM     35  H   LIG    1       25.859 -28.636   7.763  0.00  0.00    +0.151 HD
ATOM     36  O   LIG    1       23.554 -29.146   5.699  0.00  0.00    -0.252 OA
ATOM     37  C   LIG    1       24.074 -26.529   5.072  0.00  0.00    +0.137 C 
ATOM     38  C   LIG    1       24.854 -25.316   4.568  0.00  0.00    +0.127 C 
BRANCH  27  40
ATOM     39  C   LIG    1       24.182 -22.171   5.865  0.00  0.00    +0.024 C 
ATOM     40  C   LIG    1       25.376 -23.009   5.440  0.00  0.00    +0.105 C 
ENDBRANCH  27  40
ENDBRANCH  26  34
BRANCH  26  41
ATOM     41  C   LIG    1       25.864 -31.502   6.905  0.00  0.00    -0.018 A 
ATOM     42  C   LIG    1       26.914 -32.256   7.472  0.00  0.00    +0.009 A 
ATOM     43  C   LIG    1       27.767 -33.027   6.682  0.00  0.00    +0.045 A 
ATOM     44  C   LIG    1       27.549 -33.093   5.316  0.00  0.00    +0.117 A 
ATOM     45  C   LIG    1       26.487 -32.412   4.733  0.00  0.00    +0.045 A 
ATOM     46  C   LIG    1       25.649 -31.615   5.522  0.00  0.00    +0.009 A 
BRANCH  44  47
ATOM     47  O   LIG    1       28.369 -33.825   4.510  0.00  0.00    -0.507 OA
ATOM     48  H   LIG    1       29.264 -33.449   4.561  0.00  0.00    +0.292 HD
ENDBRANCH  44  47
ENDBRANCH  26  41
ENDBRANCH   1  26
TORSDOF 11
ENDMDL
MODEL 7
REMARK VINA RESULT:      -5.8      6.047     10.363
REMARK  Name = *****
REMARK                            x       y       z     vdW  Elec       q    Type
REMARK                         _______ _______ _______ _____ _____    ______ ____
ROOT
ATOM      1  C   LIG    1       26.095 -31.487   8.905  0.00  0.00    +0.239 C 
ATOM      2  N   LIG    1       26.289 -30.279   9.554  0.00  0.00    -0.300 N 
ATOM      3  H   LIG    1       25.580 -29.560   9.454  0.00  0.00    +0.150 HD
ATOM      4  O   LIG    1       26.862 -32.435   9.067  0.00  0.00    -0.273 OA
ENDROOT
BRANCH   2   5
ATOM      5  CA  LIG    1       27.397 -30.094  10.525  0.00  0.00    +0.191 C 
ATOM      6  C   LIG    1       27.609 -28.679  11.145  0.00  0.00    +0.169 C 
ATOM      7  N   LIG    1       27.598 -29.326  12.451  0.00  0.00    -0.249 N 
ATOM      8  CA  LIG    1       27.384 -28.664  13.643  0.00  0.00    +0.123 C 
ATOM      9  C   LIG    1       27.034 -27.348  13.672  0.00  0.00    -0.021 C 
ATOM     10  C   LIG    1       26.784 -26.527  12.419  0.00  0.00    +0.104 C 
ATOM     11  S   LIG    1       26.205 -27.532  11.020  0.00  0.00    -0.131 S 
ATOM     12  C   LIG    1       27.102 -30.510  11.993  0.00  0.00    +0.244 C 
ATOM     13  O   LIG    1       26.504 -31.431  12.524  0.00  0.00    -0.273 OA
BRANCH   8  14
ATOM     14  C   LIG    1       27.627 -29.416  14.930  0.00  0.00    +0.351 C 
ATOM     15  O   LIG    1       28.696 -29.577  15.496  0.00  0.00    -0.244 OA
BRANCH  14  16
ATOM     16  OXT LIG    1       26.528 -29.993  15.434  0.00  0.00    -0.476 OA
ATOM     17  HXT LIG    1       25.776 -29.482  15.077  0.00  0.00    +0.295 HD
ENDBRANCH  14  16
ENDBRANCH   8  14
BRANCH   9  18
ATOM     18  C   LIG    1       26.726 -26.565  14.944  0.00  0.00    +0.111 C 
BRANCH  18  19
ATOM     19  S   LIG    1       25.108 -25.742  14.833  0.00  0.00    -0.080 S 
BRANCH  19  20
ATOM     20  C   LIG    1       24.089 -27.139  14.838  0.00  0.00    +0.209 A 
ATOM     21  N   LIG    1       22.923 -27.269  14.142  0.00  0.00    -0.223 N 
ATOM     22  C   LIG    1       22.227 -26.353  13.283  0.00  0.00    +0.177 C 
ATOM     23  N   LIG    1       22.412 -28.497  14.358  0.00  0.00    -0.043 NA
ATOM     24  N   LIG    1       23.264 -29.087  15.186  0.00  0.00    -0.022 NA
ATOM     25  N   LIG    1       24.310 -28.252  15.498  0.00  0.00    -0.102 NA
ENDBRANCH  19  20
ENDBRANCH  18  19
ENDBRANCH   9  18
ENDBRANCH   2   5
BRANCH   1  26
ATOM     26  CA  LIG    1       24.909 -31.533   7.908  0.00  0.00    +0.191 C 
BRANCH  26  34
ATOM     27  N   LIG    1       19.394 -32.473  11.192  0.00  0.00    -0.292 N 
ATOM     28  C   LIG    1       20.380 -31.503  11.349  0.00  0.00    +0.302 C 
ATOM     29  O   LIG    1       20.452 -30.736  12.301  0.00  0.00    -0.265 OA
ATOM     30  C   LIG    1       21.425 -31.393  10.221  0.00  0.00    +0.309 C 
ATOM     31  O   LIG    1       21.935 -30.295  10.000  0.00  0.00    -0.265 OA
ATOM     32  N   LIG    1       21.687 -32.544   9.467  0.00  0.00    -0.217 N 
ATOM     33  C   LIG    1       22.868 -32.734   8.739  0.00  0.00    +0.310 C 
ATOM     34  N   LIG    1       23.652 -31.623   8.639  0.00  0.00    -0.284 N 
ATOM     35  H   LIG    1       23.281 -30.787   9.071  0.00  0.00    +0.151 HD
ATOM     36  O   LIG    1       23.186 -33.811   8.247  0.00  0.00    -0.252 OA
ATOM     37  C   LIG    1       20.836 -33.711   9.653  0.00  0.00    +0.137 C 
ATOM     38  C   LIG    1       19.405 -33.306  10.003  0.00  0.00    +0.127 C 
BRANCH  27  40
ATOM     39  C   LIG    1       17.199 -31.395  11.639  0.00  0.00    +0.024 C 
ATOM     40  C   LIG    1       18.217 -32.445  12.053  0.00  0.00    +0.105 C 
ENDBRANCH  27  40
ENDBRANCH  26  34
BRANCH  26  41
ATOM     41  C   LIG    1       24.902 -30.314   6.979  0.00  0.00    -0.018 A 
ATOM     42  C   LIG    1       25.577 -30.312   5.739  0.00  0.00    +0.009 A 
ATOM     43  C   LIG    1       25.630 -29.170   4.941  0.00  0.00    +0.045 A 
ATOM     44  C   LIG    1       24.966 -28.025   5.350  0.00  0.00    +0.117 A 
ATOM     45  C   LIG    1       24.241 -28.013   6.536  0.00  0.00    +0.045 A 
ATOM     46  C   LIG    1       24.211 -29.151   7.351  0.00  0.00    +0.009 A 
BRANCH  44  47
ATOM     47  O   LIG    1       25.006 -26.886   4.605  0.00  0.00    -0.507 OA
ATOM     48  H   LIG    1       24.129 -26.467   4.636  0.00  0.00    +0.292 HD
ENDBRANCH  44  47
ENDBRANCH  26  41
ENDBRANCH   1  26
TORSDOF 11
ENDMDL
MODEL 8
REMARK VINA RESULT:      -5.6      2.174      2.539
REMARK  Name = *****
REMARK                            x       y       z     vdW  Elec       q    Type
REMARK                         _______ _______ _______ _____ _____    ______ ____
ROOT
ATOM      1  C   LIG    1       25.979 -24.648   6.809  0.00  0.00    +0.239 C 
ATOM      2  N   LIG    1       25.702 -25.806   7.516  0.00  0.00    -0.300 N 
ATOM      3  H   LIG    1       25.141 -25.734   8.358  0.00  0.00    +0.150 HD
ATOM      4  O   LIG    1       26.565 -24.678   5.728  0.00  0.00    -0.273 OA
ENDROOT
BRANCH   2   5
ATOM      5  CA  LIG    1       26.043 -27.144   6.968  0.00  0.00    +0.191 C 
ATOM      6  C   LIG    1       26.677 -28.196   7.928  0.00  0.00    +0.169 C 
ATOM      7  N   LIG    1       25.648 -29.125   7.479  0.00  0.00    -0.249 N 
ATOM      8  CA  LIG    1       25.289 -30.273   8.155  0.00  0.00    +0.123 C 
ATOM      9  C   LIG    1       25.796 -30.560   9.385  0.00  0.00    -0.021 C 
ATOM     10  C   LIG    1       26.728 -29.626  10.139  0.00  0.00    +0.104 C 
ATOM     11  S   LIG    1       26.479 -27.879   9.707  0.00  0.00    -0.131 S 
ATOM     12  C   LIG    1       24.878 -28.170   6.882  0.00  0.00    +0.244 C 
ATOM     13  O   LIG    1       23.699 -28.110   6.580  0.00  0.00    -0.273 OA
BRANCH   8  14
ATOM     14  C   LIG    1       24.374 -31.254   7.460  0.00  0.00    +0.351 C 
ATOM     15  O   LIG    1       24.625 -31.914   6.464  0.00  0.00    -0.244 OA
BRANCH  14  16
ATOM     16  OXT LIG    1       23.152 -31.330   8.003  0.00  0.00    -0.476 OA
ATOM     17  HXT LIG    1       22.664 -31.982   7.462  0.00  0.00    +0.295 HD
ENDBRANCH  14  16
ENDBRANCH   8  14
BRANCH   9  18
ATOM     18  C   LIG    1       25.404 -31.777  10.217  0.00  0.00    +0.111 C 
BRANCH  18  19
ATOM     19  S   LIG    1       24.483 -31.285  11.706  0.00  0.00    -0.080 S 
BRANCH  19  20
ATOM     20  C   LIG    1       25.622 -31.780  12.909  0.00  0.00    +0.209 A 
ATOM     21  N   LIG    1       26.343 -30.941  13.708  0.00  0.00    -0.223 N 
ATOM     22  C   LIG    1       26.391 -29.507  13.773  0.00  0.00    +0.177 C 
ATOM     23  N   LIG    1       27.106 -31.671  14.545  0.00  0.00    -0.043 NA
ATOM     24  N   LIG    1       26.849 -32.935  14.236  0.00  0.00    -0.022 NA
ATOM     25  N   LIG    1       25.931 -33.019  13.216  0.00  0.00    -0.102 NA
ENDBRANCH  19  20
ENDBRANCH  18  19
ENDBRANCH   9  18
ENDBRANCH   2   5
BRANCH   1  26
ATOM     26  CA  LIG    1       25.582 -23.322   7.507  0.00  0.00    +0.191 C 
BRANCH  26  34
ATOM     27  N   LIG    1       30.550 -19.254   8.430  0.00  0.00    -0.292 N 
ATOM     28  C   LIG    1       30.539 -20.578   8.000  0.00  0.00    +0.302 C 
ATOM     29  O   LIG    1       31.537 -21.279   7.892  0.00  0.00    -0.265 OA
ATOM     30  C   LIG    1       29.167 -21.169   7.619  0.00  0.00    +0.309 C 
ATOM     31  O   LIG    1       29.126 -22.047   6.758  0.00  0.00    -0.265 OA
ATOM     32  N   LIG    1       28.033 -20.622   8.234  0.00  0.00    -0.217 N 
ATOM     33  C   LIG    1       26.814 -21.301   8.340  0.00  0.00    +0.310 C 
ATOM     34  N   LIG    1       26.742 -22.448   7.608  0.00  0.00    -0.284 N 
ATOM     35  H   LIG    1       27.560 -22.662   7.050  0.00  0.00    +0.151 HD
ATOM     36  O   LIG    1       25.889 -20.912   9.046  0.00  0.00    -0.252 OA
ATOM     37  C   LIG    1       28.187 -19.417   9.038  0.00  0.00    +0.137 C 
ATOM     38  C   LIG    1       29.297 -18.521   8.492  0.00  0.00    +0.127 C 
BRANCH  27  40
ATOM     39  C   LIG    1       31.902 -17.632   9.740  0.00  0.00    +0.024 C 
ATOM     40  C   LIG    1       31.818 -18.541   8.524  0.00  0.00    +0.105 C 
ENDBRANCH  27  40
ENDBRANCH  26  34
BRANCH  26  41
ATOM     41  C   LIG    1       24.440 -22.614   6.769  0.00  0.00    -0.018 A 
ATOM     42  C   LIG    1       23.095 -23.023   6.898  0.00  0.00    +0.009 A 
ATOM     43  C   LIG    1       22.077 -22.421   6.158  0.00  0.00    +0.045 A 
ATOM     44  C   LIG    1       22.385 -21.368   5.314  0.00  0.00    +0.117 A 
ATOM     45  C   LIG    1       23.690 -20.900   5.210  0.00  0.00    +0.045 A 
ATOM     46  C   LIG    1       24.716 -21.522   5.931  0.00  0.00    +0.009 A 
BRANCH  44  47
ATOM     47  O   LIG    1       21.421 -20.764   4.564  0.00  0.00    -0.507 OA
ATOM     48  H   LIG    1       21.799 -20.546   3.695  0.00  0.00    +0.292 HD
ENDBRANCH  44  47
ENDBRANCH  26  41
ENDBRANCH   1  26
TORSDOF 11
ENDMDL
MODEL 9
REMARK VINA RESULT:      -5.2      4.418      8.838
REMARK  Name = *****
REMARK                            x       y       z     vdW  Elec       q    Type
REMARK                         _______ _______ _______ _____ _____    ______ ____
ROOT
ATOM      1  C   LIG    1       25.655 -31.207   8.470  0.00  0.00    +0.239 C 
ATOM      2  N   LIG    1       24.719 -31.135   9.490  0.00  0.00    -0.300 N 
ATOM      3  H   LIG    1       23.743 -31.019   9.240  0.00  0.00    +0.150 HD
ATOM      4  O   LIG    1       26.839 -31.450   8.699  0.00  0.00    -0.273 OA
ENDROOT
BRANCH   2   5
ATOM      5  CA  LIG    1       25.093 -31.412  10.900  0.00  0.00    +0.191 C 
ATOM      6  C   LIG    1       26.032 -30.403  11.628  0.00  0.00    +0.169 C 
ATOM      7  N   LIG    1       25.047 -30.368  12.702  0.00  0.00    -0.249 N 
ATOM      8  CA  LIG    1       24.974 -29.374  13.656  0.00  0.00    +0.123 C 
ATOM      9  C   LIG    1       25.756 -28.262  13.584  0.00  0.00    -0.021 C 
ATOM     10  C   LIG    1       26.708 -27.989  12.433  0.00  0.00    +0.104 C 
ATOM     11  S   LIG    1       26.172 -28.755  10.875  0.00  0.00    -0.131 S 
ATOM     12  C   LIG    1       24.064 -30.981  11.982  0.00  0.00    +0.244 C 
ATOM     13  O   LIG    1       22.849 -31.007  12.074  0.00  0.00    -0.273 OA
BRANCH   8  14
ATOM     14  C   LIG    1       24.056 -29.585  14.837  0.00  0.00    +0.351 C 
ATOM     15  O   LIG    1       23.204 -28.816  15.252  0.00  0.00    -0.244 OA
BRANCH  14  16
ATOM     16  OXT LIG    1       24.278 -30.731  15.496  0.00  0.00    -0.476 OA
ATOM     17  HXT LIG    1       23.395 -31.119  15.654  0.00  0.00    +0.295 HD
ENDBRANCH  14  16
ENDBRANCH   8  14
BRANCH   9  18
ATOM     18  C   LIG    1       25.691 -27.097  14.567  0.00  0.00    +0.111 C 
BRANCH  18  19
ATOM     19  S   LIG    1       24.731 -25.713  13.881  0.00  0.00    -0.080 S 
BRANCH  19  20
ATOM     20  C   LIG    1       25.637 -24.397  14.541  0.00  0.00    +0.209 A 
ATOM     21  N   LIG    1       26.865 -24.498  15.128  0.00  0.00    -0.223 N 
ATOM     22  C   LIG    1       27.701 -25.638  15.379  0.00  0.00    +0.177 C 
ATOM     23  N   LIG    1       27.283 -23.272  15.499  0.00  0.00    -0.043 NA
ATOM     24  N   LIG    1       26.303 -22.450  15.145  0.00  0.00    -0.022 NA
ATOM     25  N   LIG    1       25.270 -23.136  14.553  0.00  0.00    -0.102 NA
ENDBRANCH  19  20
ENDBRANCH  18  19
ENDBRANCH   9  18
ENDBRANCH   2   5
BRANCH   1  26
ATOM     26  CA  LIG    1       25.129 -30.880   7.050  0.00  0.00    +0.191 C 
BRANCH  26  34
ATOM     27  N   LIG    1       25.261 -24.536   5.701  0.00  0.00    -0.292 N 
ATOM     28  C   LIG    1       25.755 -25.232   6.801  0.00  0.00    +0.302 C 
ATOM     29  O   LIG    1       26.159 -24.706   7.829  0.00  0.00    -0.265 OA
ATOM     30  C   LIG    1       25.807 -26.769   6.678  0.00  0.00    +0.309 C 
ATOM     31  O   LIG    1       26.682 -27.376   7.295  0.00  0.00    -0.265 OA
ATOM     32  N   LIG    1       24.889 -27.380   5.815  0.00  0.00    -0.217 N 
ATOM     33  C   LIG    1       24.517 -28.726   5.918  0.00  0.00    +0.310 C 
ATOM     34  N   LIG    1       25.275 -29.456   6.783  0.00  0.00    -0.284 N 
ATOM     35  H   LIG    1       26.036 -28.955   7.226  0.00  0.00    +0.151 HD
ATOM     36  O   LIG    1       23.574 -29.209   5.300  0.00  0.00    -0.252 OA
ATOM     37  C   LIG    1       24.079 -26.539   4.945  0.00  0.00    +0.137 C 
ATOM     38  C   LIG    1       24.834 -25.279   4.528  0.00  0.00    +0.127 C 
BRANCH  27  40
ATOM     39  C   LIG    1       24.404 -22.399   4.766  0.00  0.00    +0.024 C 
ATOM     40  C   LIG    1       25.451 -23.092   5.622  0.00  0.00    +0.105 C 
ENDBRANCH  27  40
ENDBRANCH  26  34
BRANCH  26  41
ATOM     41  C   LIG    1       25.849 -31.703   5.976  0.00  0.00    -0.018 A 
ATOM     42  C   LIG    1       26.934 -32.552   6.283  0.00  0.00    +0.009 A 
ATOM     43  C   LIG    1       27.632 -33.232   5.285  0.00  0.00    +0.045 A 
ATOM     44  C   LIG    1       27.223 -33.108   3.968  0.00  0.00    +0.117 A 
ATOM     45  C   LIG    1       26.120 -32.328   3.638  0.00  0.00    +0.045 A 
ATOM     46  C   LIG    1       25.437 -31.624   4.636  0.00  0.00    +0.009 A 
BRANCH  44  47
ATOM     47  O   LIG    1       27.888 -33.745   2.963  0.00  0.00    -0.507 OA
ATOM     48  H   LIG    1       27.504 -34.632   2.855  0.00  0.00    +0.292 HD
ENDBRANCH  44  47
ENDBRANCH  26  41
ENDBRANCH   1  26
TORSDOF 11
ENDMDL
