MODEL 1
REMARK VINA RESULT:      -8.6      0.000      0.000
REMARK  Name = *****
REMARK                            x       y       z     vdW  Elec       q    Type
REMARK                         _______ _______ _______ _____ _____    ______ ____
ROOT
ATOM      1  C   LIG    1       25.631 -20.549   6.499  0.00  0.00    -0.021 C 
ATOM      2  C   LIG    1       26.307 -20.874   7.816  0.00  0.00    +0.104 C 
ATOM      3  S   LIG    1       27.853 -19.970   8.081  0.00  0.00    -0.131 S 
ATOM      4  C   LIG    1       28.548 -20.426   6.470  0.00  0.00    +0.169 C 
ATOM      5  N   LIG    1       27.659 -19.963   5.398  0.00  0.00    -0.249 N 
ATOM      6  C   LIG    1       28.405 -18.877   5.095  0.00  0.00    +0.244 C 
ATOM      7  O   LIG    1       28.123 -17.876   4.475  0.00  0.00    -0.273 OA
ATOM      8  CA  LIG    1       29.615 -19.446   5.888  0.00  0.00    +0.191 C 
ATOM      9  CA  LIG    1       26.289 -20.094   5.392  0.00  0.00    +0.123 C 
ENDROOT
BRANCH   8  10
ATOM     10  N   LIG    1       30.309 -18.511   6.827  0.00  0.00    -0.300 N 
ATOM     11  H   LIG    1       29.908 -17.593   7.008  0.00  0.00    +0.150 HD
ATOM     12  C   LIG    1       31.450 -18.901   7.496  0.00  0.00    +0.235 C 
ATOM     13  O   LIG    1       31.925 -20.027   7.366  0.00  0.00    -0.274 OA
BRANCH  12  14
ATOM     14  C   LIG    1       32.061 -17.886   8.428  0.00  0.00    +0.242 C 
BRANCH  14  15
ATOM     15  N   LIG    1       31.275 -17.705   9.622  0.00  0.00    -0.223 N 
ATOM     16  N   LIG    1       30.947 -18.767  10.377  0.00  0.00    -0.044 NA
ATOM     17  N   LIG    1       30.252 -18.266  11.389  0.00  0.00    -0.023 NA
ATOM     18  N   LIG    1       30.131 -16.902  11.277  0.00  0.00    -0.117 NA
ATOM     19  C   LIG    1       30.756 -16.576  10.169  0.00  0.00    +0.245 A 
ENDBRANCH  14  15
ENDBRANCH  12  14
ENDBRANCH   8  10
BRANCH   9  20
ATOM     20  C   LIG    1       25.544 -19.821   4.100  0.00  0.00    +0.351 C 
ATOM     21  O   LIG    1       24.939 -20.675   3.476  0.00  0.00    -0.244 OA
BRANCH  20  22
ATOM     22  OXT LIG    1       25.665 -18.575   3.600  0.00  0.00    -0.476 OA
ATOM     23  HXT LIG    1       25.473 -18.474   2.642  0.00  0.00    +0.295 HD
ENDBRANCH  20  22
ENDBRANCH   9  20
BRANCH   1  24
ATOM     24  C   LIG    1       24.129 -20.784   6.562  0.00  0.00    +0.110 C 
BRANCH  24  25
ATOM     25  S   LIG    1       23.729 -21.979   7.864  0.00  0.00    -0.092 S 
BRANCH  25  29
ATOM     26  C   LIG    1       25.755 -26.420   5.296  0.00  0.00    +0.075 C 
ATOM     27  C   LIG    1       24.894 -25.368   5.889  0.00  0.00    +0.100 A 
ATOM     28  S   LIG    1       25.597 -23.948   6.547  0.00  0.00    -0.044 S 
ATOM     29  C   LIG    1       24.019 -23.470   7.004  0.00  0.00    +0.159 A 
ATOM     30  N   LIG    1       23.071 -24.304   6.632  0.00  0.00    -0.135 NA
ATOM     31  N   LIG    1       23.582 -25.418   5.987  0.00  0.00    -0.146 NA
ENDBRANCH  25  29
ENDBRANCH  24  25
ENDBRANCH   1  24
TORSDOF 8
ENDMDL
MODEL 2
REMARK VINA RESULT:      -7.6      2.165      8.334
REMARK  Name = *****
REMARK                            x       y       z     vdW  Elec       q    Type
REMARK                         _______ _______ _______ _____ _____    ______ ____
ROOT
ATOM      1  C   LIG    1       29.161 -20.197   7.239  0.00  0.00    -0.021 C 
ATOM      2  C   LIG    1       28.693 -21.209   8.266  0.00  0.00    +0.104 C 
ATOM      3  S   LIG    1       27.206 -22.113   7.768  0.00  0.00    -0.131 S 
ATOM      4  C   LIG    1       26.274 -20.613   7.358  0.00  0.00    +0.169 C 
ATOM      5  N   LIG    1       26.989 -19.852   6.328  0.00  0.00    -0.249 N 
ATOM      6  C   LIG    1       26.205 -20.276   5.311  0.00  0.00    +0.244 C 
ATOM      7  O   LIG    1       26.390 -20.257   4.115  0.00  0.00    -0.273 OA
ATOM      8  CA  LIG    1       25.131 -20.788   6.310  0.00  0.00    +0.191 C 
ATOM      9  CA  LIG    1       28.343 -19.601   6.323  0.00  0.00    +0.123 C 
ENDROOT
BRANCH   8  10
ATOM     10  N   LIG    1       24.587 -22.162   6.073  0.00  0.00    -0.300 N 
ATOM     11  H   LIG    1       24.941 -22.713   5.294  0.00  0.00    +0.150 HD
ATOM     12  C   LIG    1       23.658 -22.711   6.932  0.00  0.00    +0.235 C 
ATOM     13  O   LIG    1       23.261 -22.110   7.928  0.00  0.00    -0.274 OA
BRANCH  12  14
ATOM     14  C   LIG    1       23.187 -24.106   6.609  0.00  0.00    +0.242 C 
BRANCH  14  15
ATOM     15  N   LIG    1       24.277 -24.975   6.243  0.00  0.00    -0.223 N 
ATOM     16  N   LIG    1       25.433 -24.924   6.926  0.00  0.00    -0.044 NA
ATOM     17  N   LIG    1       26.205 -25.843   6.361  0.00  0.00    -0.023 NA
ATOM     18  N   LIG    1       25.552 -26.465   5.325  0.00  0.00    -0.117 NA
ATOM     19  C   LIG    1       24.368 -25.903   5.257  0.00  0.00    +0.245 A 
ENDBRANCH  14  15
ENDBRANCH  12  14
ENDBRANCH   8  10
BRANCH   9  20
ATOM     20  C   LIG    1       28.883 -18.573   5.348  0.00  0.00    +0.351 C 
ATOM     21  O   LIG    1       30.006 -18.106   5.413  0.00  0.00    -0.244 OA
BRANCH  20  22
ATOM     22  OXT LIG    1       28.006 -18.105   4.437  0.00  0.00    -0.476 OA
ATOM     23  HXT LIG    1       28.372 -17.908   3.547  0.00  0.00    +0.295 HD
ENDBRANCH  20  22
ENDBRANCH   9  20
BRANCH   1  24
ATOM     24  C   LIG    1       30.655 -19.932   7.348  0.00  0.00    +0.110 C 
BRANCH  24  25
ATOM     25  S   LIG    1       31.180 -19.964   9.083  0.00  0.00    -0.092 S 
BRANCH  25  29
ATOM     26  C   LIG    1       33.025 -15.031  10.721  0.00  0.00    +0.075 C 
ATOM     27  C   LIG    1       32.566 -16.214   9.953  0.00  0.00    +0.100 A 
ATOM     28  S   LIG    1       31.915 -17.574  10.770  0.00  0.00    -0.044 S 
ATOM     29  C   LIG    1       31.788 -18.336   9.244  0.00  0.00    +0.159 A 
ATOM     30  N   LIG    1       32.163 -17.585   8.231  0.00  0.00    -0.135 NA
ATOM     31  N   LIG    1       32.625 -16.347   8.644  0.00  0.00    -0.146 NA
ENDBRANCH  25  29
ENDBRANCH  24  25
ENDBRANCH   1  24
TORSDOF 8
ENDMDL
MODEL 3
REMARK VINA RESULT:      -7.3      3.138      4.427
REMARK  Name = *****
REMARK                            x       y       z     vdW  Elec       q    Type
REMARK                         _______ _______ _______ _____ _____    ______ ____
ROOT
ATOM      1  C   LIG    1       24.748 -24.291   6.423  0.00  0.00    -0.021 C 
ATOM      2  C   LIG    1       26.247 -24.513   6.420  0.00  0.00    +0.104 C 
ATOM      3  S   LIG    1       27.188 -23.123   7.099  0.00  0.00    -0.131 S 
ATOM      4  C   LIG    1       26.366 -21.889   6.056  0.00  0.00    +0.169 C 
ATOM      5  N   LIG    1       24.919 -21.920   6.299  0.00  0.00    -0.249 N 
ATOM      6  C   LIG    1       24.916 -20.831   7.100  0.00  0.00    +0.244 C 
ATOM      7  O   LIG    1       24.086 -20.436   7.888  0.00  0.00    -0.273 OA
ATOM      8  CA  LIG    1       26.339 -20.433   6.618  0.00  0.00    +0.191 C 
ATOM      9  CA  LIG    1       24.155 -23.061   6.397  0.00  0.00    +0.123 C 
ENDROOT
BRANCH   8  10
ATOM     10  N   LIG    1       27.331 -20.060   7.674  0.00  0.00    -0.300 N 
ATOM     11  H   LIG    1       27.060 -20.104   8.654  0.00  0.00    +0.150 HD
ATOM     12  C   LIG    1       28.624 -19.717   7.338  0.00  0.00    +0.235 C 
ATOM     13  O   LIG    1       29.015 -19.726   6.173  0.00  0.00    -0.274 OA
BRANCH  12  14
ATOM     14  C   LIG    1       29.545 -19.372   8.481  0.00  0.00    +0.242 C 
BRANCH  14  15
ATOM     15  N   LIG    1       30.443 -20.453   8.799  0.00  0.00    -0.223 N 
ATOM     16  N   LIG    1       31.712 -20.189   9.150  0.00  0.00    -0.044 NA
ATOM     17  N   LIG    1       32.255 -21.376   9.391  0.00  0.00    -0.023 NA
ATOM     18  N   LIG    1       31.344 -22.384   9.186  0.00  0.00    -0.117 NA
ATOM     19  C   LIG    1       30.235 -21.795   8.804  0.00  0.00    +0.245 A 
ENDBRANCH  14  15
ENDBRANCH  12  14
ENDBRANCH   8  10
BRANCH   9  20
ATOM     20  C   LIG    1       22.645 -22.924   6.370  0.00  0.00    +0.351 C 
ATOM     21  O   LIG    1       21.886 -23.719   6.895  0.00  0.00    -0.244 OA
BRANCH  20  22
ATOM     22  OXT LIG    1       22.158 -21.908   5.631  0.00  0.00    -0.476 OA
ATOM     23  HXT LIG    1       21.785 -21.150   6.132  0.00  0.00    +0.295 HD
ENDBRANCH  20  22
ENDBRANCH   9  20
BRANCH   1  24
ATOM     24  C   LIG    1       23.983 -25.606   6.467  0.00  0.00    +0.110 C 
BRANCH  24  25
ATOM     25  S   LIG    1       24.701 -26.796   5.303  0.00  0.00    -0.092 S 
BRANCH  25  29
ATOM     26  C   LIG    1       24.785 -30.886   9.003  0.00  0.00    +0.075 C 
ATOM     27  C   LIG    1       24.575 -30.024   7.814  0.00  0.00    +0.100 A 
ATOM     28  S   LIG    1       25.358 -28.502   7.702  0.00  0.00    -0.044 S 
ATOM     29  C   LIG    1       24.524 -28.266   6.228  0.00  0.00    +0.159 A 
ATOM     30  N   LIG    1       23.774 -29.282   5.860  0.00  0.00    -0.135 NA
ATOM     31  N   LIG    1       23.797 -30.309   6.790  0.00  0.00    -0.146 NA
ENDBRANCH  25  29
ENDBRANCH  24  25
ENDBRANCH   1  24
TORSDOF 8
ENDMDL
MODEL 4
REMARK VINA RESULT:      -7.0      8.657     11.392
REMARK  Name = *****
REMARK                            x       y       z     vdW  Elec       q    Type
REMARK                         _______ _______ _______ _____ _____    ______ ____
ROOT
ATOM      1  C   LIG    1       25.656 -28.846  12.301  0.00  0.00    -0.021 C 
ATOM      2  C   LIG    1       26.870 -28.314  11.566  0.00  0.00    +0.104 C 
ATOM      3  S   LIG    1       26.696 -28.338   9.764  0.00  0.00    -0.131 S 
ATOM      4  C   LIG    1       26.185 -30.076   9.706  0.00  0.00    +0.169 C 
ATOM      5  N   LIG    1       24.973 -30.263  10.514  0.00  0.00    -0.249 N 
ATOM      6  C   LIG    1       24.133 -30.274   9.454  0.00  0.00    +0.244 C 
ATOM      7  O   LIG    1       22.934 -30.119   9.400  0.00  0.00    -0.273 OA
ATOM      8  CA  LIG    1       25.320 -30.490   8.474  0.00  0.00    +0.191 C 
ATOM      9  CA  LIG    1       24.768 -29.736  11.768  0.00  0.00    +0.123 C 
ENDROOT
BRANCH   8  10
ATOM     10  N   LIG    1       25.357 -29.622   7.256  0.00  0.00    -0.300 N 
ATOM     11  H   LIG    1       26.067 -28.896   7.179  0.00  0.00    +0.150 HD
ATOM     12  C   LIG    1       24.481 -29.834   6.212  0.00  0.00    +0.235 C 
ATOM     13  O   LIG    1       23.659 -30.747   6.230  0.00  0.00    -0.274 OA
BRANCH  12  14
ATOM     14  C   LIG    1       24.613 -28.911   5.027  0.00  0.00    +0.242 C 
BRANCH  14  15
ATOM     15  N   LIG    1       25.090 -27.605   5.407  0.00  0.00    -0.223 N 
ATOM     16  N   LIG    1       24.370 -26.848   6.252  0.00  0.00    -0.044 NA
ATOM     17  N   LIG    1       25.080 -25.738   6.407  0.00  0.00    -0.023 NA
ATOM     18  N   LIG    1       26.234 -25.784   5.663  0.00  0.00    -0.117 NA
ATOM     19  C   LIG    1       26.214 -26.939   5.039  0.00  0.00    +0.245 A 
ENDBRANCH  14  15
ENDBRANCH  12  14
ENDBRANCH   8  10
BRANCH   9  20
ATOM     20  C   LIG    1       23.593 -30.246  12.581  0.00  0.00    +0.351 C 
ATOM     21  O   LIG    1       23.651 -31.215  13.318  0.00  0.00    -0.244 OA
BRANCH  20  22
ATOM     22  OXT LIG    1       22.416 -29.624  12.371  0.00  0.00    -0.476 OA
ATOM     23  HXT LIG    1       22.468 -28.695  12.058  0.00  0.00    +0.295 HD
ENDBRANCH  20  22
ENDBRANCH   9  20
BRANCH   1  24
ATOM     24  C   LIG    1       25.543 -28.262  13.701  0.00  0.00    +0.110 C 
BRANCH  24  25
ATOM     25  S   LIG    1       25.092 -26.508  13.621  0.00  0.00    -0.092 S 
BRANCH  25  29
ATOM     26  C   LIG    1       19.908 -26.634  15.499  0.00  0.00    +0.075 C 
ATOM     27  C   LIG    1       21.145 -26.695  14.684  0.00  0.00    +0.100 A 
ATOM     28  S   LIG    1       22.680 -26.526  15.432  0.00  0.00    -0.044 S 
ATOM     29  C   LIG    1       23.368 -26.628  13.870  0.00  0.00    +0.159 A 
ATOM     30  N   LIG    1       22.496 -26.823  12.904  0.00  0.00    -0.135 NA
ATOM     31  N   LIG    1       21.195 -26.856  13.378  0.00  0.00    -0.146 NA
ENDBRANCH  25  29
ENDBRANCH  24  25
ENDBRANCH   1  24
TORSDOF 8
ENDMDL
MODEL 5
REMARK VINA RESULT:      -6.9      1.946      8.058
REMARK  Name = *****
REMARK                            x       y       z     vdW  Elec       q    Type
REMARK                         _______ _______ _______ _____ _____    ______ ____
ROOT
ATOM      1  C   LIG    1       28.091 -19.627   6.329  0.00  0.00    -0.021 C 
ATOM      2  C   LIG    1       28.045 -20.634   7.460  0.00  0.00    +0.104 C 
ATOM      3  S   LIG    1       26.910 -22.012   7.160  0.00  0.00    -0.131 S 
ATOM      4  C   LIG    1       25.513 -20.938   6.732  0.00  0.00    +0.169 C 
ATOM      5  N   LIG    1       25.875 -20.088   5.591  0.00  0.00    -0.249 N 
ATOM      6  C   LIG    1       25.213 -20.835   4.680  0.00  0.00    +0.244 C 
ATOM      7  O   LIG    1       25.308 -20.870   3.473  0.00  0.00    -0.273 OA
ATOM      8  CA  LIG    1       24.429 -21.570   5.803  0.00  0.00    +0.191 C 
ATOM      9  CA  LIG    1       27.067 -19.415   5.450  0.00  0.00    +0.123 C 
ENDROOT
BRANCH   8  10
ATOM     10  N   LIG    1       24.354 -23.061   5.710  0.00  0.00    -0.300 N 
ATOM     11  H   LIG    1       25.008 -23.560   5.110  0.00  0.00    +0.150 HD
ATOM     12  C   LIG    1       23.451 -23.770   6.474  0.00  0.00    +0.235 C 
ATOM     13  O   LIG    1       22.696 -23.215   7.269  0.00  0.00    -0.274 OA
BRANCH  12  14
ATOM     14  C   LIG    1       23.468 -25.270   6.314  0.00  0.00    +0.242 C 
BRANCH  14  15
ATOM     15  N   LIG    1       24.770 -25.760   5.937  0.00  0.00    -0.223 N 
ATOM     16  N   LIG    1       25.021 -26.077   4.656  0.00  0.00    -0.044 NA
ATOM     17  N   LIG    1       26.288 -26.470   4.643  0.00  0.00    -0.023 NA
ATOM     18  N   LIG    1       26.834 -26.412   5.903  0.00  0.00    -0.117 NA
ATOM     19  C   LIG    1       25.875 -25.987   6.692  0.00  0.00    +0.245 A 
ENDBRANCH  14  15
ENDBRANCH  12  14
ENDBRANCH   8  10
BRANCH   9  20
ATOM     20  C   LIG    1       27.179 -18.364   4.362  0.00  0.00    +0.351 C 
ATOM     21  O   LIG    1       28.062 -17.525   4.322  0.00  0.00    -0.244 OA
BRANCH  20  22
ATOM     22  OXT LIG    1       26.171 -18.331   3.467  0.00  0.00    -0.476 OA
ATOM     23  HXT LIG    1       26.139 -19.074   2.826  0.00  0.00    +0.295 HD
ENDBRANCH  20  22
ENDBRANCH   9  20
BRANCH   1  24
ATOM     24  C   LIG    1       29.418 -18.885   6.287  0.00  0.00    +0.110 C 
BRANCH  24  25
ATOM     25  S   LIG    1       30.737 -19.905   6.999  0.00  0.00    -0.092 S 
BRANCH  25  29
ATOM     26  C   LIG    1       30.900 -16.415  11.267  0.00  0.00    +0.075 C 
ATOM     27  C   LIG    1       31.175 -17.460  10.251  0.00  0.00    +0.100 A 
ATOM     28  S   LIG    1       30.145 -17.630   8.889  0.00  0.00    -0.044 S 
ATOM     29  C   LIG    1       31.102 -18.970   8.428  0.00  0.00    +0.159 A 
ATOM     30  N   LIG    1       32.124 -19.206   9.222  0.00  0.00    -0.135 NA
ATOM     31  N   LIG    1       32.164 -18.329  10.293  0.00  0.00    -0.146 NA
ENDBRANCH  25  29
ENDBRANCH  24  25
ENDBRANCH   1  24
TORSDOF 8
ENDMDL
MODEL 6
REMARK VINA RESULT:      -6.7      8.196     11.412
REMARK  Name = *****
REMARK                            x       y       z     vdW  Elec       q    Type
REMARK                         _______ _______ _______ _____ _____    ______ ____
ROOT
ATOM      1  C   LIG    1       25.304 -29.047  12.311  0.00  0.00    -0.021 C 
ATOM      2  C   LIG    1       26.599 -28.540  11.710  0.00  0.00    +0.104 C 
ATOM      3  S   LIG    1       26.607 -28.539   9.900  0.00  0.00    -0.131 S 
ATOM      4  C   LIG    1       26.060 -30.261   9.766  0.00  0.00    +0.169 C 
ATOM      5  N   LIG    1       24.769 -30.424  10.444  0.00  0.00    -0.249 N 
ATOM      6  C   LIG    1       24.040 -30.401   9.306  0.00  0.00    +0.244 C 
ATOM      7  O   LIG    1       22.857 -30.212   9.133  0.00  0.00    -0.273 OA
ATOM      8  CA  LIG    1       25.314 -30.637   8.447  0.00  0.00    +0.191 C 
ATOM      9  CA  LIG    1       24.451 -29.907  11.679  0.00  0.00    +0.123 C 
ENDROOT
BRANCH   8  10
ATOM     10  N   LIG    1       25.496 -29.757   7.251  0.00  0.00    -0.300 N 
ATOM     11  H   LIG    1       26.230 -29.052   7.255  0.00  0.00    +0.150 HD
ATOM     12  C   LIG    1       24.723 -29.931   6.123  0.00  0.00    +0.235 C 
ATOM     13  O   LIG    1       23.878 -30.820   6.046  0.00  0.00    -0.274 OA
BRANCH  12  14
ATOM     14  C   LIG    1       24.999 -28.998   4.970  0.00  0.00    +0.242 C 
BRANCH  14  15
ATOM     15  N   LIG    1       25.226 -27.645   5.410  0.00  0.00    -0.223 N 
ATOM     16  N   LIG    1       26.433 -27.080   5.244  0.00  0.00    -0.044 NA
ATOM     17  N   LIG    1       26.306 -25.852   5.728  0.00  0.00    -0.023 NA
ATOM     18  N   LIG    1       25.035 -25.640   6.205  0.00  0.00    -0.117 NA
ATOM     19  C   LIG    1       24.388 -26.766   6.015  0.00  0.00    +0.245 A 
ENDBRANCH  14  15
ENDBRANCH  12  14
ENDBRANCH   8  10
BRANCH   9  20
ATOM     20  C   LIG    1       23.187 -30.393  12.362  0.00  0.00    +0.351 C 
ATOM     21  O   LIG    1       23.133 -31.402  13.043  0.00  0.00    -0.244 OA
BRANCH  20  22
ATOM     22  OXT LIG    1       22.065 -29.697  12.093  0.00  0.00    -0.476 OA
ATOM     23  HXT LIG    1       21.531 -29.422  12.871  0.00  0.00    +0.295 HD
ENDBRANCH  20  22
ENDBRANCH   9  20
BRANCH   1  24
ATOM     24  C   LIG    1       25.064 -28.476  13.701  0.00  0.00    +0.110 C 
BRANCH  24  25
ATOM     25  S   LIG    1       24.118 -26.933  13.598  0.00  0.00    -0.092 S 
BRANCH  25  29
ATOM     26  C   LIG    1       28.564 -24.281  15.500  0.00  0.00    +0.075 C 
ATOM     27  C   LIG    1       27.248 -24.660  14.930  0.00  0.00    +0.100 A 
ATOM     28  S   LIG    1       26.743 -26.300  14.941  0.00  0.00    -0.044 S 
ATOM     29  C   LIG    1       25.343 -25.795  14.099  0.00  0.00    +0.159 A 
ATOM     30  N   LIG    1       25.273 -24.498  13.891  0.00  0.00    -0.135 NA
ATOM     31  N   LIG    1       26.390 -23.833  14.371  0.00  0.00    -0.146 NA
ENDBRANCH  25  29
ENDBRANCH  24  25
ENDBRANCH   1  24
TORSDOF 8
ENDMDL
MODEL 7
REMARK VINA RESULT:      -6.5      6.661     10.308
REMARK  Name = *****
REMARK                            x       y       z     vdW  Elec       q    Type
REMARK                         _______ _______ _______ _____ _____    ______ ____
ROOT
ATOM      1  C   LIG    1       25.822 -31.506   8.471  0.00  0.00    -0.021 C 
ATOM      2  C   LIG    1       26.472 -30.335   9.181  0.00  0.00    +0.104 C 
ATOM      3  S   LIG    1       25.827 -28.724   8.664  0.00  0.00    -0.131 S 
ATOM      4  C   LIG    1       26.046 -29.057   6.896  0.00  0.00    +0.169 C 
ATOM      5  N   LIG    1       25.283 -30.253   6.520  0.00  0.00    -0.249 N 
ATOM      6  C   LIG    1       24.256 -29.563   5.973  0.00  0.00    +0.244 C 
ATOM      7  O   LIG    1       23.129 -29.913   5.703  0.00  0.00    -0.273 OA
ATOM      8  CA  LIG    1       25.108 -28.264   5.933  0.00  0.00    +0.191 C 
ATOM      9  CA  LIG    1       25.245 -31.428   7.235  0.00  0.00    +0.123 C 
ENDROOT
BRANCH   8  10
ATOM     10  N   LIG    1       24.460 -27.014   6.441  0.00  0.00    -0.300 N 
ATOM     11  H   LIG    1       23.973 -27.031   7.335  0.00  0.00    +0.150 HD
ATOM     12  C   LIG    1       24.568 -25.830   5.743  0.00  0.00    +0.235 C 
ATOM     13  O   LIG    1       25.212 -25.748   4.700  0.00  0.00    -0.274 OA
BRANCH  12  14
ATOM     14  C   LIG    1       23.889 -24.629   6.352  0.00  0.00    +0.242 C 
BRANCH  14  15
ATOM     15  N   LIG    1       24.794 -23.521   6.519  0.00  0.00    -0.223 N 
ATOM     16  N   LIG    1       25.804 -23.607   7.402  0.00  0.00    -0.044 NA
ATOM     17  N   LIG    1       26.447 -22.451   7.301  0.00  0.00    -0.023 NA
ATOM     18  N   LIG    1       25.848 -21.634   6.373  0.00  0.00    -0.117 NA
ATOM     19  C   LIG    1       24.818 -22.307   5.913  0.00  0.00    +0.245 A 
ENDBRANCH  14  15
ENDBRANCH  12  14
ENDBRANCH   8  10
BRANCH   9  20
ATOM     20  C   LIG    1       24.642 -32.655   6.578  0.00  0.00    +0.351 C 
ATOM     21  O   LIG    1       25.264 -33.399   5.840  0.00  0.00    -0.244 OA
BRANCH  20  22
ATOM     22  OXT LIG    1       23.320 -32.837   6.768  0.00  0.00    -0.476 OA
ATOM     23  HXT LIG    1       22.922 -32.351   7.522  0.00  0.00    +0.295 HD
ENDBRANCH  20  22
ENDBRANCH   9  20
BRANCH   1  24
ATOM     24  C   LIG    1       25.882 -32.776   9.305  0.00  0.00    +0.110 C 
BRANCH  24  25
ATOM     25  S   LIG    1       25.216 -32.478  10.964  0.00  0.00    -0.092 S 
BRANCH  25  29
ATOM     26  C   LIG    1       19.990 -30.786  10.462  0.00  0.00    +0.075 C 
ATOM     27  C   LIG    1       21.287 -31.499  10.370  0.00  0.00    +0.100 A 
ATOM     28  S   LIG    1       22.594 -31.045  11.384  0.00  0.00    -0.044 S 
ATOM     29  C   LIG    1       23.534 -32.221  10.571  0.00  0.00    +0.159 A 
ATOM     30  N   LIG    1       22.876 -32.907   9.662  0.00  0.00    -0.135 NA
ATOM     31  N   LIG    1       21.564 -32.482   9.538  0.00  0.00    -0.146 NA
ENDBRANCH  25  29
ENDBRANCH  24  25
ENDBRANCH   1  24
TORSDOF 8
ENDMDL
MODEL 8
REMARK VINA RESULT:      -6.2      3.069      9.133
REMARK  Name = *****
REMARK                            x       y       z     vdW  Elec       q    Type
REMARK                         _______ _______ _______ _____ _____    ______ ____
ROOT
ATOM      1  C   LIG    1       26.126 -21.641   6.898  0.00  0.00    -0.021 C 
ATOM      2  C   LIG    1       26.506 -22.763   7.844  0.00  0.00    +0.104 C 
ATOM      3  S   LIG    1       26.257 -24.415   7.147  0.00  0.00    -0.131 S 
ATOM      4  C   LIG    1       24.550 -24.084   6.635  0.00  0.00    +0.169 C 
ATOM      5  N   LIG    1       24.521 -22.941   5.715  0.00  0.00    -0.249 N 
ATOM      6  C   LIG    1       24.409 -23.698   4.600  0.00  0.00    +0.244 C 
ATOM      7  O   LIG    1       24.608 -23.421   3.438  0.00  0.00    -0.273 OA
ATOM      8  CA  LIG    1       24.018 -24.942   5.445  0.00  0.00    +0.191 C 
ATOM      9  CA  LIG    1       25.214 -21.765   5.889  0.00  0.00    +0.123 C 
ENDROOT
BRANCH   8  10
ATOM     10  N   LIG    1       24.719 -26.225   5.124  0.00  0.00    -0.300 N 
ATOM     11  H   LIG    1       25.424 -26.241   4.391  0.00  0.00    +0.150 HD
ATOM     12  C   LIG    1       24.463 -27.369   5.851  0.00  0.00    +0.235 C 
ATOM     13  O   LIG    1       23.676 -27.376   6.795  0.00  0.00    -0.274 OA
BRANCH  12  14
ATOM     14  C   LIG    1       25.234 -28.602   5.453  0.00  0.00    +0.242 C 
BRANCH  14  15
ATOM     15  N   LIG    1       24.798 -29.771   6.175  0.00  0.00    -0.223 N 
ATOM     16  N   LIG    1       23.640 -30.367   5.847  0.00  0.00    -0.044 NA
ATOM     17  N   LIG    1       23.541 -31.401   6.672  0.00  0.00    -0.023 NA
ATOM     18  N   LIG    1       24.620 -31.457   7.522  0.00  0.00    -0.117 NA
ATOM     19  C   LIG    1       25.377 -30.431   7.210  0.00  0.00    +0.245 A 
ENDBRANCH  14  15
ENDBRANCH  12  14
ENDBRANCH   8  10
BRANCH   9  20
ATOM     20  C   LIG    1       24.865 -20.584   5.004  0.00  0.00    +0.351 C 
ATOM     21  O   LIG    1       23.871 -19.896   5.157  0.00  0.00    -0.244 OA
BRANCH  20  22
ATOM     22  OXT LIG    1       25.674 -20.380   3.945  0.00  0.00    -0.476 OA
ATOM     23  HXT LIG    1       26.439 -19.784   4.095  0.00  0.00    +0.295 HD
ENDBRANCH  20  22
ENDBRANCH   9  20
BRANCH   1  24
ATOM     24  C   LIG    1       26.891 -20.362   7.204  0.00  0.00    +0.110 C 
BRANCH  24  25
ATOM     25  S   LIG    1       28.530 -20.403   6.430  0.00  0.00    -0.092 S 
BRANCH  25  29
ATOM     26  C   LIG    1       32.196 -17.444   9.299  0.00  0.00    +0.075 C 
ATOM     27  C   LIG    1       31.022 -18.224   8.835  0.00  0.00    +0.100 A 
ATOM     28  S   LIG    1       31.051 -18.995   7.302  0.00  0.00    -0.044 S 
ATOM     29  C   LIG    1       29.439 -19.482   7.602  0.00  0.00    +0.159 A 
ATOM     30  N   LIG    1       28.974 -19.123   8.779  0.00  0.00    -0.135 NA
ATOM     31  N   LIG    1       29.896 -18.381   9.498  0.00  0.00    -0.146 NA
ENDBRANCH  25  29
ENDBRANCH  24  25
ENDBRANCH   1  24
TORSDOF 8
ENDMDL
MODEL 9
REMARK VINA RESULT:      -6.2      8.221     12.001
REMARK  Name = *****
REMARK                            x       y       z     vdW  Elec       q    Type
REMARK                         _______ _______ _______ _____ _____    ______ ____
ROOT
ATOM      1  C   LIG    1       24.929 -30.769   9.467  0.00  0.00    -0.021 C 
ATOM      2  C   LIG    1       23.467 -31.145   9.604  0.00  0.00    +0.104 C 
ATOM      3  S   LIG    1       22.554 -30.094  10.761  0.00  0.00    -0.131 S 
ATOM      4  C   LIG    1       23.759 -30.296  12.100  0.00  0.00    +0.169 C 
ATOM      5  N   LIG    1       25.078 -29.835  11.651  0.00  0.00    -0.249 N 
ATOM      6  C   LIG    1       25.001 -28.642  12.283  0.00  0.00    +0.244 C 
ATOM      7  O   LIG    1       25.637 -27.624  12.123  0.00  0.00    -0.273 OA
ATOM      8  CA  LIG    1       23.811 -29.141  13.149  0.00  0.00    +0.191 C 
ATOM      9  CA  LIG    1       25.649 -30.127  10.434  0.00  0.00    +0.123 C 
ENDROOT
BRANCH   8  10
ATOM     10  N   LIG    1       22.629 -28.230  13.262  0.00  0.00    -0.300 N 
ATOM     11  H   LIG    1       22.043 -28.065  12.446  0.00  0.00    +0.150 HD
ATOM     12  C   LIG    1       22.290 -27.662  14.473  0.00  0.00    +0.235 C 
ATOM     13  O   LIG    1       22.923 -27.896  15.500  0.00  0.00    -0.274 OA
BRANCH  12  14
ATOM     14  C   LIG    1       21.073 -26.772  14.478  0.00  0.00    +0.242 C 
BRANCH  14  15
ATOM     15  N   LIG    1       19.848 -27.528  14.403  0.00  0.00    -0.223 N 
ATOM     16  N   LIG    1       19.891 -28.865  14.281  0.00  0.00    -0.044 NA
ATOM     17  N   LIG    1       18.622 -29.248  14.257  0.00  0.00    -0.023 NA
ATOM     18  N   LIG    1       17.779 -28.167  14.353  0.00  0.00    -0.117 NA
ATOM     19  C   LIG    1       18.556 -27.111  14.425  0.00  0.00    +0.245 A 
ENDBRANCH  14  15
ENDBRANCH  12  14
ENDBRANCH   8  10
BRANCH   9  20
ATOM     20  C   LIG    1       27.120 -29.814  10.232  0.00  0.00    +0.351 C 
ATOM     21  O   LIG    1       28.022 -30.452  10.746  0.00  0.00    -0.244 OA
BRANCH  20  22
ATOM     22  OXT LIG    1       27.395 -28.704   9.519  0.00  0.00    -0.476 OA
ATOM     23  HXT LIG    1       26.735 -28.456   8.835  0.00  0.00    +0.295 HD
ENDBRANCH  20  22
ENDBRANCH   9  20
BRANCH   1  24
ATOM     24  C   LIG    1       25.495 -31.187   8.118  0.00  0.00    +0.110 C 
BRANCH  24  25
ATOM     25  S   LIG    1       24.367 -30.710   6.782  0.00  0.00    -0.092 S 
BRANCH  25  29
ATOM     26  C   LIG    1       25.319 -25.557   5.060  0.00  0.00    +0.075 C 
ATOM     27  C   LIG    1       25.287 -26.849   5.789  0.00  0.00    +0.100 A 
ATOM     28  S   LIG    1       24.487 -28.204   5.107  0.00  0.00    -0.044 S 
ATOM     29  C   LIG    1       24.870 -29.056   6.540  0.00  0.00    +0.159 A 
ATOM     30  N   LIG    1       25.580 -28.367   7.407  0.00  0.00    -0.135 NA
ATOM     31  N   LIG    1       25.819 -27.073   6.972  0.00  0.00    -0.146 NA
ENDBRANCH  25  29
ENDBRANCH  24  25
ENDBRANCH   1  24
TORSDOF 8
ENDMDL
