MODEL 1
REMARK VINA RESULT:      -8.4      0.000      0.000
REMARK  Name = *****
REMARK                            x       y       z     vdW  Elec       q    Type
REMARK                         _______ _______ _______ _____ _____    ______ ____
ROOT
ATOM      1  C   LIG    1       25.532 -21.714   5.949  0.00  0.00    +0.117 C 
ENDROOT
BRANCH   1   6
ATOM      2  C   LIG    1       24.678 -26.521   6.432  0.00  0.00    +0.105 C 
ATOM      3  N   LIG    1       25.302 -25.475   5.622  0.00  0.00    -0.303 NA
ATOM      4  C   LIG    1       24.298 -24.519   5.124  0.00  0.00    +0.099 C 
ATOM      5  C   LIG    1       23.813 -23.483   6.166  0.00  0.00    +0.100 C 
ATOM      6  N   LIG    1       24.890 -22.719   6.855  0.00  0.00    -0.289 NA
ATOM      7  C   LIG    1       25.840 -23.719   7.397  0.00  0.00    +0.100 C 
ATOM      8  C   LIG    1       26.353 -24.761   6.374  0.00  0.00    +0.099 C 
ENDBRANCH   1   6
BRANCH   1   9
ATOM      9  C   LIG    1       26.674 -20.923   6.615  0.00  0.00    -0.026 A 
ATOM     10  C   LIG    1       26.730 -20.724   8.007  0.00  0.00    +0.007 A 
ATOM     11  C   LIG    1       27.802 -20.030   8.583  0.00  0.00    +0.020 A 
ATOM     12  C   LIG    1       28.823 -19.530   7.783  0.00  0.00    +0.041 A 
ATOM     13 CL   LIG    1       30.148 -18.696   8.496  0.00  0.00    -0.084 Cl
ATOM     14  C   LIG    1       28.784 -19.708   6.400  0.00  0.00    +0.020 A 
ATOM     15  C   LIG    1       27.711 -20.396   5.824  0.00  0.00    +0.007 A 
ENDBRANCH   1   9
BRANCH   1  16
ATOM     16  C   LIG    1       24.519 -20.754   5.298  0.00  0.00    -0.026 A 
ATOM     17  C   LIG    1       24.741 -20.172   4.036  0.00  0.00    +0.005 A 
ATOM     18  C   LIG    1       23.864 -19.218   3.519  0.00  0.00    +0.000 A 
ATOM     19  C   LIG    1       22.724 -18.861   4.233  0.00  0.00    +0.000 A 
ATOM     20  C   LIG    1       22.456 -19.465   5.460  0.00  0.00    +0.000 A 
ATOM     21  C   LIG    1       23.346 -20.403   5.990  0.00  0.00    +0.005 A 
ENDBRANCH   1  16
TORSDOF 3
ENDMDL
MODEL 2
REMARK VINA RESULT:      -7.7      2.619      5.592
REMARK  Name = *****
REMARK                            x       y       z     vdW  Elec       q    Type
REMARK                         _______ _______ _______ _____ _____    ______ ____
ROOT
ATOM      1  C   LIG    1       25.868 -21.852   6.254  0.00  0.00    +0.117 C 
ENDROOT
BRANCH   1   6
ATOM      2  C   LIG    1       29.998 -20.079   8.220  0.00  0.00    +0.105 C 
ATOM      3  N   LIG    1       29.347 -20.576   7.009  0.00  0.00    -0.303 NA
ATOM      4  C   LIG    1       28.901 -21.970   7.179  0.00  0.00    +0.099 C 
ATOM      5  C   LIG    1       27.601 -22.140   8.000  0.00  0.00    +0.100 C 
ATOM      6  N   LIG    1       26.442 -21.328   7.534  0.00  0.00    -0.289 NA
ATOM      7  C   LIG    1       26.916 -19.926   7.441  0.00  0.00    +0.100 C 
ATOM      8  C   LIG    1       28.209 -19.723   6.614  0.00  0.00    +0.099 C 
ENDBRANCH   1   6
BRANCH   1   9
ATOM      9  C   LIG    1       24.811 -20.925   5.627  0.00  0.00    -0.026 A 
ATOM     10  C   LIG    1       24.950 -20.407   4.326  0.00  0.00    +0.007 A 
ATOM     11  C   LIG    1       23.952 -19.595   3.772  0.00  0.00    +0.020 A 
ATOM     12  C   LIG    1       22.810 -19.292   4.506  0.00  0.00    +0.041 A 
ATOM     13 CL   LIG    1       21.576 -18.311   3.815  0.00  0.00    -0.084 Cl
ATOM     14  C   LIG    1       22.654 -19.787   5.800  0.00  0.00    +0.020 A 
ATOM     15  C   LIG    1       23.653 -20.593   6.355  0.00  0.00    +0.007 A 
ENDBRANCH   1   9
BRANCH   1  16
ATOM     16  C   LIG    1       25.322 -23.286   6.380  0.00  0.00    -0.026 A 
ATOM     17  C   LIG    1       26.160 -24.415   6.319  0.00  0.00    +0.005 A 
ATOM     18  C   LIG    1       25.629 -25.706   6.320  0.00  0.00    +0.000 A 
ATOM     19  C   LIG    1       24.255 -25.893   6.429  0.00  0.00    +0.000 A 
ATOM     20  C   LIG    1       23.410 -24.791   6.546  0.00  0.00    +0.000 A 
ATOM     21  C   LIG    1       23.939 -23.497   6.521  0.00  0.00    +0.005 A 
ENDBRANCH   1  16
TORSDOF 3
ENDMDL
MODEL 3
REMARK VINA RESULT:      -6.7      2.322      4.779
REMARK  Name = *****
REMARK                            x       y       z     vdW  Elec       q    Type
REMARK                         _______ _______ _______ _____ _____    ______ ____
ROOT
ATOM      1  C   LIG    1       25.495 -21.491   6.302  0.00  0.00    +0.117 C 
ENDROOT
BRANCH   1   6
ATOM      2  C   LIG    1       24.373 -26.266   6.186  0.00  0.00    +0.105 C 
ATOM      3  N   LIG    1       24.136 -24.980   6.840  0.00  0.00    -0.303 NA
ATOM      4  C   LIG    1       25.375 -24.452   7.439  0.00  0.00    +0.099 C 
ATOM      5  C   LIG    1       26.359 -23.809   6.433  0.00  0.00    +0.100 C 
ATOM      6  N   LIG    1       25.777 -22.758   5.554  0.00  0.00    -0.289 NA
ATOM      7  C   LIG    1       24.575 -23.352   4.922  0.00  0.00    +0.100 C 
ATOM      8  C   LIG    1       23.563 -23.992   5.904  0.00  0.00    +0.099 C 
ENDBRANCH   1   6
BRANCH   1   9
ATOM      9  C   LIG    1       24.477 -20.573   5.602  0.00  0.00    -0.026 A 
ATOM     10  C   LIG    1       24.741 -19.984   4.351  0.00  0.00    +0.007 A 
ATOM     11  C   LIG    1       23.778 -19.182   3.725  0.00  0.00    +0.020 A 
ATOM     12  C   LIG    1       22.549 -18.960   4.336  0.00  0.00    +0.041 A 
ATOM     13 CL   LIG    1       21.361 -17.991   3.554  0.00  0.00    -0.084 Cl
ATOM     14  C   LIG    1       22.268 -19.526   5.579  0.00  0.00    +0.020 A 
ATOM     15  C   LIG    1       23.231 -20.322   6.206  0.00  0.00    +0.007 A 
ENDBRANCH   1   9
BRANCH   1  16
ATOM     16  C   LIG    1       26.771 -20.707   6.662  0.00  0.00    -0.026 A 
ATOM     17  C   LIG    1       27.637 -20.192   5.679  0.00  0.00    +0.005 A 
ATOM     18  C   LIG    1       28.844 -19.586   6.030  0.00  0.00    +0.000 A 
ATOM     19  C   LIG    1       29.186 -19.443   7.371  0.00  0.00    +0.000 A 
ATOM     20  C   LIG    1       28.319 -19.896   8.362  0.00  0.00    +0.000 A 
ATOM     21  C   LIG    1       27.120 -20.524   8.012  0.00  0.00    +0.005 A 
ENDBRANCH   1  16
TORSDOF 3
ENDMDL
MODEL 4
REMARK VINA RESULT:      -6.4      2.810      5.076
REMARK  Name = *****
REMARK                            x       y       z     vdW  Elec       q    Type
REMARK                         _______ _______ _______ _____ _____    ______ ____
ROOT
ATOM      1  C   LIG    1       25.993 -21.386   6.429  0.00  0.00    +0.117 C 
ENDROOT
BRANCH   1   6
ATOM      2  C   LIG    1       30.395 -19.956   8.058  0.00  0.00    +0.105 C 
ATOM      3  N   LIG    1       29.030 -20.334   8.424  0.00  0.00    -0.303 NA
ATOM      4  C   LIG    1       28.046 -19.411   7.829  0.00  0.00    +0.099 C 
ATOM      5  C   LIG    1       27.758 -19.650   6.327  0.00  0.00    +0.100 C 
ATOM      6  N   LIG    1       27.375 -21.043   5.965  0.00  0.00    -0.289 NA
ATOM      7  C   LIG    1       28.424 -21.930   6.524  0.00  0.00    +0.100 C 
ATOM      8  C   LIG    1       28.726 -21.723   8.029  0.00  0.00    +0.099 C 
ENDBRANCH   1   6
BRANCH   1   9
ATOM      9  C   LIG    1       25.665 -22.887   6.337  0.00  0.00    -0.026 A 
ATOM     10  C   LIG    1       25.937 -23.776   7.394  0.00  0.00    +0.007 A 
ATOM     11  C   LIG    1       25.592 -25.130   7.291  0.00  0.00    +0.020 A 
ATOM     12  C   LIG    1       24.977 -25.609   6.140  0.00  0.00    +0.041 A 
ATOM     13 CL   LIG    1       24.538 -27.269   6.024  0.00  0.00    -0.084 Cl
ATOM     14  C   LIG    1       24.706 -24.749   5.076  0.00  0.00    +0.020 A 
ATOM     15  C   LIG    1       25.055 -23.399   5.177  0.00  0.00    +0.007 A 
ENDBRANCH   1   9
BRANCH   1  16
ATOM     16  C   LIG    1       24.900 -20.551   5.736  0.00  0.00    -0.026 A 
ATOM     17  C   LIG    1       23.616 -20.390   6.288  0.00  0.00    +0.005 A 
ATOM     18  C   LIG    1       22.609 -19.725   5.587  0.00  0.00    +0.000 A 
ATOM     19  C   LIG    1       22.880 -19.169   4.341  0.00  0.00    +0.000 A 
ATOM     20  C   LIG    1       24.160 -19.268   3.799  0.00  0.00    +0.000 A 
ATOM     21  C   LIG    1       25.163 -19.954   4.490  0.00  0.00    +0.005 A 
ENDBRANCH   1  16
TORSDOF 3
ENDMDL
MODEL 5
REMARK VINA RESULT:      -6.3      1.768      4.396
REMARK  Name = *****
REMARK                            x       y       z     vdW  Elec       q    Type
REMARK                         _______ _______ _______ _____ _____    ______ ____
ROOT
ATOM      1  C   LIG    1       24.720 -20.858   5.864  0.00  0.00    +0.117 C 
ENDROOT
BRANCH   1   6
ATOM      2  C   LIG    1       21.157 -18.709   3.263  0.00  0.00    +0.105 C 
ATOM      3  N   LIG    1       21.592 -19.157   4.586  0.00  0.00    -0.303 NA
ATOM      4  C   LIG    1       21.816 -20.614   4.606  0.00  0.00    +0.099 C 
ATOM      5  C   LIG    1       23.146 -21.075   3.963  0.00  0.00    +0.100 C 
ATOM      6  N   LIG    1       24.371 -20.403   4.480  0.00  0.00    -0.289 NA
ATOM      7  C   LIG    1       24.129 -18.944   4.380  0.00  0.00    +0.100 C 
ATOM      8  C   LIG    1       22.811 -18.450   5.025  0.00  0.00    +0.099 C 
ENDBRANCH   1   6
BRANCH   1   9
ATOM      9  C   LIG    1       26.140 -20.462   6.304  0.00  0.00    -0.026 A 
ATOM     10  C   LIG    1       26.547 -20.516   7.651  0.00  0.00    +0.007 A 
ATOM     11  C   LIG    1       27.858 -20.182   8.013  0.00  0.00    +0.020 A 
ATOM     12  C   LIG    1       28.774 -19.794   7.041  0.00  0.00    +0.041 A 
ATOM     13 CL   LIG    1       30.390 -19.404   7.486  0.00  0.00    -0.084 Cl
ATOM     14  C   LIG    1       28.392 -19.724   5.702  0.00  0.00    +0.020 A 
ATOM     15  C   LIG    1       27.081 -20.052   5.341  0.00  0.00    +0.007 A 
ENDBRANCH   1   9
BRANCH   1  16
ATOM     16  C   LIG    1       24.487 -22.365   6.080  0.00  0.00    -0.026 A 
ATOM     17  C   LIG    1       25.405 -23.336   5.638  0.00  0.00    +0.005 A 
ATOM     18  C   LIG    1       25.119 -24.698   5.743  0.00  0.00    +0.000 A 
ATOM     19  C   LIG    1       23.930 -25.115   6.334  0.00  0.00    +0.000 A 
ATOM     20  C   LIG    1       23.031 -24.172   6.828  0.00  0.00    +0.000 A 
ATOM     21  C   LIG    1       23.307 -22.807   6.703  0.00  0.00    +0.005 A 
ENDBRANCH   1  16
TORSDOF 3
ENDMDL
MODEL 6
REMARK VINA RESULT:      -6.2      6.225      9.921
REMARK  Name = *****
REMARK                            x       y       z     vdW  Elec       q    Type
REMARK                         _______ _______ _______ _____ _____    ______ ____
ROOT
ATOM      1  C   LIG    1       25.121 -30.492   7.673  0.00  0.00    +0.117 C 
ENDROOT
BRANCH   1   6
ATOM      2  C   LIG    1       22.766 -32.602  11.424  0.00  0.00    +0.105 C 
ATOM      3  N   LIG    1       24.043 -32.093  10.926  0.00  0.00    -0.303 NA
ATOM      4  C   LIG    1       24.475 -32.827   9.723  0.00  0.00    +0.099 C 
ATOM      5  C   LIG    1       23.752 -32.417   8.418  0.00  0.00    +0.100 C 
ATOM      6  N   LIG    1       23.768 -30.960   8.111  0.00  0.00    -0.289 NA
ATOM      7  C   LIG    1       23.264 -30.266   9.320  0.00  0.00    +0.100 C 
ATOM      8  C   LIG    1       23.977 -30.645  10.641  0.00  0.00    +0.099 C 
ENDBRANCH   1   6
BRANCH   1   9
ATOM      9  C   LIG    1       25.138 -29.039   7.165  0.00  0.00    -0.026 A 
ATOM     10  C   LIG    1       26.016 -28.074   7.693  0.00  0.00    +0.007 A 
ATOM     11  C   LIG    1       26.030 -26.769   7.183  0.00  0.00    +0.020 A 
ATOM     12  C   LIG    1       25.173 -26.414   6.147  0.00  0.00    +0.041 A 
ATOM     13 CL   LIG    1       25.206 -24.816   5.510  0.00  0.00    -0.084 Cl
ATOM     14  C   LIG    1       24.287 -27.351   5.615  0.00  0.00    +0.020 A 
ATOM     15  C   LIG    1       24.270 -28.651   6.127  0.00  0.00    +0.007 A 
ENDBRANCH   1   9
BRANCH   1  16
ATOM     16  C   LIG    1       25.781 -31.431   6.645  0.00  0.00    -0.026 A 
ATOM     17  C   LIG    1       25.262 -31.606   5.349  0.00  0.00    +0.005 A 
ATOM     18  C   LIG    1       25.809 -32.548   4.476  0.00  0.00    +0.000 A 
ATOM     19  C   LIG    1       26.914 -33.298   4.866  0.00  0.00    +0.000 A 
ATOM     20  C   LIG    1       27.478 -33.101   6.125  0.00  0.00    +0.000 A 
ATOM     21  C   LIG    1       26.917 -32.176   7.008  0.00  0.00    +0.005 A 
ENDBRANCH   1  16
TORSDOF 3
ENDMDL
MODEL 7
REMARK VINA RESULT:      -6.1      1.812      4.670
REMARK  Name = *****
REMARK                            x       y       z     vdW  Elec       q    Type
REMARK                         _______ _______ _______ _____ _____    ______ ____
ROOT
ATOM      1  C   LIG    1       24.589 -20.813   5.756  0.00  0.00    +0.117 C 
ENDROOT
BRANCH   1   6
ATOM      2  C   LIG    1       21.035 -18.590   3.206  0.00  0.00    +0.105 C 
ATOM      3  N   LIG    1       21.454 -19.102   4.510  0.00  0.00    -0.303 NA
ATOM      4  C   LIG    1       21.705 -20.553   4.456  0.00  0.00    +0.099 C 
ATOM      5  C   LIG    1       23.055 -20.955   3.816  0.00  0.00    +0.100 C 
ATOM      6  N   LIG    1       24.257 -20.290   4.392  0.00  0.00    -0.289 NA
ATOM      7  C   LIG    1       23.990 -18.832   4.366  0.00  0.00    +0.100 C 
ATOM      8  C   LIG    1       22.651 -18.397   5.011  0.00  0.00    +0.099 C 
ENDBRANCH   1   6
BRANCH   1   9
ATOM      9  C   LIG    1       26.023 -20.487   6.210  0.00  0.00    -0.026 A 
ATOM     10  C   LIG    1       27.015 -20.065   5.305  0.00  0.00    +0.007 A 
ATOM     11  C   LIG    1       28.301 -19.741   5.757  0.00  0.00    +0.020 A 
ATOM     12  C   LIG    1       28.610 -19.836   7.110  0.00  0.00    +0.041 A 
ATOM     13 CL   LIG    1       30.185 -19.419   7.665  0.00  0.00    -0.084 Cl
ATOM     14  C   LIG    1       27.647 -20.261   8.024  0.00  0.00    +0.020 A 
ATOM     15  C   LIG    1       26.365 -20.588   7.572  0.00  0.00    +0.007 A 
ENDBRANCH   1   9
BRANCH   1  16
ATOM     16  C   LIG    1       24.303 -22.318   5.911  0.00  0.00    -0.026 A 
ATOM     17  C   LIG    1       23.201 -22.801   6.641  0.00  0.00    +0.005 A 
ATOM     18  C   LIG    1       23.027 -24.167   6.864  0.00  0.00    +0.000 A 
ATOM     19  C   LIG    1       23.927 -25.080   6.320  0.00  0.00    +0.000 A 
ATOM     20  C   LIG    1       24.994 -24.628   5.548  0.00  0.00    +0.000 A 
ATOM     21  C   LIG    1       25.182 -23.258   5.344  0.00  0.00    +0.005 A 
ENDBRANCH   1  16
TORSDOF 3
ENDMDL
MODEL 8
REMARK VINA RESULT:      -5.9      2.873      5.863
REMARK  Name = *****
REMARK                            x       y       z     vdW  Elec       q    Type
REMARK                         _______ _______ _______ _____ _____    ______ ____
ROOT
ATOM      1  C   LIG    1       25.080 -22.940   5.506  0.00  0.00    +0.117 C 
ENDROOT
BRANCH   1   6
ATOM      2  C   LIG    1       22.574 -18.922   4.222  0.00  0.00    +0.105 C 
ATOM      3  N   LIG    1       23.866 -19.464   4.641  0.00  0.00    -0.303 NA
ATOM      4  C   LIG    1       23.774 -20.086   5.974  0.00  0.00    +0.099 C 
ATOM      5  C   LIG    1       23.130 -21.492   5.992  0.00  0.00    +0.100 C 
ATOM      6  N   LIG    1       23.729 -22.480   5.052  0.00  0.00    -0.289 NA
ATOM      7  C   LIG    1       23.741 -21.840   3.714  0.00  0.00    +0.100 C 
ATOM      8  C   LIG    1       24.391 -20.436   3.662  0.00  0.00    +0.099 C 
ENDBRANCH   1   6
BRANCH   1   9
ATOM      9  C   LIG    1       25.141 -24.442   5.839  0.00  0.00    -0.026 A 
ATOM     10  C   LIG    1       26.259 -25.022   6.467  0.00  0.00    +0.007 A 
ATOM     11  C   LIG    1       26.267 -26.385   6.789  0.00  0.00    +0.020 A 
ATOM     12  C   LIG    1       25.167 -27.180   6.489  0.00  0.00    +0.041 A 
ATOM     13 CL   LIG    1       25.172 -28.851   6.904  0.00  0.00    -0.084 Cl
ATOM     14  C   LIG    1       24.052 -26.630   5.859  0.00  0.00    +0.020 A 
ATOM     15  C   LIG    1       24.046 -25.270   5.533  0.00  0.00    +0.007 A 
ENDBRANCH   1   9
BRANCH   1  16
ATOM     16  C   LIG    1       25.642 -22.105   6.672  0.00  0.00    -0.026 A 
ATOM     17  C   LIG    1       25.132 -22.206   7.980  0.00  0.00    +0.005 A 
ATOM     18  C   LIG    1       25.579 -21.357   8.994  0.00  0.00    +0.000 A 
ATOM     19  C   LIG    1       26.575 -20.423   8.730  0.00  0.00    +0.000 A 
ATOM     20  C   LIG    1       27.133 -20.342   7.455  0.00  0.00    +0.000 A 
ATOM     21  C   LIG    1       26.670 -21.176   6.433  0.00  0.00    +0.005 A 
ENDBRANCH   1  16
TORSDOF 3
ENDMDL
MODEL 9
REMARK VINA RESULT:      -5.8      5.344      8.801
REMARK  Name = *****
REMARK                            x       y       z     vdW  Elec       q    Type
REMARK                         _______ _______ _______ _____ _____    ______ ____
ROOT
ATOM      1  C   LIG    1       25.099 -29.351   7.531  0.00  0.00    +0.117 C 
ENDROOT
BRANCH   1   6
ATOM      2  C   LIG    1       25.166 -33.824   5.517  0.00  0.00    +0.105 C 
ATOM      3  N   LIG    1       24.358 -32.811   6.195  0.00  0.00    -0.303 NA
ATOM      4  C   LIG    1       24.891 -32.518   7.538  0.00  0.00    +0.099 C 
ATOM      5  C   LIG    1       26.136 -31.600   7.556  0.00  0.00    +0.100 C 
ATOM      6  N   LIG    1       25.993 -30.316   6.815  0.00  0.00    -0.289 NA
ATOM      7  C   LIG    1       25.520 -30.662   5.453  0.00  0.00    +0.100 C 
ATOM      8  C   LIG    1       24.267 -31.569   5.403  0.00  0.00    +0.099 C 
ENDBRANCH   1   6
BRANCH   1   9
ATOM      9  C   LIG    1       25.077 -27.946   6.902  0.00  0.00    -0.026 A 
ATOM     10  C   LIG    1       24.053 -27.537   6.028  0.00  0.00    +0.007 A 
ATOM     11  C   LIG    1       24.044 -26.239   5.501  0.00  0.00    +0.020 A 
ATOM     12  C   LIG    1       25.051 -25.340   5.838  0.00  0.00    +0.041 A 
ATOM     13 CL   LIG    1       25.026 -23.740   5.205  0.00  0.00    -0.084 Cl
ATOM     14  C   LIG    1       26.080 -25.727   6.696  0.00  0.00    +0.020 A 
ATOM     15  C   LIG    1       26.092 -27.024   7.218  0.00  0.00    +0.007 A 
ENDBRANCH   1   9
BRANCH   1  16
ATOM     16  C   LIG    1       25.393 -29.262   9.041  0.00  0.00    -0.026 A 
ATOM     17  C   LIG    1       24.464 -29.679  10.012  0.00  0.00    +0.005 A 
ATOM     18  C   LIG    1       24.707 -29.482  11.372  0.00  0.00    +0.000 A 
ATOM     19  C   LIG    1       25.904 -28.908  11.788  0.00  0.00    +0.000 A 
ATOM     20  C   LIG    1       26.862 -28.539  10.847  0.00  0.00    +0.000 A 
ATOM     21  C   LIG    1       26.610 -28.714   9.483  0.00  0.00    +0.005 A 
ENDBRANCH   1  16
TORSDOF 3
ENDMDL
