MODEL 1
REMARK VINA RESULT:      -6.8      0.000      0.000
REMARK  Name = *****
REMARK                            x       y       z     vdW  Elec       q    Type
REMARK                         _______ _______ _______ _____ _____    ______ ____
ROOT
ATOM      1  C   LIG    1       24.892 -24.525   6.481  0.00  0.00    +0.015 C 
ATOM      2  C   LIG    1       25.717 -23.286   6.841  0.00  0.00    +0.112 C 
ATOM      3  N   LIG    1       24.858 -22.178   6.499  0.00  0.00    -0.290 N 
ATOM      4  C   LIG    1       23.523 -22.551   6.395  0.00  0.00    +0.216 C 
ATOM      5  O   LIG    1       22.578 -21.821   6.177  0.00  0.00    -0.276 OA
ATOM      6  C   LIG    1       23.447 -24.043   6.683  0.00  0.00    +0.101 C 
ENDROOT
BRANCH   1   7
ATOM      7  C   LIG    1       25.136 -25.010   5.038  0.00  0.00    +0.005 C 
BRANCH   7   9
ATOM      8  C   LIG    1       25.921 -27.017   6.368  0.00  0.00    +0.004 C 
ATOM      9  C   LIG    1       25.649 -26.455   4.982  0.00  0.00    -0.003 C 
ENDBRANCH   7   9
ENDBRANCH   1   7
BRANCH   3  10
ATOM     10  C   LIG    1       25.317 -20.792   6.431  0.00  0.00    +0.161 C 
BRANCH  10  11
ATOM     11  C   LIG    1       25.760 -20.471   4.990  0.00  0.00    +0.231 C 
ATOM     12  O   LIG    1       25.012 -20.497   4.016  0.00  0.00    -0.274 OA
ATOM     13  N   LIG    1       27.055 -20.060   4.849  0.00  0.00    -0.328 N 
ATOM     14  H   LIG    1       27.352 -19.776   3.923  0.00  0.00    +0.145 HD
ATOM     15  H   LIG    1       27.610 -19.773   5.645  0.00  0.00    +0.145 HD
ENDBRANCH  10  11
BRANCH  10  16
ATOM     16  C   LIG    1       26.467 -20.499   7.405  0.00  0.00    +0.028 C 
ATOM     17  C   LIG    1       26.039 -20.513   8.865  0.00  0.00    +0.006 C 
ENDBRANCH  10  16
ENDBRANCH   3  10
TORSDOF 5
ENDMDL
MODEL 2
REMARK VINA RESULT:      -6.7      1.989      3.846
REMARK  Name = *****
REMARK                            x       y       z     vdW  Elec       q    Type
REMARK                         _______ _______ _______ _____ _____    ______ ____
ROOT
ATOM      1  C   LIG    1       25.924 -22.382   8.010  0.00  0.00    +0.015 C 
ATOM      2  C   LIG    1       24.819 -21.462   7.482  0.00  0.00    +0.112 C 
ATOM      3  N   LIG    1       24.570 -21.939   6.143  0.00  0.00    -0.290 N 
ATOM      4  C   LIG    1       25.036 -23.233   5.944  0.00  0.00    +0.216 C 
ATOM      5  O   LIG    1       24.914 -23.904   4.940  0.00  0.00    -0.276 OA
ATOM      6  C   LIG    1       25.665 -23.693   7.250  0.00  0.00    +0.101 C 
ENDROOT
BRANCH   1   7
ATOM      7  C   LIG    1       27.339 -21.836   7.741  0.00  0.00    +0.005 C 
BRANCH   7   9
ATOM      8  C   LIG    1       28.736 -19.769   7.305  0.00  0.00    +0.004 C 
ATOM      9  C   LIG    1       27.398 -20.304   7.790  0.00  0.00    -0.003 C 
ENDBRANCH   7   9
ENDBRANCH   1   7
BRANCH   3  10
ATOM     10  C   LIG    1       23.776 -21.207   5.160  0.00  0.00    +0.161 C 
BRANCH  10  11
ATOM     11  C   LIG    1       24.699 -20.690   4.039  0.00  0.00    +0.231 C 
ATOM     12  O   LIG    1       24.388 -20.651   2.852  0.00  0.00    -0.274 OA
ATOM     13  N   LIG    1       25.898 -20.180   4.450  0.00  0.00    -0.328 N 
ATOM     14  H   LIG    1       26.494 -19.771   3.741  0.00  0.00    +0.145 HD
ATOM     15  H   LIG    1       26.072 -19.952   5.421  0.00  0.00    +0.145 HD
ENDBRANCH  10  11
BRANCH  10  16
ATOM     16  C   LIG    1       23.002 -20.032   5.777  0.00  0.00    +0.028 C 
ATOM     17  C   LIG    1       22.319 -19.150   4.742  0.00  0.00    +0.006 C 
ENDBRANCH  10  16
ENDBRANCH   3  10
TORSDOF 5
ENDMDL
MODEL 3
REMARK VINA RESULT:      -6.6      2.569      4.935
REMARK  Name = *****
REMARK                            x       y       z     vdW  Elec       q    Type
REMARK                         _______ _______ _______ _____ _____    ______ ____
ROOT
ATOM      1  C   LIG    1       27.742 -20.139   7.029  0.00  0.00    +0.015 C 
ATOM      2  C   LIG    1       26.571 -20.571   6.141  0.00  0.00    +0.112 C 
ATOM      3  N   LIG    1       25.750 -21.382   7.008  0.00  0.00    -0.290 N 
ATOM      4  C   LIG    1       26.014 -21.158   8.355  0.00  0.00    +0.216 C 
ATOM      5  O   LIG    1       25.440 -21.655   9.302  0.00  0.00    -0.276 OA
ATOM      6  C   LIG    1       27.113 -20.108   8.430  0.00  0.00    +0.101 C 
ENDROOT
BRANCH   1   7
ATOM      7  C   LIG    1       28.937 -21.110   6.960  0.00  0.00    +0.005 C 
BRANCH   7   9
ATOM      8  C   LIG    1       30.804 -19.400   7.013  0.00  0.00    +0.004 C 
ATOM      9  C   LIG    1       30.164 -20.586   7.717  0.00  0.00    -0.003 C 
ENDBRANCH   7   9
ENDBRANCH   1   7
BRANCH   3  10
ATOM     10  C   LIG    1       24.655 -22.223   6.530  0.00  0.00    +0.161 C 
BRANCH  10  11
ATOM     11  C   LIG    1       25.219 -23.577   6.058  0.00  0.00    +0.231 C 
ATOM     12  O   LIG    1       25.898 -24.323   6.757  0.00  0.00    -0.274 OA
ATOM     13  N   LIG    1       24.846 -23.967   4.803  0.00  0.00    -0.328 N 
ATOM     14  H   LIG    1       25.145 -24.884   4.495  0.00  0.00    +0.145 HD
ATOM     15  H   LIG    1       24.084 -23.516   4.313  0.00  0.00    +0.145 HD
ENDBRANCH  10  11
BRANCH  10  16
ATOM     16  C   LIG    1       23.858 -21.568   5.392  0.00  0.00    +0.028 C 
ATOM     17  C   LIG    1       22.892 -20.494   5.873  0.00  0.00    +0.006 C 
ENDBRANCH  10  16
ENDBRANCH   3  10
TORSDOF 5
ENDMDL
MODEL 4
REMARK VINA RESULT:      -6.5      2.253      4.783
REMARK  Name = *****
REMARK                            x       y       z     vdW  Elec       q    Type
REMARK                         _______ _______ _______ _____ _____    ______ ____
ROOT
ATOM      1  C   LIG    1       24.044 -20.857   4.230  0.00  0.00    +0.015 C 
ATOM      2  C   LIG    1       24.526 -22.179   4.836  0.00  0.00    +0.112 C 
ATOM      3  N   LIG    1       24.479 -21.954   6.260  0.00  0.00    -0.290 N 
ATOM      4  C   LIG    1       23.661 -20.883   6.604  0.00  0.00    +0.216 C 
ATOM      5  O   LIG    1       23.390 -20.504   7.724  0.00  0.00    -0.276 OA
ATOM      6  C   LIG    1       23.096 -20.314   5.311  0.00  0.00    +0.101 C 
ENDROOT
BRANCH   1   7
ATOM      7  C   LIG    1       25.196 -19.876   3.936  0.00  0.00    +0.005 C 
BRANCH   7   9
ATOM      8  C   LIG    1       25.842 -17.513   3.296  0.00  0.00    +0.004 C 
ATOM      9  C   LIG    1       24.695 -18.474   3.566  0.00  0.00    -0.003 C 
ENDBRANCH   7   9
ENDBRANCH   1   7
BRANCH   3  10
ATOM     10  C   LIG    1       25.091 -22.848   7.240  0.00  0.00    +0.161 C 
BRANCH  10  11
ATOM     11  C   LIG    1       26.313 -22.153   7.873  0.00  0.00    +0.231 C 
ATOM     12  O   LIG    1       26.384 -21.825   9.054  0.00  0.00    -0.274 OA
ATOM     13  N   LIG    1       27.389 -21.987   7.049  0.00  0.00    -0.328 N 
ATOM     14  H   LIG    1       28.229 -21.597   7.458  0.00  0.00    +0.145 HD
ATOM     15  H   LIG    1       27.463 -22.478   6.167  0.00  0.00    +0.145 HD
ENDBRANCH  10  11
BRANCH  10  16
ATOM     16  C   LIG    1       25.516 -24.193   6.631  0.00  0.00    +0.028 C 
ATOM     17  C   LIG    1       24.359 -25.164   6.448  0.00  0.00    +0.006 C 
ENDBRANCH  10  16
ENDBRANCH   3  10
TORSDOF 5
ENDMDL
MODEL 5
REMARK VINA RESULT:      -6.3      2.715      4.896
REMARK  Name = *****
REMARK                            x       y       z     vdW  Elec       q    Type
REMARK                         _______ _______ _______ _____ _____    ______ ____
ROOT
ATOM      1  C   LIG    1       24.072 -20.170   4.306  0.00  0.00    +0.015 C 
ATOM      2  C   LIG    1       25.360 -19.946   5.104  0.00  0.00    +0.112 C 
ATOM      3  N   LIG    1       25.544 -21.178   5.833  0.00  0.00    -0.290 N 
ATOM      4  C   LIG    1       24.824 -22.234   5.286  0.00  0.00    +0.216 C 
ATOM      5  O   LIG    1       24.833 -23.389   5.655  0.00  0.00    -0.276 OA
ATOM      6  C   LIG    1       24.073 -21.690   4.079  0.00  0.00    +0.101 C 
ENDROOT
BRANCH   1   7
ATOM      7  C   LIG    1       22.811 -19.707   5.061  0.00  0.00    +0.005 C 
BRANCH   7   9
ATOM      8  C   LIG    1       22.273 -17.265   4.658  0.00  0.00    +0.004 C 
ATOM      9  C   LIG    1       21.979 -18.701   4.254  0.00  0.00    -0.003 C 
ENDBRANCH   7   9
ENDBRANCH   1   7
BRANCH   3  10
ATOM     10  C   LIG    1       26.504 -21.335   6.923  0.00  0.00    +0.161 C 
BRANCH  10  11
ATOM     11  C   LIG    1       25.790 -21.102   8.270  0.00  0.00    +0.231 C 
ATOM     12  O   LIG    1       26.275 -20.477   9.208  0.00  0.00    -0.274 OA
ATOM     13  N   LIG    1       24.509 -21.570   8.347  0.00  0.00    -0.328 N 
ATOM     14  H   LIG    1       23.994 -21.370   9.195  0.00  0.00    +0.145 HD
ATOM     15  H   LIG    1       23.994 -21.844   7.520  0.00  0.00    +0.145 HD
ENDBRANCH  10  11
BRANCH  10  16
ATOM     16  C   LIG    1       27.703 -20.383   6.800  0.00  0.00    +0.028 C 
ATOM     17  C   LIG    1       29.022 -21.020   7.213  0.00  0.00    +0.006 C 
ENDBRANCH  10  16
ENDBRANCH   3  10
TORSDOF 5
ENDMDL
MODEL 6
REMARK VINA RESULT:      -6.2      2.828      5.868
REMARK  Name = *****
REMARK                            x       y       z     vdW  Elec       q    Type
REMARK                         _______ _______ _______ _____ _____    ______ ____
ROOT
ATOM      1  C   LIG    1       29.302 -20.254   7.189  0.00  0.00    +0.015 C 
ATOM      2  C   LIG    1       28.374 -21.447   7.435  0.00  0.00    +0.112 C 
ATOM      3  N   LIG    1       27.165 -21.107   6.724  0.00  0.00    -0.290 N 
ATOM      4  C   LIG    1       27.370 -20.123   5.764  0.00  0.00    +0.216 C 
ATOM      5  O   LIG    1       26.550 -19.686   4.984  0.00  0.00    -0.276 OA
ATOM      6  C   LIG    1       28.842 -19.744   5.814  0.00  0.00    +0.101 C 
ENDROOT
BRANCH   1   7
ATOM      7  C   LIG    1       29.181 -19.165   8.272  0.00  0.00    +0.005 C 
BRANCH   7   9
ATOM      8  C   LIG    1       30.341 -17.260   9.470  0.00  0.00    +0.004 C 
ATOM      9  C   LIG    1       30.381 -18.209   8.284  0.00  0.00    -0.003 C 
ENDBRANCH   7   9
ENDBRANCH   1   7
BRANCH   3  10
ATOM     10  C   LIG    1       25.905 -21.830   6.884  0.00  0.00    +0.161 C 
BRANCH  10  11
ATOM     11  C   LIG    1       25.031 -21.108   7.928  0.00  0.00    +0.231 C 
ATOM     12  O   LIG    1       25.458 -20.638   8.979  0.00  0.00    -0.274 OA
ATOM     13  N   LIG    1       23.721 -20.934   7.583  0.00  0.00    -0.328 N 
ATOM     14  H   LIG    1       23.141 -20.402   8.220  0.00  0.00    +0.145 HD
ATOM     15  H   LIG    1       23.402 -21.064   6.631  0.00  0.00    +0.145 HD
ENDBRANCH  10  11
BRANCH  10  16
ATOM     16  C   LIG    1       26.108 -23.294   7.300  0.00  0.00    +0.028 C 
ATOM     17  C   LIG    1       25.133 -24.252   6.631  0.00  0.00    +0.006 C 
ENDBRANCH  10  16
ENDBRANCH   3  10
TORSDOF 5
ENDMDL
MODEL 7
REMARK VINA RESULT:      -6.1      2.142      5.089
REMARK  Name = *****
REMARK                            x       y       z     vdW  Elec       q    Type
REMARK                         _______ _______ _______ _____ _____    ______ ____
ROOT
ATOM      1  C   LIG    1       27.449 -20.205   6.831  0.00  0.00    +0.015 C 
ATOM      2  C   LIG    1       26.399 -20.874   5.939  0.00  0.00    +0.112 C 
ATOM      3  N   LIG    1       25.782 -21.857   6.795  0.00  0.00    -0.290 N 
ATOM      4  C   LIG    1       25.994 -21.598   8.144  0.00  0.00    +0.216 C 
ATOM      5  O   LIG    1       25.548 -22.221   9.085  0.00  0.00    -0.276 OA
ATOM      6  C   LIG    1       26.833 -20.332   8.233  0.00  0.00    +0.101 C 
ENDROOT
BRANCH   1   7
ATOM      7  C   LIG    1       28.829 -20.886   6.749  0.00  0.00    +0.005 C 
BRANCH   7   9
ATOM      8  C   LIG    1       30.010 -18.659   6.992  0.00  0.00    +0.004 C 
ATOM      9  C   LIG    1       29.920 -20.095   7.483  0.00  0.00    -0.003 C 
ENDBRANCH   7   9
ENDBRANCH   1   7
BRANCH   3  10
ATOM     10  C   LIG    1       24.898 -22.913   6.306  0.00  0.00    +0.161 C 
BRANCH  10  11
ATOM     11  C   LIG    1       23.438 -22.557   6.649  0.00  0.00    +0.231 C 
ATOM     12  O   LIG    1       23.030 -21.413   6.828  0.00  0.00    -0.274 OA
ATOM     13  N   LIG    1       22.563 -23.606   6.665  0.00  0.00    -0.328 N 
ATOM     14  H   LIG    1       21.586 -23.391   6.819  0.00  0.00    +0.145 HD
ATOM     15  H   LIG    1       22.804 -24.503   6.265  0.00  0.00    +0.145 HD
ENDBRANCH  10  11
BRANCH  10  16
ATOM     16  C   LIG    1       25.245 -24.293   6.884  0.00  0.00    +0.028 C 
ATOM     17  C   LIG    1       25.665 -25.302   5.824  0.00  0.00    +0.006 C 
ENDBRANCH  10  16
ENDBRANCH   3  10
TORSDOF 5
ENDMDL
MODEL 8
REMARK VINA RESULT:      -6.1      1.749      2.419
REMARK  Name = *****
REMARK                            x       y       z     vdW  Elec       q    Type
REMARK                         _______ _______ _______ _____ _____    ______ ____
ROOT
ATOM      1  C   LIG    1       24.858 -25.199   6.394  0.00  0.00    +0.015 C 
ATOM      2  C   LIG    1       25.911 -24.197   6.877  0.00  0.00    +0.112 C 
ATOM      3  N   LIG    1       25.310 -22.908   6.633  0.00  0.00    -0.290 N 
ATOM      4  C   LIG    1       23.930 -22.983   6.482  0.00  0.00    +0.216 C 
ATOM      5  O   LIG    1       23.163 -22.056   6.325  0.00  0.00    -0.276 OA
ATOM      6  C   LIG    1       23.540 -24.446   6.628  0.00  0.00    +0.101 C 
ENDROOT
BRANCH   1   7
ATOM      7  C   LIG    1       25.037 -25.592   4.914  0.00  0.00    +0.005 C 
BRANCH   7   9
ATOM      8  C   LIG    1       25.331 -28.017   5.581  0.00  0.00    +0.004 C 
ATOM      9  C   LIG    1       25.869 -26.869   4.741  0.00  0.00    -0.003 C 
ENDBRANCH   7   9
ENDBRANCH   1   7
BRANCH   3  10
ATOM     10  C   LIG    1       26.047 -21.648   6.699  0.00  0.00    +0.161 C 
BRANCH  10  11
ATOM     11  C   LIG    1       26.373 -21.323   8.170  0.00  0.00    +0.231 C 
ATOM     12  O   LIG    1       27.454 -21.555   8.705  0.00  0.00    -0.274 OA
ATOM     13  N   LIG    1       25.396 -20.663   8.859  0.00  0.00    -0.328 N 
ATOM     14  H   LIG    1       25.610 -20.376   9.806  0.00  0.00    +0.145 HD
ATOM     15  H   LIG    1       24.617 -20.224   8.385  0.00  0.00    +0.145 HD
ENDBRANCH  10  11
BRANCH  10  16
ATOM     16  C   LIG    1       25.279 -20.477   6.067  0.00  0.00    +0.028 C 
ATOM     17  C   LIG    1       25.713 -20.172   4.640  0.00  0.00    +0.006 C 
ENDBRANCH  10  16
ENDBRANCH   3  10
TORSDOF 5
ENDMDL
MODEL 9
REMARK VINA RESULT:      -6.1      2.332      4.645
REMARK  Name = *****
REMARK                            x       y       z     vdW  Elec       q    Type
REMARK                         _______ _______ _______ _____ _____    ______ ____
ROOT
ATOM      1  C   LIG    1       27.414 -20.495   7.676  0.00  0.00    +0.015 C 
ATOM      2  C   LIG    1       26.021 -20.273   7.081  0.00  0.00    +0.112 C 
ATOM      3  N   LIG    1       25.646 -21.566   6.562  0.00  0.00    -0.290 N 
ATOM      4  C   LIG    1       26.393 -22.599   7.117  0.00  0.00    +0.216 C 
ATOM      5  O   LIG    1       26.258 -23.787   6.912  0.00  0.00    -0.276 OA
ATOM      6  C   LIG    1       27.371 -21.972   8.100  0.00  0.00    +0.101 C 
ENDROOT
BRANCH   1   7
ATOM      7  C   LIG    1       28.548 -20.223   6.668  0.00  0.00    +0.005 C 
BRANCH   7   9
ATOM      8  C   LIG    1       30.928 -19.425   6.998  0.00  0.00    +0.004 C 
ATOM      9  C   LIG    1       29.455 -19.064   7.101  0.00  0.00    -0.003 C 
ENDBRANCH   7   9
ENDBRANCH   1   7
BRANCH   3  10
ATOM     10  C   LIG    1       24.504 -21.781   5.677  0.00  0.00    +0.161 C 
BRANCH  10  11
ATOM     11  C   LIG    1       24.436 -20.639   4.644  0.00  0.00    +0.231 C 
ATOM     12  O   LIG    1       23.486 -19.872   4.525  0.00  0.00    -0.274 OA
ATOM     13  N   LIG    1       25.560 -20.459   3.889  0.00  0.00    -0.328 N 
ATOM     14  H   LIG    1       25.568 -19.672   3.252  0.00  0.00    +0.145 HD
ATOM     15  H   LIG    1       26.442 -20.888   4.140  0.00  0.00    +0.145 HD
ENDBRANCH  10  11
BRANCH  10  16
ATOM     16  C   LIG    1       23.173 -21.873   6.437  0.00  0.00    +0.028 C 
ATOM     17  C   LIG    1       22.758 -23.302   6.755  0.00  0.00    +0.006 C 
ENDBRANCH  10  16
ENDBRANCH   3  10
TORSDOF 5
ENDMDL
