MODEL 1
REMARK VINA RESULT:      -6.3      0.000      0.000
REMARK  Name = *****
REMARK                            x       y       z     vdW  Elec       q    Type
REMARK                         _______ _______ _______ _____ _____    ______ ____
ROOT
ATOM      1  C   LIG    1       23.303 -28.611  12.801  0.00  0.00    +0.021 C 
ATOM      2  C   LIG    1       22.261 -29.767  12.908  0.00  0.00    +0.003 C 
ATOM      3  C   LIG    1       22.507 -30.929  11.872  0.00  0.00    -0.026 C 
ATOM      4  C   LIG    1       21.878 -30.468  10.533  0.00  0.00    +0.012 C 
ATOM      5  C   LIG    1       21.707 -32.217  12.291  0.00  0.00    +0.009 C 
ATOM      6  C   LIG    1       20.421 -31.902  13.049  0.00  0.00    +0.032 C 
ATOM      7  C   LIG    1       20.726 -31.171  14.357  0.00  0.00    +0.115 C 
ATOM      8  C   LIG    1       24.044 -31.332  11.811  0.00  0.00    +0.001 C 
ATOM      9  C   LIG    1       25.077 -30.168  11.775  0.00  0.00    +0.025 C 
ATOM     10  C   LIG    1       25.237 -29.624  10.344  0.00  0.00    +0.001 C 
ATOM     11  C   LIG    1       25.668 -30.690   9.308  0.00  0.00    -0.026 C 
ATOM     12  C   LIG    1       27.076 -31.300   9.593  0.00  0.00    +0.012 C 
ATOM     13  C   LIG    1       24.658 -31.837   9.341  0.00  0.00    +0.007 C 
ATOM     14  C   LIG    1       25.805 -29.819   8.003  0.00  0.00    -0.002 C 
ATOM     15  C   LIG    1       26.353 -28.463   8.572  0.00  0.00    +0.004 C 
ATOM     16  C   LIG    1       26.235 -28.504  10.104  0.00  0.00    +0.005 C 
ATOM     17  C   LIG    1       24.406 -32.399  10.747  0.00  0.00    +0.005 C 
ATOM     18  C   LIG    1       22.027 -30.353  14.311  0.00  0.00    +0.035 C 
ATOM     19  C   LIG    1       24.765 -29.084  12.821  0.00  0.00    +0.122 C 
ENDROOT
BRANCH   1  21
ATOM     20  C   LIG    1       22.079 -26.410  13.353  0.00  0.00    +0.004 C 
ATOM     21  C   LIG    1       23.028 -27.498  13.842  0.00  0.00    +0.003 C 
ENDBRANCH   1  21
BRANCH   7  22
ATOM     22  O   LIG    1       20.843 -32.114  15.419  0.00  0.00    -0.392 OA
ATOM     23  H   LIG    1       21.708 -31.974  15.840  0.00  0.00    +0.210 HD
ENDBRANCH   7  22
BRANCH  14  24
ATOM     24  C   LIG    1       24.573 -29.585   7.053  0.00  0.00    -0.010 C 
ATOM     25  C   LIG    1       24.536 -30.512   5.825  0.00  0.00    +0.008 C 
BRANCH  24  26
ATOM     26  C   LIG    1       24.499 -28.115   6.517  0.00  0.00    +0.015 C 
BRANCH  26  27
ATOM     27  C   LIG    1       25.113 -27.912   5.129  0.00  0.00    +0.121 C 
BRANCH  27  28
ATOM     28  C   LIG    1       26.005 -26.694   5.086  0.00  0.00    +0.305 C 
ATOM     29  O   LIG    1       25.619 -25.580   4.791  0.00  0.00    -0.251 OA
BRANCH  28  30
ATOM     30  O   LIG    1       27.294 -26.960   5.400  0.00  0.00    -0.481 OA
ATOM     31  H   LIG    1       27.659 -27.754   4.968  0.00  0.00    +0.295 HD
ENDBRANCH  28  30
ENDBRANCH  27  28
ENDBRANCH  26  27
ENDBRANCH  24  26
ENDBRANCH  14  24
BRANCH  19  32
ATOM     32  O   LIG    1       25.133 -29.527  14.127  0.00  0.00    -0.391 OA
ATOM     33  H   LIG    1       26.016 -29.191  14.344  0.00  0.00    +0.210 HD
ENDBRANCH  19  32
TORSDOF 8
ENDMDL
MODEL 2
REMARK VINA RESULT:      -5.9      1.875      2.641
REMARK  Name = *****
REMARK                            x       y       z     vdW  Elec       q    Type
REMARK                         _______ _______ _______ _____ _____    ______ ____
ROOT
ATOM      1  C   LIG    1       21.322 -28.792  12.730  0.00  0.00    +0.021 C 
ATOM      2  C   LIG    1       20.076 -29.716  12.567  0.00  0.00    +0.003 C 
ATOM      3  C   LIG    1       20.422 -31.134  11.972  0.00  0.00    -0.026 C 
ATOM      4  C   LIG    1       20.509 -30.959  10.435  0.00  0.00    +0.012 C 
ATOM      5  C   LIG    1       19.234 -32.136  12.215  0.00  0.00    +0.009 C 
ATOM      6  C   LIG    1       17.872 -31.450  12.254  0.00  0.00    +0.032 C 
ATOM      7  C   LIG    1       17.800 -30.450  13.409  0.00  0.00    +0.115 C 
ATOM      8  C   LIG    1       21.707 -31.756  12.672  0.00  0.00    +0.001 C 
ATOM      9  C   LIG    1       22.919 -30.803  12.892  0.00  0.00    +0.025 C 
ATOM     10  C   LIG    1       23.762 -30.688  11.609  0.00  0.00    +0.001 C 
ATOM     11  C   LIG    1       24.295 -32.040  11.079  0.00  0.00    -0.026 C 
ATOM     12  C   LIG    1       25.279 -32.749  12.062  0.00  0.00    +0.012 C 
ATOM     13  C   LIG    1       23.109 -32.980  10.864  0.00  0.00    +0.007 C 
ATOM     14  C   LIG    1       25.148 -31.576   9.839  0.00  0.00    -0.002 C 
ATOM     15  C   LIG    1       25.737 -30.211  10.341  0.00  0.00    +0.004 C 
ATOM     16  C   LIG    1       25.014 -29.827  11.642  0.00  0.00    +0.005 C 
ATOM     17  C   LIG    1       22.190 -33.107  12.087  0.00  0.00    +0.005 C 
ATOM     18  C   LIG    1       19.169 -29.869  13.800  0.00  0.00    +0.035 C 
ATOM     19  C   LIG    1       22.492 -29.448  13.480  0.00  0.00    +0.122 C 
ENDROOT
BRANCH   1  21
ATOM     20  C   LIG    1       22.085 -26.414  13.372  0.00  0.00    +0.004 C 
ATOM     21  C   LIG    1       20.937 -27.415  13.325  0.00  0.00    +0.003 C 
ENDBRANCH   1  21
BRANCH   7  22
ATOM     22  O   LIG    1       17.252 -31.084  14.561  0.00  0.00    -0.392 OA
ATOM     23  H   LIG    1       17.904 -31.733  14.876  0.00  0.00    +0.210 HD
ENDBRANCH   7  22
BRANCH  14  24
ATOM     24  C   LIG    1       24.492 -31.427   8.416  0.00  0.00    -0.010 C 
ATOM     25  C   LIG    1       25.335 -32.010   7.267  0.00  0.00    +0.008 C 
BRANCH  24  26
ATOM     26  C   LIG    1       24.188 -29.936   8.047  0.00  0.00    +0.015 C 
BRANCH  26  27
ATOM     27  C   LIG    1       25.020 -29.385   6.887  0.00  0.00    +0.121 C 
BRANCH  27  28
ATOM     28  C   LIG    1       24.153 -28.726   5.841  0.00  0.00    +0.305 C 
ATOM     29  O   LIG    1       24.324 -27.593   5.433  0.00  0.00    -0.251 OA
BRANCH  28  30
ATOM     30  O   LIG    1       23.146 -29.515   5.401  0.00  0.00    -0.481 OA
ATOM     31  H   LIG    1       22.777 -29.254   4.538  0.00  0.00    +0.295 HD
ENDBRANCH  28  30
ENDBRANCH  27  28
ENDBRANCH  26  27
ENDBRANCH  24  26
ENDBRANCH  14  24
BRANCH  19  32
ATOM     32  O   LIG    1       22.191 -29.576  14.869  0.00  0.00    -0.391 OA
ATOM     33  H   LIG    1       21.280 -29.284  15.030  0.00  0.00    +0.210 HD
ENDBRANCH  19  32
TORSDOF 8
ENDMDL
MODEL 3
REMARK VINA RESULT:      -5.6      2.993      7.035
REMARK  Name = *****
REMARK                            x       y       z     vdW  Elec       q    Type
REMARK                         _______ _______ _______ _____ _____    ______ ____
ROOT
ATOM      1  C   LIG    1       25.214 -30.168   6.614  0.00  0.00    +0.021 C 
ATOM      2  C   LIG    1       26.209 -31.328   6.302  0.00  0.00    +0.003 C 
ATOM      3  C   LIG    1       26.267 -32.424   7.432  0.00  0.00    -0.026 C 
ATOM      4  C   LIG    1       27.220 -31.883   8.527  0.00  0.00    +0.012 C 
ATOM      5  C   LIG    1       26.947 -33.735   6.892  0.00  0.00    +0.009 C 
ATOM      6  C   LIG    1       27.981 -33.467   5.803  0.00  0.00    +0.032 C 
ATOM      7  C   LIG    1       27.328 -32.817   4.582  0.00  0.00    +0.115 C 
ATOM      8  C   LIG    1       24.808 -32.824   7.923  0.00  0.00    +0.001 C 
ATOM      9  C   LIG    1       23.802 -31.660   8.163  0.00  0.00    +0.025 C 
ATOM     10  C   LIG    1       24.018 -31.031   9.551  0.00  0.00    +0.001 C 
ATOM     11  C   LIG    1       23.895 -32.031  10.726  0.00  0.00    -0.026 C 
ATOM     12  C   LIG    1       22.472 -32.658  10.861  0.00  0.00    +0.012 C 
ATOM     13  C   LIG    1       24.878 -33.178  10.492  0.00  0.00    +0.007 C 
ATOM     14  C   LIG    1       24.094 -31.083  11.967  0.00  0.00    -0.002 C 
ATOM     15  C   LIG    1       23.392 -29.764  11.485  0.00  0.00    +0.004 C 
ATOM     16  C   LIG    1       23.100 -29.898   9.982  0.00  0.00    +0.005 C 
ATOM     17  C   LIG    1       24.758 -33.825   9.106  0.00  0.00    +0.005 C 
ATOM     18  C   LIG    1       26.072 -31.998   4.924  0.00  0.00    +0.035 C 
ATOM     19  C   LIG    1       23.807 -30.642   7.010  0.00  0.00    +0.122 C 
ENDROOT
BRANCH   1  21
ATOM     20  C   LIG    1       24.486 -27.817   5.844  0.00  0.00    +0.004 C 
ATOM     21  C   LIG    1       25.185 -29.120   5.474  0.00  0.00    +0.003 C 
ENDBRANCH   1  21
BRANCH   7  22
ATOM     22  O   LIG    1       26.950 -33.823   3.646  0.00  0.00    -0.392 OA
ATOM     23  H   LIG    1       27.766 -34.191   3.267  0.00  0.00    +0.210 HD
ENDBRANCH   7  22
BRANCH  14  24
ATOM     24  C   LIG    1       25.530 -30.790  12.540  0.00  0.00    -0.010 C 
ATOM     25  C   LIG    1       25.917 -31.660  13.750  0.00  0.00    +0.008 C 
BRANCH  24  26
ATOM     26  C   LIG    1       25.710 -29.298  12.976  0.00  0.00    +0.015 C 
BRANCH  26  27
ATOM     27  C   LIG    1       27.009 -28.646  12.494  0.00  0.00    +0.121 C 
BRANCH  27  28
ATOM     28  C   LIG    1       27.366 -29.082  11.093  0.00  0.00    +0.305 C 
ATOM     29  O   LIG    1       26.752 -28.745  10.099  0.00  0.00    -0.251 OA
BRANCH  28  30
ATOM     30  O   LIG    1       28.440 -29.903  11.042  0.00  0.00    -0.481 OA
ATOM     31  H   LIG    1       29.099 -29.664  10.365  0.00  0.00    +0.295 HD
ENDBRANCH  28  30
ENDBRANCH  27  28
ENDBRANCH  26  27
ENDBRANCH  24  26
ENDBRANCH  14  24
BRANCH  19  32
ATOM     32  O   LIG    1       23.114 -31.163   5.877  0.00  0.00    -0.391 OA
ATOM     33  H   LIG    1       22.290 -31.583   6.169  0.00  0.00    +0.210 HD
ENDBRANCH  19  32
TORSDOF 8
ENDMDL
MODEL 4
REMARK VINA RESULT:      -5.4      2.928      6.629
REMARK  Name = *****
REMARK                            x       y       z     vdW  Elec       q    Type
REMARK                         _______ _______ _______ _____ _____    ______ ____
ROOT
ATOM      1  C   LIG    1       23.885 -32.484  10.220  0.00  0.00    +0.021 C 
ATOM      2  C   LIG    1       24.064 -31.914   8.779  0.00  0.00    +0.003 C 
ATOM      3  C   LIG    1       24.921 -30.593   8.731  0.00  0.00    -0.026 C 
ATOM      4  C   LIG    1       23.962 -29.429   9.087  0.00  0.00    +0.012 C 
ATOM      5  C   LIG    1       25.406 -30.305   7.263  0.00  0.00    +0.009 C 
ATOM      6  C   LIG    1       24.442 -30.828   6.202  0.00  0.00    +0.032 C 
ATOM      7  C   LIG    1       24.306 -32.349   6.293  0.00  0.00    +0.115 C 
ATOM      8  C   LIG    1       26.223 -30.716   9.637  0.00  0.00    +0.001 C 
ATOM      9  C   LIG    1       26.043 -31.352  11.046  0.00  0.00    +0.025 C 
ATOM     10  C   LIG    1       25.529 -30.308  12.054  0.00  0.00    +0.001 C 
ATOM     11  C   LIG    1       26.438 -29.063  12.194  0.00  0.00    -0.026 C 
ATOM     12  C   LIG    1       27.860 -29.391  12.748  0.00  0.00    +0.012 C 
ATOM     13  C   LIG    1       26.621 -28.437  10.811  0.00  0.00    +0.007 C 
ATOM     14  C   LIG    1       25.688 -28.252  13.316  0.00  0.00    -0.002 C 
ATOM     15  C   LIG    1       25.139 -29.400  14.235  0.00  0.00    +0.004 C 
ATOM     16  C   LIG    1       25.327 -30.736  13.498  0.00  0.00    +0.005 C 
ATOM     17  C   LIG    1       27.084 -29.431   9.737  0.00  0.00    +0.005 C 
ATOM     18  C   LIG    1       24.556 -32.901   7.707  0.00  0.00    +0.035 C 
ATOM     19  C   LIG    1       25.200 -32.638  10.999  0.00  0.00    +0.122 C 
ENDROOT
BRANCH   1  21
ATOM     20  C   LIG    1       21.572 -33.574   9.880  0.00  0.00    +0.004 C 
ATOM     21  C   LIG    1       23.044 -33.785  10.218  0.00  0.00    +0.003 C 
ENDBRANCH   1  21
BRANCH   7  22
ATOM     22  O   LIG    1       25.240 -32.968   5.413  0.00  0.00    -0.392 OA
ATOM     23  H   LIG    1       25.897 -33.430   5.962  0.00  0.00    +0.210 HD
ENDBRANCH   7  22
BRANCH  14  24
ATOM     24  C   LIG    1       24.557 -27.222  12.951  0.00  0.00    -0.010 C 
ATOM     25  C   LIG    1       24.690 -25.860  13.657  0.00  0.00    +0.008 C 
BRANCH  24  26
ATOM     26  C   LIG    1       23.123 -27.763  13.273  0.00  0.00    +0.015 C 
BRANCH  26  27
ATOM     27  C   LIG    1       22.035 -26.688  13.331  0.00  0.00    +0.121 C 
BRANCH  27  28
ATOM     28  C   LIG    1       20.657 -27.277  13.143  0.00  0.00    +0.305 C 
ATOM     29  O   LIG    1       20.364 -28.423  13.427  0.00  0.00    -0.251 OA
BRANCH  28  30
ATOM     30  O   LIG    1       19.768 -26.407  12.613  0.00  0.00    -0.481 OA
ATOM     31  H   LIG    1       19.836 -26.300  11.647  0.00  0.00    +0.295 HD
ENDBRANCH  28  30
ENDBRANCH  27  28
ENDBRANCH  26  27
ENDBRANCH  24  26
ENDBRANCH  14  24
BRANCH  19  32
ATOM     32  O   LIG    1       25.969 -33.723  10.479  0.00  0.00    -0.391 OA
ATOM     33  H   LIG    1       25.716 -33.884   9.557  0.00  0.00    +0.210 HD
ENDBRANCH  19  32
TORSDOF 8
ENDMDL
MODEL 5
REMARK VINA RESULT:      -5.2      3.247      6.897
REMARK  Name = *****
REMARK                            x       y       z     vdW  Elec       q    Type
REMARK                         _______ _______ _______ _____ _____    ______ ____
ROOT
ATOM      1  C   LIG    1       25.714 -28.899  11.398  0.00  0.00    +0.021 C 
ATOM      2  C   LIG    1       25.697 -27.621  12.292  0.00  0.00    +0.003 C 
ATOM      3  C   LIG    1       24.740 -27.743  13.539  0.00  0.00    -0.026 C 
ATOM      4  C   LIG    1       23.312 -27.422  13.032  0.00  0.00    +0.012 C 
ATOM      5  C   LIG    1       25.072 -26.627  14.597  0.00  0.00    +0.009 C 
ATOM      6  C   LIG    1       25.623 -25.351  13.967  0.00  0.00    +0.032 C 
ATOM      7  C   LIG    1       26.942 -25.628  13.244  0.00  0.00    +0.115 C 
ATOM      8  C   LIG    1       24.917 -29.145  14.268  0.00  0.00    +0.001 C 
ATOM      9  C   LIG    1       25.003 -30.405  13.359  0.00  0.00    +0.025 C 
ATOM     10  C   LIG    1       23.597 -30.878  12.948  0.00  0.00    +0.001 C 
ATOM     11  C   LIG    1       22.664 -31.200  14.140  0.00  0.00    -0.026 C 
ATOM     12  C   LIG    1       23.170 -32.384  15.023  0.00  0.00    +0.012 C 
ATOM     13  C   LIG    1       22.580 -29.965  15.038  0.00  0.00    +0.007 C 
ATOM     14  C   LIG    1       21.371 -31.706  13.398  0.00  0.00    -0.002 C 
ATOM     15  C   LIG    1       21.978 -32.458  12.161  0.00  0.00    +0.004 C 
ATOM     16  C   LIG    1       23.477 -32.124  12.086  0.00  0.00    +0.005 C 
ATOM     17  C   LIG    1       23.947 -29.403  15.449  0.00  0.00    +0.005 C 
ATOM     18  C   LIG    1       27.066 -27.072  12.731  0.00  0.00    +0.035 C 
ATOM     19  C   LIG    1       25.962 -30.201  12.174  0.00  0.00    +0.122 C 
ENDROOT
BRANCH   1  21
ATOM     20  C   LIG    1       26.025 -29.015   8.840  0.00  0.00    +0.004 C 
ATOM     21  C   LIG    1       26.673 -28.738  10.192  0.00  0.00    +0.003 C 
ENDBRANCH   1  21
BRANCH   7  22
ATOM     22  O   LIG    1       28.034 -25.384  14.126  0.00  0.00    -0.392 OA
ATOM     23  H   LIG    1       28.833 -25.752  13.711  0.00  0.00    +0.210 HD
ENDBRANCH   7  22
BRANCH  14  24
ATOM     24  C   LIG    1       20.244 -30.700  12.959  0.00  0.00    -0.010 C 
ATOM     25  C   LIG    1       18.970 -30.762  13.820  0.00  0.00    +0.008 C 
BRANCH  24  26
ATOM     26  C   LIG    1       19.799 -30.908  11.472  0.00  0.00    +0.015 C 
BRANCH  26  27
ATOM     27  C   LIG    1       18.420 -31.550  11.304  0.00  0.00    +0.121 C 
BRANCH  27  28
ATOM     28  C   LIG    1       18.001 -31.604   9.854  0.00  0.00    +0.305 C 
ATOM     29  O   LIG    1       17.936 -32.630   9.203  0.00  0.00    -0.251 OA
BRANCH  28  30
ATOM     30  O   LIG    1       17.713 -30.390   9.331  0.00  0.00    -0.481 OA
ATOM     31  H   LIG    1       18.484 -29.805   9.221  0.00  0.00    +0.295 HD
ENDBRANCH  28  30
ENDBRANCH  27  28
ENDBRANCH  26  27
ENDBRANCH  24  26
ENDBRANCH  14  24
BRANCH  19  32
ATOM     32  O   LIG    1       27.320 -30.278  12.608  0.00  0.00    -0.391 OA
ATOM     33  H   LIG    1       27.674 -31.157  12.404  0.00  0.00    +0.210 HD
ENDBRANCH  19  32
TORSDOF 8
ENDMDL
MODEL 6
REMARK VINA RESULT:      -5.2      2.022      2.740
REMARK  Name = *****
REMARK                            x       y       z     vdW  Elec       q    Type
REMARK                         _______ _______ _______ _____ _____    ______ ____
ROOT
ATOM      1  C   LIG    1       21.605 -28.699  12.494  0.00  0.00    +0.021 C 
ATOM      2  C   LIG    1       20.944 -30.027  12.012  0.00  0.00    +0.003 C 
ATOM      3  C   LIG    1       21.987 -31.104  11.525  0.00  0.00    -0.026 C 
ATOM      4  C   LIG    1       22.350 -30.740  10.064  0.00  0.00    +0.012 C 
ATOM      5  C   LIG    1       21.315 -32.524  11.451  0.00  0.00    +0.009 C 
ATOM      6  C   LIG    1       19.824 -32.465  11.137  0.00  0.00    +0.032 C 
ATOM      7  C   LIG    1       19.067 -31.716  12.235  0.00  0.00    +0.115 C 
ATOM      8  C   LIG    1       23.212 -31.219  12.533  0.00  0.00    +0.001 C 
ATOM      9  C   LIG    1       23.817 -29.885  13.061  0.00  0.00    +0.025 C 
ATOM     10  C   LIG    1       24.806 -29.293  12.041  0.00  0.00    +0.001 C 
ATOM     11  C   LIG    1       25.970 -30.241  11.665  0.00  0.00    -0.026 C 
ATOM     12  C   LIG    1       26.900 -30.590  12.869  0.00  0.00    +0.012 C 
ATOM     13  C   LIG    1       25.380 -31.554  11.149  0.00  0.00    +0.007 C 
ATOM     14  C   LIG    1       26.809 -29.335  10.689  0.00  0.00    -0.002 C 
ATOM     15  C   LIG    1       26.628 -27.913  11.328  0.00  0.00    +0.004 C 
ATOM     16  C   LIG    1       25.528 -28.005  12.398  0.00  0.00    +0.005 C 
ATOM     17  C   LIG    1       24.344 -32.180  12.092  0.00  0.00    +0.005 C 
ATOM     18  C   LIG    1       19.927 -30.673  12.968  0.00  0.00    +0.035 C 
ATOM     19  C   LIG    1       22.731 -28.897  13.520  0.00  0.00    +0.122 C 
ENDROOT
BRANCH   1  21
ATOM     20  C   LIG    1       21.116 -26.306  13.323  0.00  0.00    +0.004 C 
ATOM     21  C   LIG    1       20.545 -27.675  12.970  0.00  0.00    +0.003 C 
ENDBRANCH   1  21
BRANCH   7  22
ATOM     22  O   LIG    1       18.586 -32.643  13.205  0.00  0.00    -0.392 OA
ATOM     23  H   LIG    1       17.777 -33.047  12.847  0.00  0.00    +0.210 HD
ENDBRANCH   7  22
BRANCH  14  24
ATOM     24  C   LIG    1       26.505 -29.311   9.145  0.00  0.00    -0.010 C 
ATOM     25  C   LIG    1       26.582 -27.912   8.507  0.00  0.00    +0.008 C 
BRANCH  24  26
ATOM     26  C   LIG    1       25.092 -29.891   8.802  0.00  0.00    +0.015 C 
BRANCH  26  27
ATOM     27  C   LIG    1       24.393 -29.208   7.624  0.00  0.00    +0.121 C 
BRANCH  27  28
ATOM     28  C   LIG    1       24.360 -30.095   6.402  0.00  0.00    +0.305 C 
ATOM     29  O   LIG    1       25.226 -30.904   6.127  0.00  0.00    -0.251 OA
BRANCH  28  30
ATOM     30  O   LIG    1       23.272 -29.899   5.623  0.00  0.00    -0.481 OA
ATOM     31  H   LIG    1       23.471 -29.766   4.679  0.00  0.00    +0.295 HD
ENDBRANCH  28  30
ENDBRANCH  27  28
ENDBRANCH  26  27
ENDBRANCH  24  26
ENDBRANCH  14  24
BRANCH  19  32
ATOM     32  O   LIG    1       22.196 -29.291  14.784  0.00  0.00    -0.391 OA
ATOM     33  H   LIG    1       22.651 -28.806  15.491  0.00  0.00    +0.210 HD
ENDBRANCH  19  32
TORSDOF 8
ENDMDL
MODEL 7
REMARK VINA RESULT:      -4.8      2.368      2.928
REMARK  Name = *****
REMARK                            x       y       z     vdW  Elec       q    Type
REMARK                         _______ _______ _______ _____ _____    ______ ____
ROOT
ATOM      1  C   LIG    1       21.928 -28.387  12.618  0.00  0.00    +0.021 C 
ATOM      2  C   LIG    1       20.627 -29.236  12.753  0.00  0.00    +0.003 C 
ATOM      3  C   LIG    1       20.771 -30.697  12.178  0.00  0.00    -0.026 C 
ATOM      4  C   LIG    1       20.560 -30.593  10.647  0.00  0.00    +0.012 C 
ATOM      5  C   LIG    1       19.604 -31.611  12.703  0.00  0.00    +0.009 C 
ATOM      6  C   LIG    1       18.316 -30.840  12.972  0.00  0.00    +0.032 C 
ATOM      7  C   LIG    1       18.528 -29.790  14.063  0.00  0.00    +0.115 C 
ATOM      8  C   LIG    1       22.136 -31.368  12.644  0.00  0.00    +0.001 C 
ATOM      9  C   LIG    1       23.416 -30.485  12.571  0.00  0.00    +0.025 C 
ATOM     10  C   LIG    1       23.992 -30.477  11.143  0.00  0.00    +0.001 C 
ATOM     11  C   LIG    1       24.336 -31.881  10.592  0.00  0.00    -0.026 C 
ATOM     12  C   LIG    1       25.456 -32.608  11.399  0.00  0.00    +0.012 C 
ATOM     13  C   LIG    1       23.082 -32.753  10.665  0.00  0.00    +0.007 C 
ATOM     14  C   LIG    1       24.947 -31.524   9.185  0.00  0.00    -0.002 C 
ATOM     15  C   LIG    1       25.696 -30.179   9.488  0.00  0.00    +0.004 C 
ATOM     16  C   LIG    1       25.269 -29.696  10.883  0.00  0.00    +0.005 C 
ATOM     17  C   LIG    1       22.420 -32.771  12.049  0.00  0.00    +0.005 C 
ATOM     18  C   LIG    1       19.977 -29.280  14.146  0.00  0.00    +0.035 C 
ATOM     19  C   LIG    1       23.187 -29.082  13.158  0.00  0.00    +0.122 C 
ENDROOT
BRANCH   1  21
ATOM     20  C   LIG    1       23.047 -26.205  13.420  0.00  0.00    +0.004 C 
ATOM     21  C   LIG    1       21.743 -26.964  13.202  0.00  0.00    +0.003 C 
ENDBRANCH   1  21
BRANCH   7  22
ATOM     22  O   LIG    1       18.188 -30.339  15.333  0.00  0.00    -0.392 OA
ATOM     23  H   LIG    1       17.598 -31.096  15.175  0.00  0.00    +0.210 HD
ENDBRANCH   7  22
BRANCH  14  24
ATOM     24  C   LIG    1       24.030 -31.394   7.913  0.00  0.00    -0.010 C 
ATOM     25  C   LIG    1       23.327 -32.702   7.505  0.00  0.00    +0.008 C 
BRANCH  24  26
ATOM     26  C   LIG    1       24.814 -30.887   6.656  0.00  0.00    +0.015 C 
BRANCH  26  27
ATOM     27  C   LIG    1       26.049 -31.718   6.299  0.00  0.00    +0.121 C 
BRANCH  27  28
ATOM     28  C   LIG    1       25.955 -32.288   4.903  0.00  0.00    +0.305 C 
ATOM     29  O   LIG    1       26.841 -32.926   4.369  0.00  0.00    -0.251 OA
BRANCH  28  30
ATOM     30  O   LIG    1       24.783 -32.010   4.287  0.00  0.00    -0.481 OA
ATOM     31  H   LIG    1       24.088 -32.680   4.421  0.00  0.00    +0.295 HD
ENDBRANCH  28  30
ENDBRANCH  27  28
ENDBRANCH  26  27
ENDBRANCH  24  26
ENDBRANCH  14  24
BRANCH  19  32
ATOM     32  O   LIG    1       23.162 -29.133  14.584  0.00  0.00    -0.391 OA
ATOM     33  H   LIG    1       23.692 -28.403  14.941  0.00  0.00    +0.210 HD
ENDBRANCH  19  32
TORSDOF 8
ENDMDL
MODEL 8
REMARK VINA RESULT:      -4.8      3.150      7.293
REMARK  Name = *****
REMARK                            x       y       z     vdW  Elec       q    Type
REMARK                         _______ _______ _______ _____ _____    ______ ____
ROOT
ATOM      1  C   LIG    1       25.507 -29.164  11.386  0.00  0.00    +0.021 C 
ATOM      2  C   LIG    1       25.582 -27.825  12.181  0.00  0.00    +0.003 C 
ATOM      3  C   LIG    1       24.651 -27.800  13.452  0.00  0.00    -0.026 C 
ATOM      4  C   LIG    1       23.229 -27.440  12.953  0.00  0.00    +0.012 C 
ATOM      5  C   LIG    1       25.068 -26.629  14.416  0.00  0.00    +0.009 C 
ATOM      6  C   LIG    1       25.671 -25.436  13.680  0.00  0.00    +0.032 C 
ATOM      7  C   LIG    1       26.954 -25.838  12.952  0.00  0.00    +0.115 C 
ATOM      8  C   LIG    1       24.770 -29.151  14.282  0.00  0.00    +0.001 C 
ATOM      9  C   LIG    1       24.766 -30.479  13.469  0.00  0.00    +0.025 C 
ATOM     10  C   LIG    1       23.327 -30.903  13.124  0.00  0.00    +0.001 C 
ATOM     11  C   LIG    1       22.408 -31.083  14.357  0.00  0.00    -0.026 C 
ATOM     12  C   LIG    1       22.872 -32.224  15.316  0.00  0.00    +0.012 C 
ATOM     13  C   LIG    1       22.412 -29.782  15.160  0.00  0.00    +0.007 C 
ATOM     14  C   LIG    1       21.072 -31.571  13.682  0.00  0.00    -0.002 C 
ATOM     15  C   LIG    1       21.607 -32.445  12.494  0.00  0.00    +0.004 C 
ATOM     16  C   LIG    1       23.118 -32.201  12.362  0.00  0.00    +0.005 C 
ATOM     17  C   LIG    1       23.818 -29.268  15.499  0.00  0.00    +0.005 C 
ATOM     18  C   LIG    1       26.988 -27.321  12.547  0.00  0.00    +0.035 C 
ATOM     19  C   LIG    1       25.705 -30.417  12.252  0.00  0.00    +0.122 C 
ENDROOT
BRANCH   1  21
ATOM     20  C   LIG    1       25.712 -29.205   8.815  0.00  0.00    +0.004 C 
ATOM     21  C   LIG    1       26.443 -29.146  10.151  0.00  0.00    +0.003 C 
ENDBRANCH   1  21
BRANCH   7  22
ATOM     22  O   LIG    1       28.080 -25.590  13.791  0.00  0.00    -0.392 OA
ATOM     23  H   LIG    1       28.235 -26.394  14.316  0.00  0.00    +0.210 HD
ENDBRANCH   7  22
BRANCH  14  24
ATOM     24  C   LIG    1       19.989 -30.539  13.192  0.00  0.00    -0.010 C 
ATOM     25  C   LIG    1       20.494 -29.555  12.120  0.00  0.00    +0.008 C 
BRANCH  24  26
ATOM     26  C   LIG    1       19.407 -29.678  14.362  0.00  0.00    +0.015 C 
BRANCH  26  27
ATOM     27  C   LIG    1       19.490 -28.165  14.142  0.00  0.00    +0.121 C 
BRANCH  27  28
ATOM     28  C   LIG    1       18.174 -27.485  14.435  0.00  0.00    +0.305 C 
ATOM     29  O   LIG    1       17.096 -28.048  14.406  0.00  0.00    -0.251 OA
BRANCH  28  30
ATOM     30  O   LIG    1       18.301 -26.170  14.727  0.00  0.00    -0.481 OA
ATOM     31  H   LIG    1       18.350 -25.587  13.948  0.00  0.00    +0.295 HD
ENDBRANCH  28  30
ENDBRANCH  27  28
ENDBRANCH  26  27
ENDBRANCH  24  26
ENDBRANCH  14  24
BRANCH  19  32
ATOM     32  O   LIG    1       27.067 -30.536  12.662  0.00  0.00    -0.391 OA
ATOM     33  H   LIG    1       27.196 -30.053  13.493  0.00  0.00    +0.210 HD
ENDBRANCH  19  32
TORSDOF 8
ENDMDL
MODEL 9
REMARK VINA RESULT:      -4.5      2.339      7.224
REMARK  Name = *****
REMARK                            x       y       z     vdW  Elec       q    Type
REMARK                         _______ _______ _______ _____ _____    ______ ____
ROOT
ATOM      1  C   LIG    1       24.770 -32.563   8.329  0.00  0.00    +0.021 C 
ATOM      2  C   LIG    1       24.651 -31.159   7.659  0.00  0.00    +0.003 C 
ATOM      3  C   LIG    1       24.697 -29.968   8.690  0.00  0.00    -0.026 C 
ATOM      4  C   LIG    1       23.266 -29.828   9.268  0.00  0.00    +0.012 C 
ATOM      5  C   LIG    1       24.987 -28.611   7.949  0.00  0.00    +0.009 C 
ATOM      6  C   LIG    1       24.454 -28.585   6.520  0.00  0.00    +0.032 C 
ATOM      7  C   LIG    1       25.127 -29.662   5.669  0.00  0.00    +0.115 C 
ATOM      8  C   LIG    1       25.857 -30.174   9.758  0.00  0.00    +0.001 C 
ATOM      9  C   LIG    1       26.009 -31.599  10.367  0.00  0.00    +0.025 C 
ATOM     10  C   LIG    1       25.010 -31.809  11.519  0.00  0.00    +0.001 C 
ATOM     11  C   LIG    1       25.137 -30.774  12.663  0.00  0.00    -0.026 C 
ATOM     12  C   LIG    1       26.511 -30.828  13.399  0.00  0.00    +0.012 C 
ATOM     13  C   LIG    1       24.991 -29.373  12.069  0.00  0.00    +0.007 C 
ATOM     14  C   LIG    1       24.055 -31.299  13.680  0.00  0.00    -0.002 C 
ATOM     15  C   LIG    1       24.167 -32.854  13.502  0.00  0.00    +0.004 C 
ATOM     16  C   LIG    1       25.035 -33.133  12.264  0.00  0.00    +0.005 C 
ATOM     17  C   LIG    1       25.922 -29.105  10.879  0.00  0.00    +0.005 C 
ATOM     18  C   LIG    1       25.603 -30.876   6.484  0.00  0.00    +0.035 C 
ATOM     19  C   LIG    1       25.959 -32.697   9.291  0.00  0.00    +0.122 C 
ENDROOT
BRANCH   1  21
ATOM     20  C   LIG    1       23.395 -33.825   6.548  0.00  0.00    +0.004 C 
ATOM     21  C   LIG    1       24.728 -33.700   7.279  0.00  0.00    +0.003 C 
ENDBRANCH   1  21
BRANCH   7  22
ATOM     22  O   LIG    1       26.262 -29.112   5.006  0.00  0.00    -0.392 OA
ATOM     23  H   LIG    1       25.963 -28.325   4.519  0.00  0.00    +0.210 HD
ENDBRANCH   7  22
BRANCH  14  24
ATOM     24  C   LIG    1       22.559 -30.819  13.590  0.00  0.00    -0.010 C 
ATOM     25  C   LIG    1       21.930 -30.452  14.946  0.00  0.00    +0.008 C 
BRANCH  24  26
ATOM     26  C   LIG    1       21.624 -31.887  12.928  0.00  0.00    +0.015 C 
BRANCH  26  27
ATOM     27  C   LIG    1       21.247 -31.589  11.474  0.00  0.00    +0.121 C 
BRANCH  27  28
ATOM     28  C   LIG    1       19.812 -31.132  11.352  0.00  0.00    +0.305 C 
ATOM     29  O   LIG    1       18.961 -31.334  12.197  0.00  0.00    -0.251 OA
BRANCH  28  30
ATOM     30  O   LIG    1       19.552 -30.478  10.197  0.00  0.00    -0.481 OA
ATOM     31  H   LIG    1       20.333 -30.071   9.780  0.00  0.00    +0.295 HD
ENDBRANCH  28  30
ENDBRANCH  27  28
ENDBRANCH  26  27
ENDBRANCH  24  26
ENDBRANCH  14  24
BRANCH  19  32
ATOM     32  O   LIG    1       27.189 -32.747   8.568  0.00  0.00    -0.391 OA
ATOM     33  H   LIG    1       27.519 -33.659   8.558  0.00  0.00    +0.210 HD
ENDBRANCH  19  32
TORSDOF 8
ENDMDL
