MODEL 1
REMARK VINA RESULT:      -8.1      0.000      0.000
REMARK  Name = *****
REMARK                            x       y       z     vdW  Elec       q    Type
REMARK                         _______ _______ _______ _____ _____    ______ ____
ROOT
ATOM      1  C   LIG    1       24.308 -20.338   4.459  0.00  0.00    +0.065 C 
ATOM      2  C   LIG    1       25.241 -21.432   4.997  0.00  0.00    +0.098 C 
ATOM      3  C   LIG    1       24.506 -22.563   5.728  0.00  0.00    +0.065 C 
ATOM      4  C   LIG    1       23.229 -22.367   6.159  0.00  0.00    +0.016 C 
ATOM      5  C   LIG    1       22.440 -23.329   7.007  0.00  0.00    +0.061 C 
ATOM      6  N   LIG    1       22.570 -21.203   5.815  0.00  0.00    -0.321 N 
ATOM      7  H   LIG    1       21.613 -21.100   6.143  0.00  0.00    +0.152 HD
ATOM      8  C   LIG    1       23.033 -20.260   4.910  0.00  0.00    +0.016 C 
ATOM      9  C   LIG    1       22.022 -19.211   4.518  0.00  0.00    +0.061 C 
ENDROOT
BRANCH   2  10
ATOM     10  C   LIG    1       26.318 -20.839   5.911  0.00  0.00    -0.004 A 
ATOM     11  C   LIG    1       26.218 -20.672   7.318  0.00  0.00    +0.138 A 
ATOM     12  C   LIG    1       27.314 -20.154   8.132  0.00  0.00    +0.135 A 
ATOM     13  N   LIG    1       26.920 -20.132   9.412  0.00  0.00    -0.049 NA
ATOM     14  O   LIG    1       25.621 -20.603   9.413  0.00  0.00    -0.242 OA
ATOM     15  C   LIG    1       28.550 -19.769   7.589  0.00  0.00    +0.033 A 
ATOM     16  C   LIG    1       28.637 -19.907   6.194  0.00  0.00    +0.003 A 
ATOM     17  N   LIG    1       25.195 -20.935   8.143  0.00  0.00    -0.049 NA
ATOM     18  C   LIG    1       27.576 -20.417   5.396  0.00  0.00    +0.007 A 
ENDBRANCH   2  10
BRANCH   1  19
ATOM     19  C   LIG    1       24.830 -19.426   3.388  0.00  0.00    +0.337 C 
ATOM     20  O   LIG    1       25.096 -19.750   2.238  0.00  0.00    -0.245 OA
BRANCH  19  22
ATOM     21  C   LIG    1       25.967 -17.339   3.269  0.00  0.00    +0.280 C 
ATOM     22  O   LIG    1       25.001 -18.177   3.906  0.00  0.00    -0.465 OA
ENDBRANCH  19  22
ENDBRANCH   1  19
BRANCH   3  23
ATOM     23  C   LIG    1       25.292 -23.824   5.893  0.00  0.00    +0.338 C 
ATOM     24  O   LIG    1       25.935 -24.101   6.900  0.00  0.00    -0.245 OA
BRANCH  23  25
ATOM     25  O   LIG    1       25.173 -24.595   4.795  0.00  0.00    -0.459 OA
BRANCH  25  26
ATOM     26  C   LIG    1       24.976 -26.013   4.935  0.00  0.00    +0.171 C 
ATOM     27  C   LIG    1       24.141 -26.211   6.198  0.00  0.00    +0.051 C 
ATOM     28  C   LIG    1       26.336 -26.679   5.090  0.00  0.00    +0.051 C 
ENDBRANCH  25  26
ENDBRANCH  23  25
ENDBRANCH   3  23
TORSDOF 6
ENDMDL
MODEL 2
REMARK VINA RESULT:      -6.8      1.530      1.994
REMARK  Name = *****
REMARK                            x       y       z     vdW  Elec       q    Type
REMARK                         _______ _______ _______ _____ _____    ______ ____
ROOT
ATOM      1  C   LIG    1       24.459 -20.606   4.646  0.00  0.00    +0.065 C 
ATOM      2  C   LIG    1       25.336 -21.651   5.351  0.00  0.00    +0.098 C 
ATOM      3  C   LIG    1       24.537 -22.803   5.975  0.00  0.00    +0.065 C 
ATOM      4  C   LIG    1       23.201 -22.656   6.190  0.00  0.00    +0.016 C 
ATOM      5  C   LIG    1       22.324 -23.640   6.919  0.00  0.00    +0.061 C 
ATOM      6  N   LIG    1       22.560 -21.526   5.721  0.00  0.00    -0.321 N 
ATOM      7  H   LIG    1       21.559 -21.461   5.888  0.00  0.00    +0.152 HD
ATOM      8  C   LIG    1       23.125 -20.577   4.884  0.00  0.00    +0.016 C 
ATOM      9  C   LIG    1       22.150 -19.578   4.313  0.00  0.00    +0.061 C 
ENDROOT
BRANCH   2  10
ATOM     10  C   LIG    1       26.225 -21.001   6.414  0.00  0.00    -0.004 A 
ATOM     11  C   LIG    1       27.460 -20.340   6.178  0.00  0.00    +0.138 A 
ATOM     12  C   LIG    1       28.223 -19.689   7.240  0.00  0.00    +0.135 A 
ATOM     13  N   LIG    1       29.322 -19.145   6.702  0.00  0.00    -0.049 NA
ATOM     14  O   LIG    1       29.270 -19.449   5.354  0.00  0.00    -0.242 OA
ATOM     15  C   LIG    1       27.803 -19.673   8.580  0.00  0.00    +0.033 A 
ATOM     16  C   LIG    1       26.598 -20.353   8.817  0.00  0.00    +0.003 A 
ATOM     17  N   LIG    1       28.137 -20.171   5.035  0.00  0.00    -0.049 NA
ATOM     18  C   LIG    1       25.847 -20.984   7.786  0.00  0.00    +0.007 A 
ENDBRANCH   2  10
BRANCH   1  19
ATOM     19  C   LIG    1       25.110 -19.687   3.656  0.00  0.00    +0.337 C 
ATOM     20  O   LIG    1       25.512 -20.002   2.543  0.00  0.00    -0.245 OA
BRANCH  19  22
ATOM     21  C   LIG    1       25.894 -17.452   3.423  0.00  0.00    +0.280 C 
ATOM     22  O   LIG    1       25.223 -18.444   4.203  0.00  0.00    -0.465 OA
ENDBRANCH  19  22
ENDBRANCH   1  19
BRANCH   3  23
ATOM     23  C   LIG    1       25.337 -24.027   6.291  0.00  0.00    +0.338 C 
ATOM     24  O   LIG    1       25.972 -24.179   7.329  0.00  0.00    -0.245 OA
BRANCH  23  25
ATOM     25  O   LIG    1       25.239 -24.920   5.287  0.00  0.00    -0.459 OA
BRANCH  25  26
ATOM     26  C   LIG    1       25.531 -26.307   5.534  0.00  0.00    +0.171 C 
ATOM     27  C   LIG    1       25.944 -26.908   4.192  0.00  0.00    +0.051 C 
ATOM     28  C   LIG    1       24.269 -26.984   6.051  0.00  0.00    +0.051 C 
ENDBRANCH  25  26
ENDBRANCH  23  25
ENDBRANCH   3  23
TORSDOF 6
ENDMDL
MODEL 3
REMARK VINA RESULT:      -6.4      2.154      5.086
REMARK  Name = *****
REMARK                            x       y       z     vdW  Elec       q    Type
REMARK                         _______ _______ _______ _____ _____    ______ ____
ROOT
ATOM      1  C   LIG    1       24.701 -20.263   5.196  0.00  0.00    +0.065 C 
ATOM      2  C   LIG    1       25.353 -20.801   6.478  0.00  0.00    +0.098 C 
ATOM      3  C   LIG    1       26.803 -20.339   6.671  0.00  0.00    +0.065 C 
ATOM      4  C   LIG    1       27.498 -19.843   5.610  0.00  0.00    +0.016 C 
ATOM      5  C   LIG    1       28.961 -19.486   5.619  0.00  0.00    +0.061 C 
ATOM      6  N   LIG    1       26.846 -19.638   4.410  0.00  0.00    -0.321 N 
ATOM      7  H   LIG    1       27.396 -19.252   3.646  0.00  0.00    +0.152 HD
ATOM      8  C   LIG    1       25.477 -19.735   4.218  0.00  0.00    +0.016 C 
ATOM      9  C   LIG    1       24.988 -19.222   2.886  0.00  0.00    +0.061 C 
ENDROOT
BRANCH   2  10
ATOM     10  C   LIG    1       25.285 -22.330   6.533  0.00  0.00    -0.004 A 
ATOM     11  C   LIG    1       24.102 -23.108   6.649  0.00  0.00    +0.138 A 
ATOM     12  C   LIG    1       24.113 -24.569   6.634  0.00  0.00    +0.135 A 
ATOM     13  N   LIG    1       22.852 -25.004   6.743  0.00  0.00    -0.049 NA
ATOM     14  O   LIG    1       22.069 -23.869   6.839  0.00  0.00    -0.242 OA
ATOM     15  C   LIG    1       25.293 -25.320   6.515  0.00  0.00    +0.033 A 
ATOM     16  C   LIG    1       26.464 -24.550   6.431  0.00  0.00    +0.003 A 
ATOM     17  N   LIG    1       22.827 -22.717   6.777  0.00  0.00    -0.049 NA
ATOM     18  C   LIG    1       26.460 -23.128   6.438  0.00  0.00    +0.007 A 
ENDBRANCH   2  10
BRANCH   1  19
ATOM     19  C   LIG    1       23.204 -20.281   5.101  0.00  0.00    +0.337 C 
ATOM     20  O   LIG    1       22.530 -21.163   4.584  0.00  0.00    -0.245 OA
BRANCH  19  22
ATOM     21  C   LIG    1       22.135 -18.185   4.749  0.00  0.00    +0.280 C 
ATOM     22  O   LIG    1       22.706 -19.137   5.648  0.00  0.00    -0.465 OA
ENDBRANCH  19  22
ENDBRANCH   1  19
BRANCH   3  23
ATOM     23  C   LIG    1       27.329 -20.476   8.064  0.00  0.00    +0.338 C 
ATOM     24  O   LIG    1       26.680 -20.204   9.069  0.00  0.00    -0.245 OA
BRANCH  23  25
ATOM     25  O   LIG    1       28.591 -20.947   8.043  0.00  0.00    -0.459 OA
BRANCH  25  26
ATOM     26  C   LIG    1       29.569 -20.411   8.950  0.00  0.00    +0.171 C 
ATOM     27  C   LIG    1       29.803 -18.962   8.529  0.00  0.00    +0.051 C 
ATOM     28  C   LIG    1       30.854 -21.216   8.809  0.00  0.00    +0.051 C 
ENDBRANCH  25  26
ENDBRANCH  23  25
ENDBRANCH   3  23
TORSDOF 6
ENDMDL
MODEL 4
REMARK VINA RESULT:      -6.3      9.238     11.502
REMARK  Name = *****
REMARK                            x       y       z     vdW  Elec       q    Type
REMARK                         _______ _______ _______ _____ _____    ______ ____
ROOT
ATOM      1  C   LIG    1       22.327 -31.305  11.852  0.00  0.00    +0.065 C 
ATOM      2  C   LIG    1       23.429 -30.359  12.351  0.00  0.00    +0.098 C 
ATOM      3  C   LIG    1       22.895 -29.026  12.894  0.00  0.00    +0.065 C 
ATOM      4  C   LIG    1       21.631 -28.629  12.579  0.00  0.00    +0.016 C 
ATOM      5  C   LIG    1       21.030 -27.291  12.920  0.00  0.00    +0.061 C 
ATOM      6  N   LIG    1       20.803 -29.492  11.888  0.00  0.00    -0.321 N 
ATOM      7  H   LIG    1       19.862 -29.165  11.685  0.00  0.00    +0.152 HD
ATOM      8  C   LIG    1       21.082 -30.823  11.620  0.00  0.00    +0.016 C 
ATOM      9  C   LIG    1       19.918 -31.615  11.076  0.00  0.00    +0.061 C 
ENDROOT
BRANCH   2  10
ATOM     10  C   LIG    1       24.468 -30.094  11.258  0.00  0.00    -0.004 A 
ATOM     11  C   LIG    1       25.878 -30.110  11.427  0.00  0.00    +0.138 A 
ATOM     12  C   LIG    1       26.809 -29.907  10.320  0.00  0.00    +0.135 A 
ATOM     13  N   LIG    1       28.058 -29.996  10.793  0.00  0.00    -0.049 NA
ATOM     14  O   LIG    1       27.931 -30.232  12.149  0.00  0.00    -0.242 OA
ATOM     15  C   LIG    1       26.385 -29.670   9.003  0.00  0.00    +0.033 A 
ATOM     16  C   LIG    1       24.991 -29.624   8.843  0.00  0.00    +0.003 A 
ATOM     17  N   LIG    1       26.608 -30.305  12.534  0.00  0.00    -0.049 NA
ATOM     18  C   LIG    1       24.079 -29.827   9.915  0.00  0.00    +0.007 A 
ENDBRANCH   2  10
BRANCH   1  19
ATOM     19  C   LIG    1       22.658 -32.760  11.700  0.00  0.00    +0.337 C 
ATOM     20  O   LIG    1       22.732 -33.575  12.611  0.00  0.00    -0.245 OA
BRANCH  19  22
ATOM     21  C   LIG    1       24.172 -33.609  10.073  0.00  0.00    +0.280 C 
ATOM     22  O   LIG    1       22.903 -33.031  10.388  0.00  0.00    -0.465 OA
ENDBRANCH  19  22
ENDBRANCH   1  19
BRANCH   3  23
ATOM     23  C   LIG    1       23.852 -28.268  13.758  0.00  0.00    +0.338 C 
ATOM     24  O   LIG    1       24.141 -28.594  14.905  0.00  0.00    -0.245 OA
BRANCH  23  25
ATOM     25  O   LIG    1       24.345 -27.208  13.090  0.00  0.00    -0.459 OA
BRANCH  25  26
ATOM     26  C   LIG    1       25.526 -26.544  13.574  0.00  0.00    +0.171 C 
ATOM     27  C   LIG    1       25.154 -25.074  13.754  0.00  0.00    +0.051 C 
ATOM     28  C   LIG    1       26.625 -26.688  12.530  0.00  0.00    +0.051 C 
ENDBRANCH  25  26
ENDBRANCH  23  25
ENDBRANCH   3  23
TORSDOF 6
ENDMDL
MODEL 5
REMARK VINA RESULT:      -5.9      9.152     11.638
REMARK  Name = *****
REMARK                            x       y       z     vdW  Elec       q    Type
REMARK                         _______ _______ _______ _____ _____    ______ ____
ROOT
ATOM      1  C   LIG    1       23.789 -30.456  11.794  0.00  0.00    +0.065 C 
ATOM      2  C   LIG    1       25.251 -30.517  11.331  0.00  0.00    +0.098 C 
ATOM      3  C   LIG    1       26.114 -29.365  11.863  0.00  0.00    +0.065 C 
ATOM      4  C   LIG    1       25.513 -28.244  12.350  0.00  0.00    +0.016 C 
ATOM      5  C   LIG    1       26.227 -26.987  12.770  0.00  0.00    +0.061 C 
ATOM      6  N   LIG    1       24.138 -28.217  12.482  0.00  0.00    -0.321 N 
ATOM      7  H   LIG    1       23.728 -27.368  12.864  0.00  0.00    +0.152 HD
ATOM      8  C   LIG    1       23.298 -29.307  12.319  0.00  0.00    +0.016 C 
ATOM      9  C   LIG    1       21.874 -29.079  12.762  0.00  0.00    +0.061 C 
ENDROOT
BRANCH   2  10
ATOM     10  C   LIG    1       25.346 -30.574   9.804  0.00  0.00    -0.004 A 
ATOM     11  C   LIG    1       26.138 -31.482   9.050  0.00  0.00    +0.138 A 
ATOM     12  C   LIG    1       26.129 -31.514   7.590  0.00  0.00    +0.135 A 
ATOM     13  N   LIG    1       26.958 -32.482   7.181  0.00  0.00    -0.049 NA
ATOM     14  O   LIG    1       27.485 -33.036   8.333  0.00  0.00    -0.242 OA
ATOM     15  C   LIG    1       25.347 -30.643   6.814  0.00  0.00    +0.033 A 
ATOM     16  C   LIG    1       24.589 -29.726   7.560  0.00  0.00    +0.003 A 
ATOM     17  N   LIG    1       26.985 -32.432   9.468  0.00  0.00    -0.049 NA
ATOM     18  C   LIG    1       24.588 -29.694   8.982  0.00  0.00    +0.007 A 
ENDBRANCH   2  10
BRANCH   1  19
ATOM     19  C   LIG    1       22.965 -31.706  11.707  0.00  0.00    +0.337 C 
ATOM     20  O   LIG    1       22.939 -32.605  12.538  0.00  0.00    -0.245 OA
BRANCH  19  22
ATOM     21  C   LIG    1       20.872 -31.985  10.610  0.00  0.00    +0.280 C 
ATOM     22  O   LIG    1       22.272 -31.708  10.534  0.00  0.00    -0.465 OA
ENDBRANCH  19  22
ENDBRANCH   1  19
BRANCH   3  23
ATOM     23  C   LIG    1       27.589 -29.599  11.800  0.00  0.00    +0.338 C 
ATOM     24  O   LIG    1       28.295 -29.256  10.857  0.00  0.00    -0.245 OA
BRANCH  23  25
ATOM     25  O   LIG    1       28.012 -30.217  12.920  0.00  0.00    -0.459 OA
BRANCH  25  26
ATOM     26  C   LIG    1       28.621 -29.449  13.972  0.00  0.00    +0.171 C 
ATOM     27  C   LIG    1       30.125 -29.694  13.873  0.00  0.00    +0.051 C 
ATOM     28  C   LIG    1       28.090 -29.950  15.308  0.00  0.00    +0.051 C 
ENDBRANCH  25  26
ENDBRANCH  23  25
ENDBRANCH   3  23
TORSDOF 6
ENDMDL
MODEL 6
REMARK VINA RESULT:      -5.9      9.015     11.816
REMARK  Name = *****
REMARK                            x       y       z     vdW  Elec       q    Type
REMARK                         _______ _______ _______ _____ _____    ______ ____
ROOT
ATOM      1  C   LIG    1       24.924 -29.480  10.986  0.00  0.00    +0.065 C 
ATOM      2  C   LIG    1       24.431 -29.229  12.418  0.00  0.00    +0.098 C 
ATOM      3  C   LIG    1       25.005 -27.955  13.052  0.00  0.00    +0.065 C 
ATOM      4  C   LIG    1       26.113 -27.375  12.512  0.00  0.00    +0.016 C 
ATOM      5  C   LIG    1       26.864 -26.212  13.107  0.00  0.00    +0.061 C 
ATOM      6  N   LIG    1       26.623 -27.865  11.325  0.00  0.00    -0.321 N 
ATOM      7  H   LIG    1       27.442 -27.396  10.947  0.00  0.00    +0.152 HD
ATOM      8  C   LIG    1       26.006 -28.810  10.520  0.00  0.00    +0.016 C 
ATOM      9  C   LIG    1       26.638 -28.992   9.163  0.00  0.00    +0.061 C 
ENDROOT
BRANCH   2  10
ATOM     10  C   LIG    1       24.720 -30.431  13.321  0.00  0.00    -0.004 A 
ATOM     11  C   LIG    1       26.003 -30.854  13.762  0.00  0.00    +0.138 A 
ATOM     12  C   LIG    1       26.194 -31.978  14.675  0.00  0.00    +0.135 A 
ATOM     13  N   LIG    1       27.504 -32.115  14.913  0.00  0.00    -0.049 NA
ATOM     14  O   LIG    1       28.125 -31.128  14.171  0.00  0.00    -0.242 OA
ATOM     15  C   LIG    1       25.127 -32.738  15.181  0.00  0.00    +0.033 A 
ATOM     16  C   LIG    1       23.862 -32.338  14.720  0.00  0.00    +0.003 A 
ATOM     17  N   LIG    1       27.215 -30.359  13.476  0.00  0.00    -0.049 NA
ATOM     18  C   LIG    1       23.669 -31.240  13.837  0.00  0.00    +0.007 A 
ENDBRANCH   2  10
BRANCH   1  19
ATOM     19  C   LIG    1       24.139 -30.421  10.121  0.00  0.00    +0.337 C 
ATOM     20  O   LIG    1       23.143 -30.132   9.470  0.00  0.00    -0.245 OA
BRANCH  19  22
ATOM     21  C   LIG    1       24.963 -32.332   8.968  0.00  0.00    +0.280 C 
ATOM     22  O   LIG    1       24.685 -31.666  10.202  0.00  0.00    -0.465 OA
ENDBRANCH  19  22
ENDBRANCH   1  19
BRANCH   3  23
ATOM     23  C   LIG    1       24.255 -27.449  14.242  0.00  0.00    +0.338 C 
ATOM     24  O   LIG    1       24.626 -27.608  15.401  0.00  0.00    -0.245 OA
BRANCH  23  25
ATOM     25  O   LIG    1       23.145 -26.793  13.851  0.00  0.00    -0.459 OA
BRANCH  25  26
ATOM     26  C   LIG    1       21.850 -27.301  14.216  0.00  0.00    +0.171 C 
ATOM     27  C   LIG    1       20.975 -27.191  12.969  0.00  0.00    +0.051 C 
ATOM     28  C   LIG    1       21.287 -26.436  15.335  0.00  0.00    +0.051 C 
ENDBRANCH  25  26
ENDBRANCH  23  25
ENDBRANCH   3  23
TORSDOF 6
ENDMDL
MODEL 7
REMARK VINA RESULT:      -5.7      9.533     11.719
REMARK  Name = *****
REMARK                            x       y       z     vdW  Elec       q    Type
REMARK                         _______ _______ _______ _____ _____    ______ ____
ROOT
ATOM      1  C   LIG    1       22.303 -28.663  13.417  0.00  0.00    +0.065 C 
ATOM      2  C   LIG    1       23.758 -29.134  13.546  0.00  0.00    +0.098 C 
ATOM      3  C   LIG    1       24.749 -27.998  13.831  0.00  0.00    +0.065 C 
ATOM      4  C   LIG    1       24.381 -26.709  13.592  0.00  0.00    +0.016 C 
ATOM      5  C   LIG    1       25.291 -25.512  13.690  0.00  0.00    +0.061 C 
ATOM      6  N   LIG    1       23.078 -26.434  13.226  0.00  0.00    -0.321 N 
ATOM      7  H   LIG    1       22.839 -25.457  13.071  0.00  0.00    +0.152 HD
ATOM      8  C   LIG    1       22.035 -27.347  13.237  0.00  0.00    +0.016 C 
ATOM      9  C   LIG    1       20.667 -26.745  13.037  0.00  0.00    +0.061 C 
ENDROOT
BRANCH   2  10
ATOM     10  C   LIG    1       24.202 -29.908  12.302  0.00  0.00    -0.004 A 
ATOM     11  C   LIG    1       24.801 -31.196  12.291  0.00  0.00    +0.138 A 
ATOM     12  C   LIG    1       25.142 -31.898  11.056  0.00  0.00    +0.135 A 
ATOM     13  N   LIG    1       25.671 -33.086  11.375  0.00  0.00    -0.049 NA
ATOM     14  O   LIG    1       25.681 -33.135  12.756  0.00  0.00    -0.242 OA
ATOM     15  C   LIG    1       24.915 -31.353   9.782  0.00  0.00    +0.033 A 
ATOM     16  C   LIG    1       24.351 -30.067   9.795  0.00  0.00    +0.003 A 
ATOM     17  N   LIG    1       25.149 -31.990  13.313  0.00  0.00    -0.049 NA
ATOM     18  C   LIG    1       24.011 -29.381  10.994  0.00  0.00    +0.007 A 
ENDBRANCH   2  10
BRANCH   1  19
ATOM     19  C   LIG    1       21.212 -29.683  13.563  0.00  0.00    +0.337 C 
ATOM     20  O   LIG    1       20.739 -30.078  14.620  0.00  0.00    -0.245 OA
BRANCH  19  22
ATOM     21  C   LIG    1       20.934 -31.545  12.107  0.00  0.00    +0.280 C 
ATOM     22  O   LIG    1       20.852 -30.135  12.329  0.00  0.00    -0.465 OA
ENDBRANCH  19  22
ENDBRANCH   1  19
BRANCH   3  23
ATOM     23  C   LIG    1       26.072 -28.435  14.374  0.00  0.00    +0.338 C 
ATOM     24  O   LIG    1       26.230 -28.895  15.500  0.00  0.00    -0.245 OA
BRANCH  23  25
ATOM     25  O   LIG    1       27.036 -28.263  13.449  0.00  0.00    -0.459 OA
BRANCH  25  26
ATOM     26  C   LIG    1       27.712 -29.408  12.900  0.00  0.00    +0.171 C 
ATOM     27  C   LIG    1       29.108 -29.426  13.519  0.00  0.00    +0.051 C 
ATOM     28  C   LIG    1       27.806 -29.237  11.390  0.00  0.00    +0.051 C 
ENDBRANCH  25  26
ENDBRANCH  23  25
ENDBRANCH   3  23
TORSDOF 6
ENDMDL
MODEL 8
REMARK VINA RESULT:      -5.7      8.601     11.813
REMARK  Name = *****
REMARK                            x       y       z     vdW  Elec       q    Type
REMARK                         _______ _______ _______ _____ _____    ______ ____
ROOT
ATOM      1  C   LIG    1       25.812 -30.134  12.707  0.00  0.00    +0.065 C 
ATOM      2  C   LIG    1       24.788 -30.411  11.598  0.00  0.00    +0.098 C 
ATOM      3  C   LIG    1       25.201 -29.859  10.227  0.00  0.00    +0.065 C 
ATOM      4  C   LIG    1       26.174 -28.909  10.150  0.00  0.00    +0.016 C 
ATOM      5  C   LIG    1       26.579 -28.179   8.897  0.00  0.00    +0.061 C 
ATOM      6  N   LIG    1       26.865 -28.554  11.292  0.00  0.00    -0.321 N 
ATOM      7  H   LIG    1       27.594 -27.852  11.191  0.00  0.00    +0.152 HD
ATOM      8  C   LIG    1       26.780 -29.205  12.513  0.00  0.00    +0.016 C 
ATOM      9  C   LIG    1       27.815 -28.786  13.526  0.00  0.00    +0.061 C 
ENDROOT
BRANCH   2  10
ATOM     10  C   LIG    1       23.404 -29.874  11.976  0.00  0.00    -0.004 A 
ATOM     11  C   LIG    1       22.183 -30.598  11.912  0.00  0.00    +0.138 A 
ATOM     12  C   LIG    1       20.908 -30.036  12.348  0.00  0.00    +0.135 A 
ATOM     13  N   LIG    1       19.955 -30.961  12.180  0.00  0.00    -0.049 NA
ATOM     14  O   LIG    1       20.593 -32.064  11.644  0.00  0.00    -0.242 OA
ATOM     15  C   LIG    1       20.785 -28.732  12.856  0.00  0.00    +0.033 A 
ATOM     16  C   LIG    1       21.987 -28.008  12.891  0.00  0.00    +0.003 A 
ATOM     17  N   LIG    1       21.947 -31.846  11.485  0.00  0.00    -0.049 NA
ATOM     18  C   LIG    1       23.233 -28.552  12.473  0.00  0.00    +0.007 A 
ENDBRANCH   2  10
BRANCH   1  19
ATOM     19  C   LIG    1       25.743 -30.961  13.957  0.00  0.00    +0.337 C 
ATOM     20  O   LIG    1       25.178 -30.643  14.995  0.00  0.00    -0.245 OA
BRANCH  19  22
ATOM     21  C   LIG    1       25.699 -33.333  13.778  0.00  0.00    +0.280 C 
ATOM     22  O   LIG    1       26.445 -32.114  13.772  0.00  0.00    -0.465 OA
ENDBRANCH  19  22
ENDBRANCH   1  19
BRANCH   3  23
ATOM     23  C   LIG    1       24.473 -30.450   9.063  0.00  0.00    +0.338 C 
ATOM     24  O   LIG    1       23.534 -29.902   8.495  0.00  0.00    -0.245 OA
BRANCH  23  25
ATOM     25  O   LIG    1       25.008 -31.641   8.733  0.00  0.00    -0.459 OA
BRANCH  25  26
ATOM     26  C   LIG    1       26.260 -31.692   8.027  0.00  0.00    +0.171 C 
ATOM     27  C   LIG    1       25.918 -31.764   6.541  0.00  0.00    +0.051 C 
ATOM     28  C   LIG    1       27.011 -32.944   8.458  0.00  0.00    +0.051 C 
ENDBRANCH  25  26
ENDBRANCH  23  25
ENDBRANCH   3  23
TORSDOF 6
ENDMDL
MODEL 9
REMARK VINA RESULT:      -5.5      2.267      5.247
REMARK  Name = *****
REMARK                            x       y       z     vdW  Elec       q    Type
REMARK                         _______ _______ _______ _____ _____    ______ ____
ROOT
ATOM      1  C   LIG    1       24.542 -20.434   5.404  0.00  0.00    +0.065 C 
ATOM      2  C   LIG    1       25.353 -20.917   6.615  0.00  0.00    +0.098 C 
ATOM      3  C   LIG    1       26.782 -20.360   6.659  0.00  0.00    +0.065 C 
ATOM      4  C   LIG    1       27.333 -19.831   5.533  0.00  0.00    +0.016 C 
ATOM      5  C   LIG    1       28.764 -19.381   5.393  0.00  0.00    +0.061 C 
ATOM      6  N   LIG    1       26.552 -19.680   4.403  0.00  0.00    -0.321 N 
ATOM      7  H   LIG    1       26.996 -19.267   3.587  0.00  0.00    +0.152 HD
ATOM      8  C   LIG    1       25.179 -19.867   4.351  0.00  0.00    +0.016 C 
ATOM      9  C   LIG    1       24.527 -19.399   3.074  0.00  0.00    +0.061 C 
ENDROOT
BRANCH   2  10
ATOM     10  C   LIG    1       25.390 -22.446   6.682  0.00  0.00    -0.004 A 
ATOM     11  C   LIG    1       25.148 -23.334   5.599  0.00  0.00    +0.138 A 
ATOM     12  C   LIG    1       25.262 -24.784   5.727  0.00  0.00    +0.135 A 
ATOM     13  N   LIG    1       24.992 -25.338   4.539  0.00  0.00    -0.049 NA
ATOM     14  O   LIG    1       24.704 -24.286   3.690  0.00  0.00    -0.242 OA
ATOM     15  C   LIG    1       25.608 -25.418   6.931  0.00  0.00    +0.033 A 
ATOM     16  C   LIG    1       25.817 -24.541   8.008  0.00  0.00    +0.003 A 
ATOM     17  N   LIG    1       24.802 -23.068   4.333  0.00  0.00    -0.049 NA
ATOM     18  C   LIG    1       25.714 -23.127   7.888  0.00  0.00    +0.007 A 
ENDBRANCH   2  10
BRANCH   1  19
ATOM     19  C   LIG    1       23.047 -20.549   5.461  0.00  0.00    +0.337 C 
ATOM     20  O   LIG    1       22.401 -21.573   5.283  0.00  0.00    -0.245 OA
BRANCH  19  22
ATOM     21  C   LIG    1       21.899 -18.650   4.600  0.00  0.00    +0.280 C 
ATOM     22  O   LIG    1       22.511 -19.320   5.704  0.00  0.00    -0.465 OA
ENDBRANCH  19  22
ENDBRANCH   1  19
BRANCH   3  23
ATOM     23  C   LIG    1       27.453 -20.450   7.993  0.00  0.00    +0.338 C 
ATOM     24  O   LIG    1       26.910 -20.151   9.052  0.00  0.00    -0.245 OA
BRANCH  23  25
ATOM     25  O   LIG    1       28.710 -20.913   7.853  0.00  0.00    -0.459 OA
BRANCH  25  26
ATOM     26  C   LIG    1       29.716 -20.552   8.815  0.00  0.00    +0.171 C 
ATOM     27  C   LIG    1       30.261 -19.192   8.382  0.00  0.00    +0.051 C 
ATOM     28  C   LIG    1       30.820 -21.600   8.779  0.00  0.00    +0.051 C 
ENDBRANCH  25  26
ENDBRANCH  23  25
ENDBRANCH   3  23
TORSDOF 6
ENDMDL
