MODEL 1
REMARK VINA RESULT:      -2.5      0.000      0.000
REMARK  Name = *****
REMARK                            x       y       z     vdW  Elec       q    Type
REMARK                         _______ _______ _______ _____ _____    ______ ____
ROOT
ATOM      1  C   UNK A  0       25.245 -19.517   3.617  0.00  0.00    +0.112 C 
ATOM      2  C   UNK A  0       23.740 -19.477   3.290  0.00  0.00    +0.101 C 
ATOM      3  N   UNK A  0       22.931 -18.407   3.944  0.00  0.00    -0.297 NA
ATOM      4  C   UNK A  0       21.864 -18.009   3.016  0.00  0.00    +0.105 C 
ATOM      5  C   UNK A  0       23.748 -17.242   4.429  0.00  0.00    +0.091 C 
ATOM      6  C   UNK A  0       25.081 -17.047   3.657  0.00  0.00    -0.025 C 
ATOM      7  C   UNK A  0       25.539 -15.688   3.313  0.00  0.00    -0.011 C 
ATOM      8  C   UNK A  0       24.717 -14.651   3.773  0.00  0.00    +0.010 C 
ATOM      9  C   UNK A  0       25.009 -13.321   3.506  0.00  0.00    +0.047 C 
ATOM     10  N   UNK A  0       24.014 -12.575   4.101  0.00  0.00    -0.360 NA
ATOM     11  H   UNK A  0       23.959 -11.568   4.075  0.00  0.00    +0.165 HD
ATOM     12  C   UNK A  0       23.106 -13.402   4.719  0.00  0.00    +0.087 C 
ATOM     13  C   UNK A  0       26.126 -12.946   2.759  0.00  0.00    +0.026 C 
ATOM     14  C   UNK A  0       26.948 -13.978   2.291  0.00  0.00    +0.003 C 
ATOM     15  C   UNK A  0       23.522 -14.700   4.519  0.00  0.00    -0.020 C 
ATOM     16  C   UNK A  0       26.665 -15.324   2.561  0.00  0.00    +0.009 C 
ATOM     17  C   UNK A  0       22.926 -15.990   4.933  0.00  0.00    +0.060 C 
ATOM     18  C   UNK A  0       25.822 -18.144   3.393  0.00  0.00    -0.007 C 
ENDROOT
BRANCH   1  21
ATOM     19  N   ALA A  1       26.801 -19.674   5.531  0.00  0.00    -0.310 N 
ATOM     20  H   ALA A  1       27.359 -19.020   4.984  0.00  0.00    +0.149 HD
ATOM     21  C   UNK A  0       25.608 -20.089   4.997  0.00  0.00    +0.221 C 
ATOM     22  O   UNK A  0       24.891 -20.918   5.572  0.00  0.00    -0.275 OA
BRANCH  19  24
ATOM     23  CB  ALA A  1       26.812 -21.571   7.055  0.00  0.00    +0.030 C 
ATOM     24  CA  ALA A  1       27.370 -20.174   6.779  0.00  0.00    +0.095 C 
BRANCH  24  25
ATOM     25  C   ALA A  1       28.911 -20.234   6.734  0.00  0.00    +0.177 C 
BRANCH  25  26
ATOM     26  O   ALA A  1       29.449 -21.514   7.047  0.00  0.00    -0.393 OA
ATOM     27  H   ALA A  1       30.014 -21.806   6.300  0.00  0.00    +0.209 HD
ENDBRANCH  25  26
ENDBRANCH  24  25
ENDBRANCH  19  24
ENDBRANCH   1  21
TORSDOF 4
ENDMDL
MODEL 2
REMARK VINA RESULT:       0.3      1.408      2.115
REMARK  Name = *****
REMARK                            x       y       z     vdW  Elec       q    Type
REMARK                         _______ _______ _______ _____ _____    ______ ____
ROOT
ATOM      1  C   UNK A  0       25.059 -18.978   3.144  0.00  0.00    +0.112 C 
ATOM      2  C   UNK A  0       23.528 -18.888   2.997  0.00  0.00    +0.101 C 
ATOM      3  N   UNK A  0       22.816 -17.922   3.884  0.00  0.00    -0.297 NA
ATOM      4  C   UNK A  0       21.660 -17.392   3.148  0.00  0.00    +0.105 C 
ATOM      5  C   UNK A  0       23.702 -16.842   4.437  0.00  0.00    +0.091 C 
ATOM      6  C   UNK A  0       24.945 -16.539   3.556  0.00  0.00    -0.025 C 
ATOM      7  C   UNK A  0       25.386 -15.145   3.362  0.00  0.00    -0.011 C 
ATOM      8  C   UNK A  0       24.639 -14.185   4.056  0.00  0.00    +0.010 C 
ATOM      9  C   UNK A  0       24.924 -12.830   3.952  0.00  0.00    +0.047 C 
ATOM     10  N   UNK A  0       24.014 -12.177   4.755  0.00  0.00    -0.360 NA
ATOM     11  H   UNK A  0       23.975 -11.176   4.880  0.00  0.00    +0.165 HD
ATOM     12  C   UNK A  0       23.165 -13.083   5.346  0.00  0.00    +0.087 C 
ATOM     13  C   UNK A  0       25.958 -12.354   3.146  0.00  0.00    +0.026 C 
ATOM     14  C   UNK A  0       26.705 -13.309   2.445  0.00  0.00    +0.003 C 
ATOM     15  C   UNK A  0       23.533 -14.339   4.916  0.00  0.00    -0.020 C 
ATOM     16  C   UNK A  0       26.429 -14.678   2.549  0.00  0.00    +0.009 C 
ATOM     17  C   UNK A  0       22.964 -15.675   5.204  0.00  0.00    +0.060 C 
ATOM     18  C   UNK A  0       25.633 -17.588   3.056  0.00  0.00    -0.007 C 
ENDROOT
BRANCH   1  21
ATOM     19  N   ALA A  1       24.660 -20.581   4.982  0.00  0.00    -0.310 N 
ATOM     20  H   ALA A  1       23.728 -20.639   4.576  0.00  0.00    +0.149 HD
ATOM     21  C   UNK A  0       25.562 -19.744   4.377  0.00  0.00    +0.221 C 
ATOM     22  O   UNK A  0       26.701 -19.576   4.833  0.00  0.00    -0.275 OA
BRANCH  19  24
ATOM     23  CB  ALA A  1       25.967 -20.574   7.035  0.00  0.00    +0.030 C 
ATOM     24  CA  ALA A  1       24.911 -21.318   6.217  0.00  0.00    +0.095 C 
BRANCH  24  25
ATOM     25  C   ALA A  1       23.632 -21.493   7.061  0.00  0.00    +0.177 C 
BRANCH  25  26
ATOM     26  O   ALA A  1       22.432 -21.507   6.295  0.00  0.00    -0.393 OA
ATOM     27  H   ALA A  1       21.850 -20.784   6.613  0.00  0.00    +0.209 HD
ENDBRANCH  25  26
ENDBRANCH  24  25
ENDBRANCH  19  24
ENDBRANCH   1  21
TORSDOF 4
ENDMDL
