MODEL 1
REMARK VINA RESULT:      -4.9      0.000      0.000
REMARK  Name = *****
REMARK                            x       y       z     vdW  Elec       q    Type
REMARK                         _______ _______ _______ _____ _____    ______ ____
ROOT
ATOM      1  C   LIG    1       24.328 -15.101   4.069  0.00  0.00    +0.211 C 
ATOM      2  O   LIG    1       23.398 -14.547   4.655  0.00  0.00    -0.285 OA
ENDROOT
BRANCH   1   3
ATOM      3  C   LIG    1       25.473 -14.282   3.563  0.00  0.00    +0.110 C 
ATOM      4  C   LIG    1       25.564 -13.266   2.668  0.00  0.00    +0.044 C 
ATOM      5  C   LIG    1       24.579 -12.565   1.812  0.00  0.00    +0.065 C 
ATOM      6  N   LIG    1       26.877 -12.853   2.622  0.00  0.00    -0.310 N 
ATOM      7  H   LIG    1       27.262 -12.115   2.050  0.00  0.00    +0.170 HD
ATOM      8  C   LIG    1       27.660 -13.616   3.497  0.00  0.00    +0.325 C 
ATOM      9  O   LIG    1       28.849 -13.525   3.690  0.00  0.00    -0.247 OA
ATOM     10  N   LIG    1       26.739 -14.503   4.069  0.00  0.00    -0.303 N 
ATOM     11  H   LIG    1       26.997 -15.201   4.758  0.00  0.00    +0.171 HD
ENDBRANCH   1   3
BRANCH   1  15
ATOM     12  C   LIG    1       24.148 -19.399   3.729  0.00  0.00    +0.008 A 
ATOM     13  C   LIG    1       25.297 -18.714   3.330  0.00  0.00    +0.015 A 
ATOM     14  C   LIG    1       25.382 -17.324   3.473  0.00  0.00    +0.013 A 
ATOM     15  C   LIG    1       24.276 -16.580   3.893  0.00  0.00    +0.024 A 
ATOM     16  C   LIG    1       23.107 -17.265   4.254  0.00  0.00    +0.013 A 
ATOM     17  C   LIG    1       23.048 -18.666   4.182  0.00  0.00    +0.015 A 
BRANCH  12  19
ATOM     18  C   LIG    1       24.686 -21.529   5.388  0.00  0.00    +0.090 C 
ATOM     19  S   LIG    1       24.094 -21.180   3.703  0.00  0.00    -0.129 S 
ENDBRANCH  12  19
ENDBRANCH   1  15
TORSDOF 3
ENDMDL
MODEL 2
REMARK VINA RESULT:      -4.9      4.076      6.559
REMARK  Name = *****
REMARK                            x       y       z     vdW  Elec       q    Type
REMARK                         _______ _______ _______ _____ _____    ______ ____
ROOT
ATOM      1  C   LIG    1       24.852 -19.404   3.763  0.00  0.00    +0.211 C 
ATOM      2  O   LIG    1       24.537 -20.033   2.752  0.00  0.00    -0.285 OA
ENDROOT
BRANCH   1   3
ATOM      3  C   LIG    1       25.210 -20.146   5.011  0.00  0.00    +0.110 C 
ATOM      4  C   LIG    1       24.473 -20.693   6.012  0.00  0.00    +0.044 C 
ATOM      5  C   LIG    1       23.020 -20.766   6.290  0.00  0.00    +0.065 C 
ATOM      6  N   LIG    1       25.336 -21.300   6.896  0.00  0.00    -0.310 N 
ATOM      7  H   LIG    1       25.091 -21.793   7.743  0.00  0.00    +0.170 HD
ATOM      8  C   LIG    1       26.662 -21.142   6.473  0.00  0.00    +0.325 C 
ATOM      9  O   LIG    1       27.662 -21.538   7.022  0.00  0.00    -0.247 OA
ATOM     10  N   LIG    1       26.538 -20.411   5.284  0.00  0.00    -0.303 N 
ATOM     11  H   LIG    1       27.334 -20.129   4.722  0.00  0.00    +0.171 HD
ENDBRANCH   1   3
BRANCH   1  15
ATOM     12  C   LIG    1       25.023 -15.093   3.692  0.00  0.00    +0.008 A 
ATOM     13  C   LIG    1       23.833 -15.740   4.031  0.00  0.00    +0.015 A 
ATOM     14  C   LIG    1       23.777 -17.137   4.096  0.00  0.00    +0.013 A 
ATOM     15  C   LIG    1       24.866 -17.916   3.698  0.00  0.00    +0.024 A 
ATOM     16  C   LIG    1       26.049 -17.265   3.316  0.00  0.00    +0.013 A 
ATOM     17  C   LIG    1       26.129 -15.864   3.324  0.00  0.00    +0.015 A 
BRANCH  12  19
ATOM     18  C   LIG    1       24.709 -12.908   2.048  0.00  0.00    +0.090 C 
ATOM     19  S   LIG    1       25.147 -13.317   3.766  0.00  0.00    -0.129 S 
ENDBRANCH  12  19
ENDBRANCH   1  15
TORSDOF 3
ENDMDL
MODEL 3
REMARK VINA RESULT:      -4.2      1.901      2.703
REMARK  Name = *****
REMARK                            x       y       z     vdW  Elec       q    Type
REMARK                         _______ _______ _______ _____ _____    ______ ____
ROOT
ATOM      1  C   LIG    1       25.697 -15.818   3.421  0.00  0.00    +0.211 C 
ATOM      2  O   LIG    1       26.777 -16.008   2.861  0.00  0.00    -0.285 OA
ENDROOT
BRANCH   1   3
ATOM      3  C   LIG    1       25.318 -14.434   3.841  0.00  0.00    +0.110 C 
ATOM      4  C   LIG    1       25.781 -13.595   4.802  0.00  0.00    +0.044 C 
ATOM      5  C   LIG    1       26.834 -13.707   5.838  0.00  0.00    +0.065 C 
ATOM      6  N   LIG    1       25.083 -12.412   4.710  0.00  0.00    -0.310 N 
ATOM      7  H   LIG    1       25.198 -11.592   5.288  0.00  0.00    +0.170 HD
ATOM      8  C   LIG    1       24.141 -12.479   3.676  0.00  0.00    +0.325 C 
ATOM      9  O   LIG    1       23.358 -11.625   3.336  0.00  0.00    -0.247 OA
ATOM     10  N   LIG    1       24.322 -13.768   3.156  0.00  0.00    -0.303 N 
ATOM     11  H   LIG    1       23.780 -14.133   2.380  0.00  0.00    +0.171 HD
ENDBRANCH   1   3
BRANCH   1  15
ATOM     12  C   LIG    1       23.097 -19.157   4.266  0.00  0.00    +0.008 A 
ATOM     13  C   LIG    1       24.375 -19.379   3.750  0.00  0.00    +0.015 A 
ATOM     14  C   LIG    1       25.242 -18.306   3.510  0.00  0.00    +0.013 A 
ATOM     15  C   LIG    1       24.804 -16.987   3.655  0.00  0.00    +0.024 A 
ATOM     16  C   LIG    1       23.504 -16.764   4.134  0.00  0.00    +0.013 A 
ATOM     17  C   LIG    1       22.661 -17.841   4.446  0.00  0.00    +0.015 A 
BRANCH  12  19
ATOM     18  C   LIG    1       23.057 -21.243   6.063  0.00  0.00    +0.090 C 
ATOM     19  S   LIG    1       22.050 -20.523   4.728  0.00  0.00    -0.129 S 
ENDBRANCH  12  19
ENDBRANCH   1  15
TORSDOF 3
ENDMDL
MODEL 4
REMARK VINA RESULT:      -4.0      4.112      6.470
REMARK  Name = *****
REMARK                            x       y       z     vdW  Elec       q    Type
REMARK                         _______ _______ _______ _____ _____    ______ ____
ROOT
ATOM      1  C   LIG    1       25.440 -18.988   3.574  0.00  0.00    +0.211 C 
ATOM      2  O   LIG    1       25.104 -19.478   2.495  0.00  0.00    -0.285 OA
ENDROOT
BRANCH   1   3
ATOM      3  C   LIG    1       25.526 -19.860   4.785  0.00  0.00    +0.110 C 
ATOM      4  C   LIG    1       24.592 -20.452   5.573  0.00  0.00    +0.044 C 
ATOM      5  C   LIG    1       23.110 -20.464   5.570  0.00  0.00    +0.065 C 
ATOM      6  N   LIG    1       25.247 -21.187   6.535  0.00  0.00    -0.310 N 
ATOM      7  H   LIG    1       24.826 -21.740   7.268  0.00  0.00    +0.170 HD
ATOM      8  C   LIG    1       26.634 -21.069   6.381  0.00  0.00    +0.325 C 
ATOM      9  O   LIG    1       27.495 -21.571   7.062  0.00  0.00    -0.247 OA
ATOM     10  N   LIG    1       26.766 -20.226   5.270  0.00  0.00    -0.303 N 
ATOM     11  H   LIG    1       27.665 -19.942   4.895  0.00  0.00    +0.171 HD
ENDBRANCH   1   3
BRANCH   1  15
ATOM     12  C   LIG    1       26.258 -14.751   3.576  0.00  0.00    +0.008 A 
ATOM     13  C   LIG    1       27.312 -15.666   3.542  0.00  0.00    +0.015 A 
ATOM     14  C   LIG    1       27.057 -17.042   3.500  0.00  0.00    +0.013 A 
ATOM     15  C   LIG    1       25.755 -17.532   3.625  0.00  0.00    +0.024 A 
ATOM     16  C   LIG    1       24.699 -16.612   3.703  0.00  0.00    +0.013 A 
ATOM     17  C   LIG    1       24.949 -15.231   3.669  0.00  0.00    +0.015 A 
BRANCH  12  19
ATOM     18  C   LIG    1       28.339 -12.974   3.885  0.00  0.00    +0.090 C 
ATOM     19  S   LIG    1       26.569 -12.999   3.464  0.00  0.00    -0.129 S 
ENDBRANCH  12  19
ENDBRANCH   1  15
TORSDOF 3
ENDMDL
MODEL 5
REMARK VINA RESULT:      -4.0      4.139      6.816
REMARK  Name = *****
REMARK                            x       y       z     vdW  Elec       q    Type
REMARK                         _______ _______ _______ _____ _____    ______ ____
ROOT
ATOM      1  C   LIG    1       25.243 -19.239   3.658  0.00  0.00    +0.211 C 
ATOM      2  O   LIG    1       25.469 -19.840   2.607  0.00  0.00    -0.285 OA
ENDROOT
BRANCH   1   3
ATOM      3  C   LIG    1       25.012 -20.014   4.916  0.00  0.00    +0.110 C 
ATOM      4  C   LIG    1       25.834 -20.437   5.910  0.00  0.00    +0.044 C 
ATOM      5  C   LIG    1       27.291 -20.324   6.151  0.00  0.00    +0.065 C 
ATOM      6  N   LIG    1       25.066 -21.079   6.856  0.00  0.00    -0.310 N 
ATOM      7  H   LIG    1       25.388 -21.504   7.713  0.00  0.00    +0.170 HD
ATOM      8  C   LIG    1       23.719 -21.083   6.471  0.00  0.00    +0.325 C 
ATOM      9  O   LIG    1       22.787 -21.572   7.062  0.00  0.00    -0.247 OA
ATOM     10  N   LIG    1       23.729 -20.403   5.246  0.00  0.00    -0.303 N 
ATOM     11  H   LIG    1       22.892 -20.235   4.699  0.00  0.00    +0.171 HD
ENDBRANCH   1   3
BRANCH   1  15
ATOM     12  C   LIG    1       25.284 -14.924   3.703  0.00  0.00    +0.008 A 
ATOM     13  C   LIG    1       24.107 -15.615   3.995  0.00  0.00    +0.015 A 
ATOM     14  C   LIG    1       24.091 -17.015   4.022  0.00  0.00    +0.013 A 
ATOM     15  C   LIG    1       25.214 -17.749   3.631  0.00  0.00    +0.024 A 
ATOM     16  C   LIG    1       26.385 -17.053   3.297  0.00  0.00    +0.013 A 
ATOM     17  C   LIG    1       26.422 -15.651   3.343  0.00  0.00    +0.015 A 
BRANCH  12  19
ATOM     18  C   LIG    1       24.880 -12.704   2.127  0.00  0.00    +0.090 C 
ATOM     19  S   LIG    1       25.353 -13.147   3.827  0.00  0.00    -0.129 S 
ENDBRANCH  12  19
ENDBRANCH   1  15
TORSDOF 3
ENDMDL
MODEL 6
REMARK VINA RESULT:      -3.4      3.915      6.361
REMARK  Name = *****
REMARK                            x       y       z     vdW  Elec       q    Type
REMARK                         _______ _______ _______ _____ _____    ______ ____
ROOT
ATOM      1  C   LIG    1       22.781 -18.278   4.287  0.00  0.00    +0.211 C 
ATOM      2  O   LIG    1       21.572 -18.242   4.054  0.00  0.00    -0.285 OA
ENDROOT
BRANCH   1   3
ATOM      3  C   LIG    1       23.394 -19.537   4.812  0.00  0.00    +0.110 C 
ATOM      4  C   LIG    1       22.907 -20.784   5.036  0.00  0.00    +0.044 C 
ATOM      5  C   LIG    1       21.572 -21.406   4.871  0.00  0.00    +0.065 C 
ATOM      6  N   LIG    1       23.940 -21.571   5.491  0.00  0.00    -0.310 N 
ATOM      7  H   LIG    1       23.894 -22.548   5.745  0.00  0.00    +0.170 HD
ATOM      8  C   LIG    1       25.123 -20.825   5.575  0.00  0.00    +0.325 C 
ATOM      9  O   LIG    1       26.207 -21.204   5.949  0.00  0.00    -0.247 OA
ATOM     10  N   LIG    1       24.735 -19.552   5.139  0.00  0.00    -0.303 N 
ATOM     11  H   LIG    1       25.375 -18.767   5.081  0.00  0.00    +0.171 HD
ENDBRANCH   1   3
BRANCH   1  15
ATOM     12  C   LIG    1       25.246 -14.795   3.646  0.00  0.00    +0.008 A 
ATOM     13  C   LIG    1       23.951 -14.652   4.146  0.00  0.00    +0.015 A 
ATOM     14  C   LIG    1       23.157 -15.777   4.396  0.00  0.00    +0.013 A 
ATOM     15  C   LIG    1       23.590 -17.054   4.028  0.00  0.00    +0.024 A 
ATOM     16  C   LIG    1       24.876 -17.192   3.485  0.00  0.00    +0.013 A 
ATOM     17  C   LIG    1       25.701 -16.072   3.305  0.00  0.00    +0.015 A 
BRANCH  12  19
ATOM     18  C   LIG    1       27.919 -14.169   3.849  0.00  0.00    +0.090 C 
ATOM     19  S   LIG    1       26.320 -13.382   3.480  0.00  0.00    -0.129 S 
ENDBRANCH  12  19
ENDBRANCH   1  15
TORSDOF 3
ENDMDL
MODEL 7
REMARK VINA RESULT:      -3.2      1.960      2.889
REMARK  Name = *****
REMARK                            x       y       z     vdW  Elec       q    Type
REMARK                         _______ _______ _______ _____ _____    ______ ____
ROOT
ATOM      1  C   LIG    1       26.081 -14.934   3.047  0.00  0.00    +0.211 C 
ATOM      2  O   LIG    1       26.608 -14.629   1.976  0.00  0.00    -0.285 OA
ENDROOT
BRANCH   1   3
ATOM      3  C   LIG    1       25.665 -13.856   3.997  0.00  0.00    +0.110 C 
ATOM      4  C   LIG    1       26.252 -13.303   5.089  0.00  0.00    +0.044 C 
ATOM      5  C   LIG    1       27.529 -13.547   5.798  0.00  0.00    +0.065 C 
ATOM      6  N   LIG    1       25.427 -12.305   5.558  0.00  0.00    -0.310 N 
ATOM      7  H   LIG    1       25.588 -11.710   6.359  0.00  0.00    +0.170 HD
ATOM      8  C   LIG    1       24.277 -12.208   4.765  0.00  0.00    +0.325 C 
ATOM      9  O   LIG    1       23.346 -11.451   4.907  0.00  0.00    -0.247 OA
ATOM     10  N   LIG    1       24.466 -13.201   3.795  0.00  0.00    -0.303 N 
ATOM     11  H   LIG    1       23.797 -13.390   3.057  0.00  0.00    +0.171 HD
ENDBRANCH   1   3
BRANCH   1  15
ATOM     12  C   LIG    1       25.390 -19.069   4.070  0.00  0.00    +0.008 A 
ATOM     13  C   LIG    1       26.695 -18.586   3.955  0.00  0.00    +0.015 A 
ATOM     14  C   LIG    1       26.931 -17.237   3.663  0.00  0.00    +0.013 A 
ATOM     15  C   LIG    1       25.874 -16.378   3.351  0.00  0.00    +0.024 A 
ATOM     16  C   LIG    1       24.564 -16.875   3.425  0.00  0.00    +0.013 A 
ATOM     17  C   LIG    1       24.325 -18.208   3.792  0.00  0.00    +0.015 A 
BRANCH  12  19
ATOM     18  C   LIG    1       23.484 -20.507   5.440  0.00  0.00    +0.090 C 
ATOM     19  S   LIG    1       25.081 -20.742   4.601  0.00  0.00    -0.129 S 
ENDBRANCH  12  19
ENDBRANCH   1  15
TORSDOF 3
ENDMDL
MODEL 8
REMARK VINA RESULT:      -3.1      1.331      1.777
REMARK  Name = *****
REMARK                            x       y       z     vdW  Elec       q    Type
REMARK                         _______ _______ _______ _____ _____    ______ ____
ROOT
ATOM      1  C   LIG    1       24.966 -14.545   3.676  0.00  0.00    +0.211 C 
ATOM      2  O   LIG    1       24.022 -13.816   3.368  0.00  0.00    -0.285 OA
ENDROOT
BRANCH   1   3
ATOM      3  C   LIG    1       26.269 -13.933   4.082  0.00  0.00    +0.110 C 
ATOM      4  C   LIG    1       26.750 -13.471   5.264  0.00  0.00    +0.044 C 
ATOM      5  C   LIG    1       26.183 -13.365   6.628  0.00  0.00    +0.065 C 
ATOM      6  N   LIG    1       28.046 -13.050   5.063  0.00  0.00    -0.310 N 
ATOM      7  H   LIG    1       28.670 -12.656   5.753  0.00  0.00    +0.170 HD
ATOM      8  C   LIG    1       28.417 -13.233   3.726  0.00  0.00    +0.325 C 
ATOM      9  O   LIG    1       29.475 -12.957   3.211  0.00  0.00    -0.247 OA
ATOM     10  N   LIG    1       27.272 -13.790   3.143  0.00  0.00    -0.303 N 
ATOM     11  H   LIG    1       27.216 -14.043   2.162  0.00  0.00    +0.171 HD
ENDBRANCH   1   3
BRANCH   1  15
ATOM     12  C   LIG    1       24.354 -18.816   3.730  0.00  0.00    +0.008 A 
ATOM     13  C   LIG    1       25.568 -18.290   3.287  0.00  0.00    +0.015 A 
ATOM     14  C   LIG    1       25.793 -16.908   3.302  0.00  0.00    +0.013 A 
ATOM     15  C   LIG    1       24.766 -16.021   3.635  0.00  0.00    +0.024 A 
ATOM     16  C   LIG    1       23.531 -16.550   4.040  0.00  0.00    +0.013 A 
ATOM     17  C   LIG    1       23.331 -17.937   4.097  0.00  0.00    +0.015 A 
BRANCH  12  19
ATOM     18  C   LIG    1       24.783 -20.845   5.541  0.00  0.00    +0.090 C 
ATOM     19  S   LIG    1       24.120 -20.578   3.868  0.00  0.00    -0.129 S 
ENDBRANCH  12  19
ENDBRANCH   1  15
TORSDOF 3
ENDMDL
MODEL 9
REMARK VINA RESULT:      -3.1      3.768      6.668
REMARK  Name = *****
REMARK                            x       y       z     vdW  Elec       q    Type
REMARK                         _______ _______ _______ _____ _____    ______ ____
ROOT
ATOM      1  C   LIG    1       25.661 -17.769   3.601  0.00  0.00    +0.211 C 
ATOM      2  O   LIG    1       26.757 -18.017   3.098  0.00  0.00    -0.285 OA
ENDROOT
BRANCH   1   3
ATOM      3  C   LIG    1       24.826 -18.888   4.138  0.00  0.00    +0.110 C 
ATOM      4  C   LIG    1       25.113 -19.987   4.882  0.00  0.00    +0.044 C 
ATOM      5  C   LIG    1       26.364 -20.539   5.451  0.00  0.00    +0.065 C 
ATOM      6  N   LIG    1       23.935 -20.657   5.126  0.00  0.00    -0.310 N 
ATOM      7  H   LIG    1       23.821 -21.512   5.651  0.00  0.00    +0.170 HD
ATOM      8  C   LIG    1       22.860 -19.991   4.525  0.00  0.00    +0.325 C 
ATOM      9  O   LIG    1       21.697 -20.316   4.531  0.00  0.00    -0.247 OA
ATOM     10  N   LIG    1       23.463 -18.884   3.914  0.00  0.00    -0.303 N 
ATOM     11  H   LIG    1       22.944 -18.191   3.386  0.00  0.00    +0.171 HD
ENDBRANCH   1   3
BRANCH   1  15
ATOM     12  C   LIG    1       24.483 -13.628   3.886  0.00  0.00    +0.008 A 
ATOM     13  C   LIG    1       23.565 -14.637   4.181  0.00  0.00    +0.015 A 
ATOM     14  C   LIG    1       23.948 -15.983   4.131  0.00  0.00    +0.013 A 
ATOM     15  C   LIG    1       25.211 -16.350   3.659  0.00  0.00    +0.024 A 
ATOM     16  C   LIG    1       26.118 -15.336   3.321  0.00  0.00    +0.013 A 
ATOM     17  C   LIG    1       25.760 -13.984   3.443  0.00  0.00    +0.015 A 
BRANCH  12  19
ATOM     18  C   LIG    1       23.747 -11.449   2.372  0.00  0.00    +0.090 C 
ATOM     19  S   LIG    1       24.053 -11.912   4.105  0.00  0.00    -0.129 S 
ENDBRANCH  12  19
ENDBRANCH   1  15
TORSDOF 3
ENDMDL
