MODEL 1
REMARK VINA RESULT:      -7.9      0.000      0.000
REMARK  Name = *****
REMARK                            x       y       z     vdW  Elec       q    Type
REMARK                         _______ _______ _______ _____ _____    ______ ____
ROOT
ATOM      1  C   LIG    1       25.464 -23.012   7.145  0.00  0.00    +0.069 C 
ENDROOT
BRANCH   1   2
ATOM      2  C   LIG    1       24.632 -21.940   6.407  0.00  0.00    -0.038 A 
ATOM      3  C   LIG    1       24.881 -21.589   5.070  0.00  0.00    +0.005 A 
ATOM      4  C   LIG    1       24.153 -20.586   4.424  0.00  0.00    +0.015 A 
ATOM      5  C   LIG    1       23.144 -19.918   5.107  0.00  0.00    +0.018 A 
ATOM      6 BR   LIG    1       22.158 -18.569   4.223  0.00  0.00    -0.050 Br
ATOM      7  C   LIG    1       22.864 -20.245   6.430  0.00  0.00    +0.015 A 
ATOM      8  C   LIG    1       23.598 -21.251   7.077  0.00  0.00    +0.005 A 
ENDBRANCH   1   2
BRANCH   1   9
ATOM      9  C   LIG    1       25.305 -24.411   6.548  0.00  0.00    +0.049 A 
ATOM     10  N   LIG    1       26.454 -25.081   6.229  0.00  0.00    -0.259 NA
ATOM     11  C   LIG    1       26.341 -26.326   5.719  0.00  0.00    +0.111 A 
ATOM     12  C   LIG    1       25.139 -26.972   5.503  0.00  0.00    +0.020 A 
ATOM     13  C   LIG    1       23.972 -26.276   5.806  0.00  0.00    +0.003 A 
ATOM     14  C   LIG    1       24.056 -24.984   6.318  0.00  0.00    +0.024 A 
ENDBRANCH   1   9
BRANCH   1  15
ATOM     15  C   LIG    1       26.949 -22.564   7.332  0.00  0.00    +0.029 C 
BRANCH  15  16
ATOM     16  C   LIG    1       27.139 -21.331   8.227  0.00  0.00    +0.085 C 
BRANCH  16  18
ATOM     17  C   LIG    1       29.578 -21.061   7.994  0.00  0.00    +0.104 C 
ATOM     18  N   LIG    1       28.259 -20.444   7.830  0.00  0.00    -0.308 NA
ATOM     19  C   LIG    1       28.084 -20.058   6.423  0.00  0.00    +0.104 C 
ENDBRANCH  16  18
ENDBRANCH  15  16
ENDBRANCH   1  15
TORSDOF 5
ENDMDL
MODEL 2
REMARK VINA RESULT:      -7.8      2.685      4.982
REMARK  Name = *****
REMARK                            x       y       z     vdW  Elec       q    Type
REMARK                         _______ _______ _______ _____ _____    ______ ____
ROOT
ATOM      1  C   LIG    1       25.759 -21.477   6.311  0.00  0.00    +0.069 C 
ENDROOT
BRANCH   1   2
ATOM      2  C   LIG    1       25.482 -22.994   6.206  0.00  0.00    -0.038 A 
ATOM      3  C   LIG    1       25.849 -23.893   7.220  0.00  0.00    +0.005 A 
ATOM      4  C   LIG    1       25.635 -25.269   7.097  0.00  0.00    +0.015 A 
ATOM      5  C   LIG    1       25.033 -25.773   5.951  0.00  0.00    +0.018 A 
ATOM      6 BR   LIG    1       24.739 -27.634   5.796  0.00  0.00    -0.050 Br
ATOM      7  C   LIG    1       24.648 -24.911   4.929  0.00  0.00    +0.015 A 
ATOM      8  C   LIG    1       24.866 -23.530   5.054  0.00  0.00    +0.005 A 
ENDBRANCH   1   2
BRANCH   1   9
ATOM      9  C   LIG    1       24.721 -20.626   5.578  0.00  0.00    +0.049 A 
ATOM     10  N   LIG    1       25.114 -20.048   4.403  0.00  0.00    -0.259 NA
ATOM     11  C   LIG    1       24.209 -19.308   3.726  0.00  0.00    +0.111 A 
ATOM     12  C   LIG    1       22.908 -19.101   4.140  0.00  0.00    +0.020 A 
ATOM     13  C   LIG    1       22.520 -19.671   5.350  0.00  0.00    +0.003 A 
ATOM     14  C   LIG    1       23.436 -20.426   6.079  0.00  0.00    +0.024 A 
ENDBRANCH   1   9
BRANCH   1  15
ATOM     15  C   LIG    1       26.016 -21.038   7.788  0.00  0.00    +0.029 C 
BRANCH  15  16
ATOM     16  C   LIG    1       27.335 -20.285   8.013  0.00  0.00    +0.085 C 
BRANCH  16  18
ATOM     17  C   LIG    1       28.838 -19.564   6.197  0.00  0.00    +0.104 C 
ATOM     18  N   LIG    1       28.427 -20.658   7.081  0.00  0.00    -0.308 NA
ATOM     19  C   LIG    1       29.589 -21.102   7.863  0.00  0.00    +0.104 C 
ENDBRANCH  16  18
ENDBRANCH  15  16
ENDBRANCH   1  15
TORSDOF 5
ENDMDL
MODEL 3
REMARK VINA RESULT:      -7.8      2.720      5.632
REMARK  Name = *****
REMARK                            x       y       z     vdW  Elec       q    Type
REMARK                         _______ _______ _______ _____ _____    ______ ____
ROOT
ATOM      1  C   LIG    1       24.925 -21.372   7.583  0.00  0.00    +0.069 C 
ENDROOT
BRANCH   1   2
ATOM      2  C   LIG    1       24.816 -22.841   7.117  0.00  0.00    -0.038 A 
ATOM      3  C   LIG    1       23.580 -23.445   6.833  0.00  0.00    +0.005 A 
ATOM      4  C   LIG    1       23.486 -24.788   6.455  0.00  0.00    +0.015 A 
ATOM      5  C   LIG    1       24.639 -25.554   6.342  0.00  0.00    +0.018 A 
ATOM      6 BR   LIG    1       24.504 -27.367   5.822  0.00  0.00    -0.050 Br
ATOM      7  C   LIG    1       25.882 -24.987   6.607  0.00  0.00    +0.015 A 
ATOM      8  C   LIG    1       25.973 -23.639   6.988  0.00  0.00    +0.005 A 
ENDBRANCH   1   2
BRANCH   1   9
ATOM      9  C   LIG    1       26.281 -20.741   7.263  0.00  0.00    +0.049 A 
ATOM     10  N   LIG    1       27.112 -20.493   8.320  0.00  0.00    -0.259 NA
ATOM     11  C   LIG    1       28.324 -19.956   8.062  0.00  0.00    +0.111 A 
ATOM     12  C   LIG    1       28.783 -19.645   6.797  0.00  0.00    +0.020 A 
ATOM     13  C   LIG    1       27.923 -19.876   5.726  0.00  0.00    +0.003 A 
ATOM     14  C   LIG    1       26.661 -20.415   5.963  0.00  0.00    +0.024 A 
ENDBRANCH   1   9
BRANCH   1  15
ATOM     15  C   LIG    1       23.701 -20.523   7.113  0.00  0.00    +0.029 C 
BRANCH  15  16
ATOM     16  C   LIG    1       23.291 -20.744   5.650  0.00  0.00    +0.085 C 
BRANCH  16  18
ATOM     17  C   LIG    1       24.091 -19.955   3.457  0.00  0.00    +0.104 C 
ATOM     18  N   LIG    1       23.529 -19.584   4.758  0.00  0.00    -0.308 NA
ATOM     19  C   LIG    1       22.258 -18.878   4.545  0.00  0.00    +0.104 C 
ENDBRANCH  16  18
ENDBRANCH  15  16
ENDBRANCH   1  15
TORSDOF 5
ENDMDL
MODEL 4
REMARK VINA RESULT:      -7.8      1.231      4.918
REMARK  Name = *****
REMARK                            x       y       z     vdW  Elec       q    Type
REMARK                         _______ _______ _______ _____ _____    ______ ____
ROOT
ATOM      1  C   LIG    1       26.462 -21.466   6.300  0.00  0.00    +0.069 C 
ENDROOT
BRANCH   1   2
ATOM      2  C   LIG    1       25.235 -20.750   5.693  0.00  0.00    -0.038 A 
ATOM      3  C   LIG    1       25.278 -20.133   4.432  0.00  0.00    +0.005 A 
ATOM      4  C   LIG    1       24.177 -19.448   3.909  0.00  0.00    +0.015 A 
ATOM      5  C   LIG    1       22.998 -19.379   4.641  0.00  0.00    +0.018 A 
ATOM      6 BR   LIG    1       21.511 -18.459   3.923  0.00  0.00    -0.050 Br
ATOM      7  C   LIG    1       22.916 -19.986   5.890  0.00  0.00    +0.015 A 
ATOM      8  C   LIG    1       24.024 -20.671   6.413  0.00  0.00    +0.005 A 
ENDBRANCH   1   2
BRANCH   1   9
ATOM      9  C   LIG    1       27.604 -20.510   6.646  0.00  0.00    +0.049 A 
ATOM     10  N   LIG    1       27.951 -20.414   7.965  0.00  0.00    -0.259 NA
ATOM     11  C   LIG    1       28.971 -19.592   8.294  0.00  0.00    +0.111 A 
ATOM     12  C   LIG    1       29.692 -18.845   7.384  0.00  0.00    +0.020 A 
ATOM     13  C   LIG    1       29.318 -18.927   6.045  0.00  0.00    +0.003 A 
ATOM     14  C   LIG    1       28.260 -19.754   5.677  0.00  0.00    +0.024 A 
ENDBRANCH   1   9
BRANCH   1  15
ATOM     15  C   LIG    1       26.054 -22.421   7.468  0.00  0.00    +0.029 C 
BRANCH  15  16
ATOM     16  C   LIG    1       25.932 -23.901   7.074  0.00  0.00    +0.085 C 
BRANCH  16  18
ATOM     17  C   LIG    1       25.296 -25.343   5.180  0.00  0.00    +0.104 C 
ATOM     18  N   LIG    1       24.953 -24.175   5.995  0.00  0.00    -0.308 NA
ATOM     19  C   LIG    1       23.628 -24.383   6.595  0.00  0.00    +0.104 C 
ENDBRANCH  16  18
ENDBRANCH  15  16
ENDBRANCH   1  15
TORSDOF 5
ENDMDL
MODEL 5
REMARK VINA RESULT:      -7.7      2.663      5.606
REMARK  Name = *****
REMARK                            x       y       z     vdW  Elec       q    Type
REMARK                         _______ _______ _______ _____ _____    ______ ____
ROOT
ATOM      1  C   LIG    1       25.538 -22.009   6.940  0.00  0.00    +0.069 C 
ENDROOT
BRANCH   1   2
ATOM      2  C   LIG    1       26.914 -21.311   7.018  0.00  0.00    -0.038 A 
ATOM      3  C   LIG    1       27.252 -20.229   6.189  0.00  0.00    +0.005 A 
ATOM      4  C   LIG    1       28.515 -19.632   6.235  0.00  0.00    +0.015 A 
ATOM      5  C   LIG    1       29.468 -20.104   7.128  0.00  0.00    +0.018 A 
ATOM      6 BR   LIG    1       31.171 -19.286   7.190  0.00  0.00    -0.050 Br
ATOM      7  C   LIG    1       29.166 -21.169   7.971  0.00  0.00    +0.015 A 
ATOM      8  C   LIG    1       27.897 -21.768   7.921  0.00  0.00    +0.005 A 
ENDBRANCH   1   2
BRANCH   1   9
ATOM      9  C   LIG    1       24.547 -21.281   6.030  0.00  0.00    +0.049 A 
ATOM     10  N   LIG    1       24.704 -21.454   4.682  0.00  0.00    -0.259 NA
ATOM     11  C   LIG    1       23.829 -20.839   3.858  0.00  0.00    +0.111 A 
ATOM     12  C   LIG    1       22.780 -20.050   4.287  0.00  0.00    +0.020 A 
ATOM     13  C   LIG    1       22.640 -19.857   5.659  0.00  0.00    +0.003 A 
ATOM     14  C   LIG    1       23.537 -20.465   6.533  0.00  0.00    +0.024 A 
ENDBRANCH   1   9
BRANCH   1  15
ATOM     15  C   LIG    1       25.680 -23.535   6.636  0.00  0.00    +0.029 C 
BRANCH  15  16
ATOM     16  C   LIG    1       24.374 -24.336   6.750  0.00  0.00    +0.085 C 
BRANCH  16  18
ATOM     17  C   LIG    1       25.071 -25.281   4.583  0.00  0.00    +0.104 C 
ATOM     18  N   LIG    1       24.246 -25.452   5.782  0.00  0.00    -0.308 NA
ATOM     19  C   LIG    1       24.625 -26.706   6.449  0.00  0.00    +0.104 C 
ENDBRANCH  16  18
ENDBRANCH  15  16
ENDBRANCH   1  15
TORSDOF 5
ENDMDL
MODEL 6
REMARK VINA RESULT:      -7.4      2.915      4.664
REMARK  Name = *****
REMARK                            x       y       z     vdW  Elec       q    Type
REMARK                         _______ _______ _______ _____ _____    ______ ____
ROOT
ATOM      1  C   LIG    1       24.618 -21.153   5.584  0.00  0.00    +0.069 C 
ENDROOT
BRANCH   1   2
ATOM      2  C   LIG    1       25.948 -20.671   6.205  0.00  0.00    -0.038 A 
ATOM      3  C   LIG    1       26.999 -20.167   5.422  0.00  0.00    +0.005 A 
ATOM      4  C   LIG    1       28.217 -19.775   5.987  0.00  0.00    +0.015 A 
ATOM      5  C   LIG    1       28.400 -19.869   7.361  0.00  0.00    +0.018 A 
ATOM      6 BR   LIG    1       30.045 -19.328   8.118  0.00  0.00    -0.050 Br
ATOM      7  C   LIG    1       27.377 -20.355   8.169  0.00  0.00    +0.015 A 
ATOM      8  C   LIG    1       26.157 -20.750   7.599  0.00  0.00    +0.005 A 
ENDBRANCH   1   2
BRANCH   1   9
ATOM      9  C   LIG    1       24.369 -22.648   5.786  0.00  0.00    +0.049 A 
ATOM     10  N   LIG    1       25.188 -23.508   5.107  0.00  0.00    -0.259 NA
ATOM     11  C   LIG    1       25.003 -24.834   5.284  0.00  0.00    +0.111 A 
ATOM     12  C   LIG    1       24.043 -25.381   6.114  0.00  0.00    +0.020 A 
ATOM     13  C   LIG    1       23.196 -24.502   6.783  0.00  0.00    +0.003 A 
ATOM     14  C   LIG    1       23.352 -23.129   6.607  0.00  0.00    +0.024 A 
ENDBRANCH   1   9
BRANCH   1  15
ATOM     15  C   LIG    1       23.419 -20.245   6.008  0.00  0.00    +0.029 C 
BRANCH  15  16
ATOM     16  C   LIG    1       22.332 -20.075   4.936  0.00  0.00    +0.085 C 
BRANCH  16  18
ATOM     17  C   LIG    1       22.184 -17.629   4.676  0.00  0.00    +0.104 C 
ATOM     18  N   LIG    1       22.521 -18.907   4.043  0.00  0.00    -0.308 NA
ATOM     19  C   LIG    1       23.922 -18.867   3.601  0.00  0.00    +0.104 C 
ENDBRANCH  16  18
ENDBRANCH  15  16
ENDBRANCH   1  15
TORSDOF 5
ENDMDL
MODEL 7
REMARK VINA RESULT:      -7.3      2.726      4.972
REMARK  Name = *****
REMARK                            x       y       z     vdW  Elec       q    Type
REMARK                         _______ _______ _______ _____ _____    ______ ____
ROOT
ATOM      1  C   LIG    1       25.785 -22.224   6.473  0.00  0.00    +0.069 C 
ENDROOT
BRANCH   1   2
ATOM      2  C   LIG    1       25.420 -23.722   6.365  0.00  0.00    -0.038 A 
ATOM      3  C   LIG    1       24.101 -24.157   6.157  0.00  0.00    +0.005 A 
ATOM      4  C   LIG    1       23.773 -25.515   6.106  0.00  0.00    +0.015 A 
ATOM      5  C   LIG    1       24.771 -26.470   6.250  0.00  0.00    +0.018 A 
ATOM      6 BR   LIG    1       24.320 -28.305   6.170  0.00  0.00    -0.050 Br
ATOM      7  C   LIG    1       26.090 -26.076   6.448  0.00  0.00    +0.015 A 
ATOM      8  C   LIG    1       26.417 -24.712   6.502  0.00  0.00    +0.005 A 
ENDBRANCH   1   2
BRANCH   1   9
ATOM      9  C   LIG    1       24.751 -21.307   5.819  0.00  0.00    +0.049 A 
ATOM     10  N   LIG    1       23.648 -20.990   6.564  0.00  0.00    -0.259 NA
ATOM     11  C   LIG    1       22.730 -20.164   6.017  0.00  0.00    +0.111 A 
ATOM     12  C   LIG    1       22.835 -19.611   4.755  0.00  0.00    +0.020 A 
ATOM     13  C   LIG    1       23.947 -19.957   3.992  0.00  0.00    +0.003 A 
ATOM     14  C   LIG    1       24.903 -20.820   4.523  0.00  0.00    +0.024 A 
ENDBRANCH   1   9
BRANCH   1  15
ATOM     15  C   LIG    1       26.158 -21.824   7.936  0.00  0.00    +0.029 C 
BRANCH  15  16
ATOM     16  C   LIG    1       26.702 -20.396   8.092  0.00  0.00    +0.085 C 
BRANCH  16  18
ATOM     17  C   LIG    1       28.908 -21.491   8.019  0.00  0.00    +0.104 C 
ATOM     18  N   LIG    1       28.152 -20.252   7.818  0.00  0.00    -0.308 NA
ATOM     19  C   LIG    1       28.332 -19.801   6.431  0.00  0.00    +0.104 C 
ENDBRANCH  16  18
ENDBRANCH  15  16
ENDBRANCH   1  15
TORSDOF 5
ENDMDL
MODEL 8
REMARK VINA RESULT:      -6.4      2.662      4.379
REMARK  Name = *****
REMARK                            x       y       z     vdW  Elec       q    Type
REMARK                         _______ _______ _______ _____ _____    ______ ____
ROOT
ATOM      1  C   LIG    1       24.957 -22.245   5.933  0.00  0.00    +0.069 C 
ENDROOT
BRANCH   1   2
ATOM      2  C   LIG    1       26.177 -21.446   6.443  0.00  0.00    -0.038 A 
ATOM      3  C   LIG    1       26.598 -21.496   7.782  0.00  0.00    +0.005 A 
ATOM      4  C   LIG    1       27.676 -20.735   8.245  0.00  0.00    +0.015 A 
ATOM      5  C   LIG    1       28.365 -19.912   7.364  0.00  0.00    +0.018 A 
ATOM      6 BR   LIG    1       29.827 -18.893   7.995  0.00  0.00    -0.050 Br
ATOM      7  C   LIG    1       27.983 -19.843   6.028  0.00  0.00    +0.015 A 
ATOM      8  C   LIG    1       26.899 -20.607   5.567  0.00  0.00    +0.005 A 
ENDBRANCH   1   2
BRANCH   1   9
ATOM      9  C   LIG    1       25.204 -23.754   5.892  0.00  0.00    +0.049 A 
ATOM     10  N   LIG    1       25.731 -24.325   7.017  0.00  0.00    -0.259 NA
ATOM     11  C   LIG    1       25.939 -25.660   7.013  0.00  0.00    +0.111 A 
ATOM     12  C   LIG    1       25.647 -26.489   5.948  0.00  0.00    +0.020 A 
ATOM     13  C   LIG    1       25.133 -25.899   4.796  0.00  0.00    +0.003 A 
ATOM     14  C   LIG    1       24.924 -24.522   4.764  0.00  0.00    +0.024 A 
ENDBRANCH   1   9
BRANCH   1  15
ATOM     15  C   LIG    1       23.645 -21.834   6.676  0.00  0.00    +0.029 C 
BRANCH  15  16
ATOM     16  C   LIG    1       23.318 -20.335   6.616  0.00  0.00    +0.085 C 
BRANCH  16  18
ATOM     17  C   LIG    1       23.427 -19.361   4.355  0.00  0.00    +0.104 C 
ATOM     18  N   LIG    1       22.569 -19.913   5.407  0.00  0.00    -0.308 NA
ATOM     19  C   LIG    1       21.839 -21.070   4.871  0.00  0.00    +0.104 C 
ENDBRANCH  16  18
ENDBRANCH  15  16
ENDBRANCH   1  15
TORSDOF 5
ENDMDL
MODEL 9
REMARK VINA RESULT:      -6.3      3.124      5.520
REMARK  Name = *****
REMARK                            x       y       z     vdW  Elec       q    Type
REMARK                         _______ _______ _______ _____ _____    ______ ____
ROOT
ATOM      1  C   LIG    1       26.175 -20.678   5.076  0.00  0.00    +0.069 C 
ENDROOT
BRANCH   1   2
ATOM      2  C   LIG    1       27.346 -20.201   5.964  0.00  0.00    -0.038 A 
ATOM      3  C   LIG    1       27.453 -20.562   7.317  0.00  0.00    +0.005 A 
ATOM      4  C   LIG    1       28.492 -20.090   8.126  0.00  0.00    +0.015 A 
ATOM      5  C   LIG    1       29.457 -19.250   7.585  0.00  0.00    +0.018 A 
ATOM      6 BR   LIG    1       30.863 -18.622   8.683  0.00  0.00    -0.050 Br
ATOM      7  C   LIG    1       29.388 -18.877   6.247  0.00  0.00    +0.015 A 
ATOM      8  C   LIG    1       28.343 -19.352   5.438  0.00  0.00    +0.005 A 
ENDBRANCH   1   2
BRANCH   1   9
ATOM      9  C   LIG    1       25.096 -21.427   5.858  0.00  0.00    +0.049 A 
ATOM     10  N   LIG    1       24.971 -22.766   5.610  0.00  0.00    -0.259 NA
ATOM     11  C   LIG    1       24.038 -23.455   6.303  0.00  0.00    +0.111 A 
ATOM     12  C   LIG    1       23.206 -22.897   7.254  0.00  0.00    +0.020 A 
ATOM     13  C   LIG    1       23.321 -21.529   7.485  0.00  0.00    +0.003 A 
ATOM     14  C   LIG    1       24.262 -20.789   6.773  0.00  0.00    +0.024 A 
ENDBRANCH   1   9
BRANCH   1  15
ATOM     15  C   LIG    1       25.625 -19.525   4.176  0.00  0.00    +0.029 C 
BRANCH  15  16
ATOM     16  C   LIG    1       24.311 -19.849   3.450  0.00  0.00    +0.085 C 
BRANCH  16  18
ATOM     17  C   LIG    1       22.234 -19.145   4.574  0.00  0.00    +0.104 C 
ATOM     18  N   LIG    1       23.259 -18.812   3.581  0.00  0.00    -0.308 NA
ATOM     19  C   LIG    1       23.890 -17.538   3.954  0.00  0.00    +0.104 C 
ENDBRANCH  16  18
ENDBRANCH  15  16
ENDBRANCH   1  15
TORSDOF 5
ENDMDL
