MODEL 1
REMARK VINA RESULT:      -6.7      0.000      0.000
REMARK  Name = *****
REMARK                            x       y       z     vdW  Elec       q    Type
REMARK                         _______ _______ _______ _____ _____    ______ ____
ROOT
ATOM      1  C   LIG    1       29.178 -18.805   7.787  0.00  0.00    +0.061 C 
ATOM      2  C   LIG    1       28.806 -20.290   7.517  0.00  0.00    -0.017 C 
ATOM      3  C   LIG    1       30.063 -21.181   7.333  0.00  0.00    +0.012 C 
ATOM      4  C   LIG    1       28.052 -20.184   6.160  0.00  0.00    -0.001 C 
ATOM      5  C   LIG    1       26.568 -19.730   6.277  0.00  0.00    -0.000 C 
ATOM      6  C   LIG    1       25.739 -20.494   7.345  0.00  0.00    +0.031 C 
ATOM      7  C   LIG    1       26.508 -20.416   8.689  0.00  0.00    +0.119 C 
ATOM      8  C   LIG    1       25.109 -21.888   6.898  0.00  0.00    -0.005 C 
ATOM      9  C   LIG    1       23.868 -22.167   7.804  0.00  0.00    +0.016 C 
ATOM     10  C   LIG    1       24.659 -21.884   5.414  0.00  0.00    -0.057 C 
ATOM     11  C   LIG    1       23.926 -22.920   4.948  0.00  0.00    +0.046 C 
ATOM     12  C   LIG    1       24.751 -24.179   5.075  0.00  0.00    +0.156 C 
ATOM     13  O   LIG    1       24.667 -25.046   4.209  0.00  0.00    -0.293 OA
ATOM     14  C   LIG    1       25.531 -24.387   6.367  0.00  0.00    +0.080 C 
ATOM     15  C   LIG    1       25.539 -21.139   4.418  0.00  0.00    +0.013 C 
ATOM     16  C   LIG    1       24.932 -21.038   3.008  0.00  0.00    +0.012 C 
ATOM     17  C   LIG    1       26.075 -23.093   6.995  0.00  0.00    +0.019 C 
ATOM     18  C   LIG    1       25.821 -19.729   4.933  0.00  0.00    +0.012 C 
ATOM     19  C   LIG    1       28.903 -19.163   5.375  0.00  0.00    +0.005 C 
ATOM     20  C   LIG    1       27.948 -20.916   8.625  0.00  0.00    +0.039 C 
ATOM     21  C   LIG    1       29.598 -18.278   6.411  0.00  0.00    +0.012 C 
ENDROOT
BRANCH   1  23
ATOM     22  C   LIG    1       31.628 -18.239   8.431  0.00  0.00    +0.086 C 
ATOM     23  C   LIG    1       30.217 -18.532   8.878  0.00  0.00    +0.134 C 
ATOM     24  O   LIG    1       29.912 -18.422  10.065  0.00  0.00    -0.297 OA
ENDBRANCH   1  23
BRANCH   7  25
ATOM     25  O   LIG    1       25.831 -21.095   9.735  0.00  0.00    -0.392 OA
ATOM     26  H   LIG    1       26.333 -21.904   9.941  0.00  0.00    +0.210 HD
ENDBRANCH   7  25
TORSDOF 2
ENDMDL
MODEL 2
REMARK VINA RESULT:      -6.6      2.745      6.752
REMARK  Name = *****
REMARK                            x       y       z     vdW  Elec       q    Type
REMARK                         _______ _______ _______ _____ _____    ______ ____
ROOT
ATOM      1  C   LIG    1       25.046 -27.038   6.722  0.00  0.00    +0.061 C 
ATOM      2  C   LIG    1       24.973 -25.913   5.651  0.00  0.00    -0.017 C 
ATOM      3  C   LIG    1       25.364 -26.426   4.240  0.00  0.00    +0.012 C 
ATOM      4  C   LIG    1       26.066 -24.927   6.157  0.00  0.00    -0.001 C 
ATOM      5  C   LIG    1       25.609 -23.991   7.314  0.00  0.00    -0.000 C 
ATOM      6  C   LIG    1       24.249 -23.281   7.074  0.00  0.00    +0.031 C 
ATOM      7  C   LIG    1       23.202 -24.367   6.718  0.00  0.00    +0.119 C 
ATOM      8  C   LIG    1       24.287 -21.937   6.219  0.00  0.00    -0.005 C 
ATOM      9  C   LIG    1       23.039 -21.084   6.610  0.00  0.00    +0.016 C 
ATOM     10  C   LIG    1       25.568 -21.105   6.481  0.00  0.00    -0.057 C 
ATOM     11  C   LIG    1       25.650 -19.850   5.985  0.00  0.00    +0.046 C 
ATOM     12  C   LIG    1       25.568 -19.930   4.479  0.00  0.00    +0.156 C 
ATOM     13  O   LIG    1       26.235 -19.156   3.797  0.00  0.00    -0.293 OA
ATOM     14  C   LIG    1       24.531 -20.865   3.873  0.00  0.00    +0.080 C 
ATOM     15  C   LIG    1       26.871 -21.870   6.677  0.00  0.00    +0.013 C 
ATOM     16  C   LIG    1       28.055 -20.983   7.103  0.00  0.00    +0.012 C 
ATOM     17  C   LIG    1       24.282 -22.147   4.686  0.00  0.00    +0.019 C 
ATOM     18  C   LIG    1       26.675 -22.963   7.726  0.00  0.00    +0.012 C 
ATOM     19  C   LIG    1       27.203 -25.873   6.599  0.00  0.00    +0.005 C 
ATOM     20  C   LIG    1       23.588 -25.260   5.544  0.00  0.00    +0.039 C 
ATOM     21  C   LIG    1       26.547 -27.203   6.977  0.00  0.00    +0.012 C 
ENDROOT
BRANCH   1  23
ATOM     22  C   LIG    1       24.285 -29.399   7.489  0.00  0.00    +0.086 C 
ATOM     23  C   LIG    1       24.343 -28.359   6.397  0.00  0.00    +0.134 C 
ATOM     24  O   LIG    1       23.731 -28.538   5.344  0.00  0.00    -0.297 OA
ENDBRANCH   1  23
BRANCH   7  25
ATOM     25  O   LIG    1       21.918 -23.814   6.472  0.00  0.00    -0.392 OA
ATOM     26  H   LIG    1       21.769 -23.819   5.510  0.00  0.00    +0.210 HD
ENDBRANCH   7  25
TORSDOF 2
ENDMDL
MODEL 3
REMARK VINA RESULT:      -6.0      7.968      9.930
REMARK  Name = *****
REMARK                            x       y       z     vdW  Elec       q    Type
REMARK                         _______ _______ _______ _____ _____    ______ ____
ROOT
ATOM      1  C   LIG    1       26.342 -27.445  14.456  0.00  0.00    +0.061 C 
ATOM      2  C   LIG    1       26.229 -27.264  12.917  0.00  0.00    -0.017 C 
ATOM      3  C   LIG    1       26.060 -25.775  12.515  0.00  0.00    +0.012 C 
ATOM      4  C   LIG    1       24.910 -28.029  12.607  0.00  0.00    -0.001 C 
ATOM      5  C   LIG    1       25.063 -29.575  12.514  0.00  0.00    -0.000 C 
ATOM      6  C   LIG    1       26.239 -30.057  11.622  0.00  0.00    +0.031 C 
ATOM      7  C   LIG    1       27.527 -29.344  12.107  0.00  0.00    +0.119 C 
ATOM      8  C   LIG    1       25.955 -30.155  10.057  0.00  0.00    -0.005 C 
ATOM      9  C   LIG    1       26.947 -31.197   9.452  0.00  0.00    +0.016 C 
ATOM     10  C   LIG    1       24.503 -30.601   9.746  0.00  0.00    -0.057 C 
ATOM     11  C   LIG    1       24.172 -30.922   8.475  0.00  0.00    +0.046 C 
ATOM     12  C   LIG    1       24.370 -29.699   7.611  0.00  0.00    +0.156 C 
ATOM     13  O   LIG    1       23.592 -29.482   6.686  0.00  0.00    -0.293 OA
ATOM     14  C   LIG    1       25.632 -28.874   7.828  0.00  0.00    +0.080 C 
ATOM     15  C   LIG    1       23.398 -30.063  10.647  0.00  0.00    +0.013 C 
ATOM     16  C   LIG    1       22.018 -30.690  10.379  0.00  0.00    +0.012 C 
ATOM     17  C   LIG    1       26.110 -28.819   9.289  0.00  0.00    +0.019 C 
ATOM     18  C   LIG    1       23.767 -30.296  12.111  0.00  0.00    +0.012 C 
ATOM     19  C   LIG    1       23.990 -27.613  13.775  0.00  0.00    +0.005 C 
ATOM     20  C   LIG    1       27.433 -27.823  12.146  0.00  0.00    +0.039 C 
ATOM     21  C   LIG    1       24.904 -27.264  14.952  0.00  0.00    +0.012 C 
ENDROOT
BRANCH   1  23
ATOM     22  C   LIG    1       28.739 -27.101  15.393  0.00  0.00    +0.086 C 
ATOM     23  C   LIG    1       27.347 -26.554  15.192  0.00  0.00    +0.134 C 
ATOM     24  O   LIG    1       27.093 -25.389  15.500  0.00  0.00    -0.297 OA
ENDBRANCH   1  23
BRANCH   7  25
ATOM     25  O   LIG    1       28.666 -29.715  11.345  0.00  0.00    -0.392 OA
ATOM     26  H   LIG    1       28.889 -28.970  10.759  0.00  0.00    +0.210 HD
ENDBRANCH   7  25
TORSDOF 2
ENDMDL
MODEL 4
REMARK VINA RESULT:      -5.5      9.952     13.334
REMARK  Name = *****
REMARK                            x       y       z     vdW  Elec       q    Type
REMARK                         _______ _______ _______ _____ _____    ______ ____
ROOT
ATOM      1  C   LIG    1       18.201 -29.156  13.749  0.00  0.00    +0.061 C 
ATOM      2  C   LIG    1       19.572 -29.774  14.143  0.00  0.00    -0.017 C 
ATOM      3  C   LIG    1       19.505 -30.524  15.500  0.00  0.00    +0.012 C 
ATOM      4  C   LIG    1       20.455 -28.504  14.304  0.00  0.00    -0.001 C 
ATOM      5  C   LIG    1       20.993 -27.913  12.968  0.00  0.00    -0.000 C 
ATOM      6  C   LIG    1       21.639 -28.955  12.014  0.00  0.00    +0.031 C 
ATOM      7  C   LIG    1       20.622 -30.106  11.807  0.00  0.00    +0.119 C 
ATOM      8  C   LIG    1       23.168 -29.316  12.281  0.00  0.00    -0.005 C 
ATOM      9  C   LIG    1       23.782 -29.828  10.940  0.00  0.00    +0.016 C 
ATOM     10  C   LIG    1       23.986 -28.096  12.777  0.00  0.00    -0.057 C 
ATOM     11  C   LIG    1       25.332 -28.195  12.854  0.00  0.00    +0.046 C 
ATOM     12  C   LIG    1       25.671 -29.287  13.841  0.00  0.00    +0.156 C 
ATOM     13  O   LIG    1       26.652 -29.158  14.568  0.00  0.00    -0.293 OA
ATOM     14  C   LIG    1       24.868 -30.579  13.772  0.00  0.00    +0.080 C 
ATOM     15  C   LIG    1       23.295 -27.133  13.736  0.00  0.00    +0.013 C 
ATOM     16  C   LIG    1       24.112 -25.865  14.039  0.00  0.00    +0.012 C 
ATOM     17  C   LIG    1       23.395 -30.390  13.373  0.00  0.00    +0.019 C 
ATOM     18  C   LIG    1       21.941 -26.720  13.163  0.00  0.00    +0.012 C 
ATOM     19  C   LIG    1       19.510 -27.519  15.026  0.00  0.00    +0.005 C 
ATOM     20  C   LIG    1       20.124 -30.752  13.096  0.00  0.00    +0.039 C 
ATOM     21  C   LIG    1       18.082 -27.925  14.653  0.00  0.00    +0.012 C 
ENDROOT
BRANCH   1  23
ATOM     22  C   LIG    1       15.995 -29.832  14.940  0.00  0.00    +0.086 C 
ATOM     23  C   LIG    1       16.976 -30.072  13.818  0.00  0.00    +0.134 C 
ATOM     24  O   LIG    1       16.713 -30.889  12.936  0.00  0.00    -0.297 OA
ENDBRANCH   1  23
BRANCH   7  25
ATOM     25  O   LIG    1       21.124 -31.119  10.949  0.00  0.00    -0.392 OA
ATOM     26  H   LIG    1       21.123 -30.770  10.040  0.00  0.00    +0.210 HD
ENDBRANCH   7  25
TORSDOF 2
ENDMDL
MODEL 5
REMARK VINA RESULT:      -5.4      8.970     10.536
REMARK  Name = *****
REMARK                            x       y       z     vdW  Elec       q    Type
REMARK                         _______ _______ _______ _____ _____    ______ ____
ROOT
ATOM      1  C   LIG    1       26.585 -26.217  14.902  0.00  0.00    +0.061 C 
ATOM      2  C   LIG    1       26.069 -27.171  13.789  0.00  0.00    -0.017 C 
ATOM      3  C   LIG    1       26.863 -27.006  12.466  0.00  0.00    +0.012 C 
ATOM      4  C   LIG    1       24.616 -26.653  13.580  0.00  0.00    -0.001 C 
ATOM      5  C   LIG    1       23.589 -27.163  14.631  0.00  0.00    -0.000 C 
ATOM      6  C   LIG    1       23.630 -28.694  14.887  0.00  0.00    +0.031 C 
ATOM      7  C   LIG    1       25.092 -29.080  15.226  0.00  0.00    +0.119 C 
ATOM      8  C   LIG    1       22.805 -29.609  13.876  0.00  0.00    -0.005 C 
ATOM      9  C   LIG    1       22.448 -30.939  14.613  0.00  0.00    +0.016 C 
ATOM     10  C   LIG    1       21.496 -28.931  13.398  0.00  0.00    -0.057 C 
ATOM     11  C   LIG    1       20.596 -29.660  12.700  0.00  0.00    +0.046 C 
ATOM     12  C   LIG    1       21.253 -30.126  11.422  0.00  0.00    +0.156 C 
ATOM     13  O   LIG    1       20.588 -30.190  10.391  0.00  0.00    -0.293 OA
ATOM     14  C   LIG    1       22.678 -30.656  11.510  0.00  0.00    +0.080 C 
ATOM     15  C   LIG    1       21.540 -27.430  13.138  0.00  0.00    +0.013 C 
ATOM     16  C   LIG    1       20.164 -26.811  12.837  0.00  0.00    +0.012 C 
ATOM     17  C   LIG    1       23.551 -29.955  12.565  0.00  0.00    +0.019 C 
ATOM     18  C   LIG    1       22.146 -26.716  14.344  0.00  0.00    +0.012 C 
ATOM     19  C   LIG    1       24.787 -25.120  13.643  0.00  0.00    +0.005 C 
ATOM     20  C   LIG    1       26.119 -28.653  14.183  0.00  0.00    +0.039 C 
ATOM     21  C   LIG    1       26.025 -24.849  14.500  0.00  0.00    +0.012 C 
ENDROOT
BRANCH   1  23
ATOM     22  C   LIG    1       28.764 -24.846  15.242  0.00  0.00    +0.086 C 
ATOM     23  C   LIG    1       28.094 -26.196  15.160  0.00  0.00    +0.134 C 
ATOM     24  O   LIG    1       28.732 -27.216  15.422  0.00  0.00    -0.297 OA
ENDBRANCH   1  23
BRANCH   7  25
ATOM     25  O   LIG    1       25.237 -30.471  15.472  0.00  0.00    -0.392 OA
ATOM     26  H   LIG    1       25.428 -30.589  16.419  0.00  0.00    +0.210 HD
ENDBRANCH   7  25
TORSDOF 2
ENDMDL
MODEL 6
REMARK VINA RESULT:      -5.4      8.114     10.051
REMARK  Name = *****
REMARK                            x       y       z     vdW  Elec       q    Type
REMARK                         _______ _______ _______ _____ _____    ______ ____
ROOT
ATOM      1  C   LIG    1       26.657 -25.610  14.915  0.00  0.00    +0.061 C 
ATOM      2  C   LIG    1       26.487 -26.354  13.561  0.00  0.00    -0.017 C 
ATOM      3  C   LIG    1       26.958 -25.491  12.360  0.00  0.00    +0.012 C 
ATOM      4  C   LIG    1       24.943 -26.528  13.489  0.00  0.00    -0.001 C 
ATOM      5  C   LIG    1       24.385 -27.716  14.325  0.00  0.00    -0.000 C 
ATOM      6  C   LIG    1       25.133 -29.061  14.117  0.00  0.00    +0.031 C 
ATOM      7  C   LIG    1       26.644 -28.806  14.352  0.00  0.00    +0.119 C 
ATOM      8  C   LIG    1       24.685 -29.942  12.867  0.00  0.00    -0.005 C 
ATOM      9  C   LIG    1       25.049 -31.430  13.172  0.00  0.00    +0.016 C 
ATOM     10  C   LIG    1       23.163 -29.842  12.588  0.00  0.00    -0.057 C 
ATOM     11  C   LIG    1       22.604 -30.684  11.690  0.00  0.00    +0.046 C 
ATOM     12  C   LIG    1       23.239 -30.431  10.343  0.00  0.00    +0.156 C 
ATOM     13  O   LIG    1       22.552 -30.512   9.328  0.00  0.00    -0.293 OA
ATOM     14  C   LIG    1       24.750 -30.246  10.295  0.00  0.00    +0.080 C 
ATOM     15  C   LIG    1       22.504 -28.482  12.784  0.00  0.00    +0.013 C 
ATOM     16  C   LIG    1       20.971 -28.511  12.656  0.00  0.00    +0.012 C 
ATOM     17  C   LIG    1       25.341 -29.537  11.525  0.00  0.00    +0.019 C 
ATOM     18  C   LIG    1       22.871 -27.925  14.158  0.00  0.00    +0.012 C 
ATOM     19  C   LIG    1       24.421 -25.170  14.006  0.00  0.00    +0.005 C 
ATOM     20  C   LIG    1       27.239 -27.691  13.500  0.00  0.00    +0.039 C 
ATOM     21  C   LIG    1       25.503 -24.602  14.926  0.00  0.00    +0.012 C 
ENDROOT
BRANCH   1  23
ATOM     22  C   LIG    1       29.171 -25.892  15.500  0.00  0.00    +0.086 C 
ATOM     23  C   LIG    1       28.019 -24.967  15.194  0.00  0.00    +0.134 C 
ATOM     24  O   LIG    1       28.219 -23.761  15.052  0.00  0.00    -0.297 OA
ENDBRANCH   1  23
BRANCH   7  25
ATOM     25  O   LIG    1       27.421 -29.982  14.178  0.00  0.00    -0.392 OA
ATOM     26  H   LIG    1       27.808 -30.215  15.040  0.00  0.00    +0.210 HD
ENDBRANCH   7  25
TORSDOF 2
ENDMDL
MODEL 7
REMARK VINA RESULT:      -5.3      9.412     11.684
REMARK  Name = *****
REMARK                            x       y       z     vdW  Elec       q    Type
REMARK                         _______ _______ _______ _____ _____    ______ ____
ROOT
ATOM      1  C   LIG    1       26.090 -31.380   9.841  0.00  0.00    +0.061 C 
ATOM      2  C   LIG    1       24.684 -30.732   9.979  0.00  0.00    -0.017 C 
ATOM      3  C   LIG    1       24.067 -30.378   8.600  0.00  0.00    +0.012 C 
ATOM      4  C   LIG    1       25.017 -29.418  10.743  0.00  0.00    -0.001 C 
ATOM      5  C   LIG    1       25.199 -29.589  12.279  0.00  0.00    -0.000 C 
ATOM      6  C   LIG    1       24.074 -30.399  12.978  0.00  0.00    +0.031 C 
ATOM      7  C   LIG    1       23.923 -31.748  12.228  0.00  0.00    +0.119 C 
ATOM      8  C   LIG    1       22.762 -29.593  13.387  0.00  0.00    -0.005 C 
ATOM      9  C   LIG    1       22.079 -30.353  14.568  0.00  0.00    +0.016 C 
ATOM     10  C   LIG    1       23.074 -28.142  13.835  0.00  0.00    -0.057 C 
ATOM     11  C   LIG    1       22.093 -27.403  14.400  0.00  0.00    +0.046 C 
ATOM     12  C   LIG    1       20.981 -27.242  13.390  0.00  0.00    +0.156 C 
ATOM     13  O   LIG    1       20.360 -26.183  13.342  0.00  0.00    -0.293 OA
ATOM     14  C   LIG    1       20.571 -28.468  12.585  0.00  0.00    +0.080 C 
ATOM     15  C   LIG    1       24.171 -27.399  13.082  0.00  0.00    +0.013 C 
ATOM     16  C   LIG    1       24.535 -26.037  13.699  0.00  0.00    +0.012 C 
ATOM     17  C   LIG    1       21.729 -29.421  12.247  0.00  0.00    +0.019 C 
ATOM     18  C   LIG    1       25.429 -28.261  13.020  0.00  0.00    +0.012 C 
ATOM     19  C   LIG    1       26.319 -28.946  10.061  0.00  0.00    +0.005 C 
ATOM     20  C   LIG    1       23.677 -31.615  10.729  0.00  0.00    +0.039 C 
ATOM     21  C   LIG    1       27.006 -30.197   9.509  0.00  0.00    +0.012 C 
ENDROOT
BRANCH   1  23
ATOM     22  C   LIG    1       27.020 -32.289   7.594  0.00  0.00    +0.086 C 
ATOM     23  C   LIG    1       26.230 -32.542   8.854  0.00  0.00    +0.134 C 
ATOM     24  O   LIG    1       25.836 -33.679   9.115  0.00  0.00    -0.297 OA
ENDBRANCH   1  23
BRANCH   7  25
ATOM     25  O   LIG    1       22.907 -32.564  12.790  0.00  0.00    -0.392 OA
ATOM     26  H   LIG    1       22.484 -32.062  13.510  0.00  0.00    +0.210 HD
ENDBRANCH   7  25
TORSDOF 2
ENDMDL
MODEL 8
REMARK VINA RESULT:      -5.3      9.480     12.194
REMARK  Name = *****
REMARK                            x       y       z     vdW  Elec       q    Type
REMARK                         _______ _______ _______ _____ _____    ______ ____
ROOT
ATOM      1  C   LIG    1       25.006 -32.241   7.156  0.00  0.00    +0.061 C 
ATOM      2  C   LIG    1       25.427 -32.363   8.648  0.00  0.00    -0.017 C 
ATOM      3  C   LIG    1       25.811 -33.817   9.028  0.00  0.00    +0.012 C 
ATOM      4  C   LIG    1       24.109 -31.974   9.379  0.00  0.00    -0.001 C 
ATOM      5  C   LIG    1       23.848 -30.443   9.475  0.00  0.00    -0.000 C 
ATOM      6  C   LIG    1       25.058 -29.610   9.975  0.00  0.00    +0.031 C 
ATOM      7  C   LIG    1       26.280 -29.965   9.088  0.00  0.00    +0.119 C 
ATOM      8  C   LIG    1       25.254 -29.510  11.553  0.00  0.00    -0.005 C 
ATOM      9  C   LIG    1       26.054 -28.204  11.857  0.00  0.00    +0.016 C 
ATOM     10  C   LIG    1       23.905 -29.464  12.315  0.00  0.00    -0.057 C 
ATOM     11  C   LIG    1       23.906 -29.180  13.637  0.00  0.00    +0.046 C 
ATOM     12  C   LIG    1       24.692 -30.253  14.352  0.00  0.00    +0.156 C 
ATOM     13  O   LIG    1       24.329 -30.625  15.465  0.00  0.00    -0.293 OA
ATOM     14  C   LIG    1       26.003 -30.710  13.724  0.00  0.00    +0.080 C 
ATOM     15  C   LIG    1       22.771 -30.333  11.783  0.00  0.00    +0.013 C 
ATOM     16  C   LIG    1       21.424 -30.097  12.488  0.00  0.00    +0.012 C 
ATOM     17  C   LIG    1       26.003 -30.709  12.186  0.00  0.00    +0.019 C 
ATOM     18  C   LIG    1       22.592 -30.086  10.287  0.00  0.00    +0.012 C 
ATOM     19  C   LIG    1       23.029 -32.689   8.539  0.00  0.00    +0.005 C 
ATOM     20  C   LIG    1       26.605 -31.454   9.026  0.00  0.00    +0.039 C 
ATOM     21  C   LIG    1       23.594 -32.836   7.125  0.00  0.00    +0.012 C 
ENDROOT
BRANCH   1  23
ATOM     22  C   LIG    1       25.332 -33.819   5.120  0.00  0.00    +0.086 C 
ATOM     23  C   LIG    1       25.941 -32.859   6.113  0.00  0.00    +0.134 C 
ATOM     24  O   LIG    1       27.113 -32.505   5.988  0.00  0.00    -0.297 OA
ENDBRANCH   1  23
BRANCH   7  25
ATOM     25  O   LIG    1       27.447 -29.255   9.473  0.00  0.00    -0.392 OA
ATOM     26  H   LIG    1       27.219 -28.310   9.524  0.00  0.00    +0.210 HD
ENDBRANCH   7  25
TORSDOF 2
ENDMDL
MODEL 9
REMARK VINA RESULT:      -5.1      9.153     12.351
REMARK  Name = *****
REMARK                            x       y       z     vdW  Elec       q    Type
REMARK                         _______ _______ _______ _____ _____    ______ ____
ROOT
ATOM      1  C   LIG    1       20.989 -28.787  14.666  0.00  0.00    +0.061 C 
ATOM      2  C   LIG    1       22.010 -28.803  13.494  0.00  0.00    -0.017 C 
ATOM      3  C   LIG    1       21.411 -29.430  12.207  0.00  0.00    +0.012 C 
ATOM      4  C   LIG    1       23.116 -29.743  14.053  0.00  0.00    -0.001 C 
ATOM      5  C   LIG    1       24.108 -29.063  15.040  0.00  0.00    -0.000 C 
ATOM      6  C   LIG    1       24.690 -27.711  14.544  0.00  0.00    +0.031 C 
ATOM      7  C   LIG    1       23.501 -26.798  14.148  0.00  0.00    +0.119 C 
ATOM      8  C   LIG    1       25.956 -27.789  13.580  0.00  0.00    -0.005 C 
ATOM      9  C   LIG    1       26.741 -26.445  13.708  0.00  0.00    +0.016 C 
ATOM     10  C   LIG    1       26.903 -28.962  13.941  0.00  0.00    -0.057 C 
ATOM     11  C   LIG    1       28.114 -29.036  13.345  0.00  0.00    +0.046 C 
ATOM     12  C   LIG    1       27.901 -29.184  11.856  0.00  0.00    +0.156 C 
ATOM     13  O   LIG    1       28.664 -29.894  11.206  0.00  0.00    -0.293 OA
ATOM     14  C   LIG    1       26.841 -28.308  11.202  0.00  0.00    +0.080 C 
ATOM     15  C   LIG    1       26.258 -30.268  14.391  0.00  0.00    +0.013 C 
ATOM     16  C   LIG    1       27.266 -31.317  14.894  0.00  0.00    +0.012 C 
ATOM     17  C   LIG    1       25.617 -28.024  12.088  0.00  0.00    +0.019 C 
ATOM     18  C   LIG    1       25.247 -29.988  15.500  0.00  0.00    +0.012 C 
ATOM     19  C   LIG    1       22.301 -30.860  14.740  0.00  0.00    +0.005 C 
ATOM     20  C   LIG    1       22.544 -27.410  13.131  0.00  0.00    +0.039 C 
ATOM     21  C   LIG    1       20.961 -30.242  15.145  0.00  0.00    +0.012 C 
ENDROOT
BRANCH   1  23
ATOM     22  C   LIG    1       19.458 -26.724  14.288  0.00  0.00    +0.086 C 
ATOM     23  C   LIG    1       19.596 -28.225  14.371  0.00  0.00    +0.134 C 
ATOM     24  O   LIG    1       18.642 -28.947  14.081  0.00  0.00    -0.297 OA
ENDBRANCH   1  23
BRANCH   7  25
ATOM     25  O   LIG    1       23.931 -25.532  13.672  0.00  0.00    -0.392 OA
ATOM     26  H   LIG    1       23.140 -25.018  13.432  0.00  0.00    +0.210 HD
ENDBRANCH   7  25
TORSDOF 2
ENDMDL
