MODEL 1
REMARK VINA RESULT:      -7.0      0.000      0.000
REMARK  Name = *****
REMARK                            x       y       z     vdW  Elec       q    Type
REMARK                         _______ _______ _______ _____ _____    ______ ____
ROOT
ATOM      1  C   LIG    1       24.924 -24.924   6.818  0.00  0.00    +0.016 C 
ATOM      2  C   LIG    1       25.708 -25.963   6.496  0.00  0.00    +0.079 C 
ENDROOT
BRANCH   2   3
ATOM      3  C   LIG    1       25.365 -27.388   6.635  0.00  0.00    +0.208 C 
ATOM      4  N   LIG    1       25.751 -28.103   7.735  0.00  0.00    -0.194 NA
ATOM      5  C   LIG    1       26.651 -27.442   8.712  0.00  0.00    +0.439 C 
ATOM      6  C   LIG    1       25.309 -29.394   7.924  0.00  0.00    +0.215 C 
ATOM      7  C   LIG    1       24.404 -29.956   6.993  0.00  0.00    +0.048 C 
ATOM      8  C   LIG    1       23.874 -31.248   7.196  0.00  0.00    +0.037 C 
ATOM      9  C   LIG    1       24.223 -32.058   8.288  0.00  0.00    +0.030 C 
ATOM     10  C   LIG    1       25.135 -31.492   9.186  0.00  0.00    +0.029 C 
ATOM     11  C   LIG    1       24.022 -29.227   5.872  0.00  0.00    +0.021 C 
ATOM     12  C   LIG    1       25.678 -30.205   9.006  0.00  0.00    +0.081 C 
ATOM     13  C   LIG    1       24.513 -27.946   5.686  0.00  0.00    +0.079 C 
BRANCH   9  14
ATOM     14  N   LIG    1       23.653 -33.316   8.488  0.00  0.00    -0.336 NA
ATOM     15  C   LIG    1       22.669 -33.824   7.525  0.00  0.00    +0.129 C 
ATOM     16  C   LIG    1       23.438 -33.790   9.861  0.00  0.00    +0.129 C 
ENDBRANCH   9  14
ENDBRANCH   2   3
BRANCH   1  22
ATOM     17  C   LIG    1       26.843 -20.393   7.872  0.00  0.00    +0.064 C 
ATOM     18  C   LIG    1       26.225 -21.523   7.117  0.00  0.00    +0.021 C 
ATOM     19  N   LIG    1       25.603 -21.437   5.865  0.00  0.00    -0.317 NA
ATOM     20  C   LIG    1       25.055 -22.713   5.592  0.00  0.00    +0.028 C 
ATOM     21  C   LIG    1       24.382 -23.063   4.301  0.00  0.00    +0.064 C 
ATOM     22  C   LIG    1       25.324 -23.549   6.669  0.00  0.00    -0.004 C 
ATOM     23  C   LIG    1       26.068 -22.806   7.601  0.00  0.00    +0.031 C 
BRANCH  19  24
ATOM     24  C   LIG    1       25.530 -20.262   5.027  0.00  0.00    +0.046 C 
ATOM     25  C   LIG    1       24.296 -19.755   4.595  0.00  0.00    +0.026 C 
ATOM     26  C   LIG    1       24.225 -18.628   3.766  0.00  0.00    +0.002 C 
ATOM     27  C   LIG    1       25.383 -17.961   3.390  0.00  0.00    +0.000 C 
ATOM     28  C   LIG    1       26.616 -18.431   3.830  0.00  0.00    +0.002 C 
ATOM     29  C   LIG    1       26.691 -19.582   4.626  0.00  0.00    +0.026 C 
ENDBRANCH  19  24
ENDBRANCH   1  22
TORSDOF 4
ENDMDL
MODEL 2
REMARK VINA RESULT:      -6.7      0.943      1.166
REMARK  Name = *****
REMARK                            x       y       z     vdW  Elec       q    Type
REMARK                         _______ _______ _______ _____ _____    ______ ____
ROOT
ATOM      1  C   LIG    1       25.210 -25.034   7.102  0.00  0.00    +0.016 C 
ATOM      2  C   LIG    1       25.208 -26.053   6.231  0.00  0.00    +0.079 C 
ENDROOT
BRANCH   2   3
ATOM      3  C   LIG    1       25.075 -27.481   6.561  0.00  0.00    +0.208 C 
ATOM      4  N   LIG    1       25.681 -28.010   7.667  0.00  0.00    -0.194 NA
ATOM      5  C   LIG    1       26.599 -27.137   8.439  0.00  0.00    +0.439 C 
ATOM      6  C   LIG    1       25.440 -29.312   8.046  0.00  0.00    +0.215 C 
ATOM      7  C   LIG    1       24.510 -30.083   7.308  0.00  0.00    +0.048 C 
ATOM      8  C   LIG    1       24.183 -31.395   7.714  0.00  0.00    +0.037 C 
ATOM      9  C   LIG    1       24.765 -32.022   8.826  0.00  0.00    +0.030 C 
ATOM     10  C   LIG    1       25.696 -31.251   9.529  0.00  0.00    +0.029 C 
ATOM     11  C   LIG    1       23.902 -29.542   6.180  0.00  0.00    +0.021 C 
ATOM     12  C   LIG    1       26.040 -29.940   9.145  0.00  0.00    +0.081 C 
ATOM     13  C   LIG    1       24.194 -28.244   5.798  0.00  0.00    +0.079 C 
BRANCH   9  14
ATOM     14  N   LIG    1       24.394 -33.306   9.230  0.00  0.00    -0.336 NA
ATOM     15  C   LIG    1       23.070 -33.823   8.864  0.00  0.00    +0.129 C 
ATOM     16  C   LIG    1       24.900 -33.825  10.506  0.00  0.00    +0.129 C 
ENDBRANCH   9  14
ENDBRANCH   2   3
BRANCH   1  22
ATOM     17  C   LIG    1       27.128 -20.404   6.651  0.00  0.00    +0.064 C 
ATOM     18  C   LIG    1       26.233 -21.584   6.469  0.00  0.00    +0.021 C 
ATOM     19  N   LIG    1       24.960 -21.574   5.883  0.00  0.00    -0.317 NA
ATOM     20  C   LIG    1       24.429 -22.877   6.034  0.00  0.00    +0.028 C 
ATOM     21  C   LIG    1       23.115 -23.304   5.457  0.00  0.00    +0.064 C 
ATOM     22  C   LIG    1       25.357 -23.656   6.715  0.00  0.00    -0.004 C 
ATOM     23  C   LIG    1       26.481 -22.849   6.962  0.00  0.00    +0.031 C 
BRANCH  19  24
ATOM     24  C   LIG    1       24.318 -20.439   5.260  0.00  0.00    +0.046 C 
ATOM     25  C   LIG    1       23.086 -19.957   5.725  0.00  0.00    +0.026 C 
ATOM     26  C   LIG    1       22.452 -18.871   5.108  0.00  0.00    +0.002 C 
ATOM     27  C   LIG    1       23.059 -18.218   4.044  0.00  0.00    +0.000 C 
ATOM     28  C   LIG    1       24.294 -18.663   3.584  0.00  0.00    +0.002 C 
ATOM     29  C   LIG    1       24.910 -19.775   4.174  0.00  0.00    +0.026 C 
ENDBRANCH  19  24
ENDBRANCH   1  22
TORSDOF 4
ENDMDL
MODEL 3
REMARK VINA RESULT:      -6.6      1.406     10.563
REMARK  Name = *****
REMARK                            x       y       z     vdW  Elec       q    Type
REMARK                         _______ _______ _______ _____ _____    ______ ____
ROOT
ATOM      1  C   LIG    1       25.995 -26.489   6.903  0.00  0.00    +0.016 C 
ATOM      2  C   LIG    1       25.573 -25.317   7.400  0.00  0.00    +0.079 C 
ENDROOT
BRANCH   2   3
ATOM      3  C   LIG    1       25.630 -24.012   6.723  0.00  0.00    +0.208 C 
ATOM      4  N   LIG    1       24.904 -23.773   5.588  0.00  0.00    -0.194 NA
ATOM      5  C   LIG    1       24.177 -24.912   4.977  0.00  0.00    +0.439 C 
ATOM      6  C   LIG    1       24.853 -22.511   5.040  0.00  0.00    +0.215 C 
ATOM      7  C   LIG    1       25.517 -21.447   5.697  0.00  0.00    +0.048 C 
ATOM      8  C   LIG    1       25.423 -20.128   5.203  0.00  0.00    +0.037 C 
ATOM      9  C   LIG    1       24.712 -19.792   4.041  0.00  0.00    +0.030 C 
ATOM     10  C   LIG    1       24.081 -20.861   3.395  0.00  0.00    +0.029 C 
ATOM     11  C   LIG    1       26.260 -21.698   6.845  0.00  0.00    +0.021 C 
ATOM     12  C   LIG    1       24.159 -22.186   3.867  0.00  0.00    +0.081 C 
ATOM     13  C   LIG    1       26.327 -22.984   7.353  0.00  0.00    +0.079 C 
BRANCH   9  14
ATOM     14  N   LIG    1       24.601 -18.473   3.596  0.00  0.00    -0.336 NA
ATOM     15  C   LIG    1       25.816 -17.686   3.361  0.00  0.00    +0.129 C 
ATOM     16  C   LIG    1       23.450 -17.671   4.029  0.00  0.00    +0.129 C 
ENDBRANCH   9  14
ENDBRANCH   2   3
BRANCH   1  22
ATOM     17  C   LIG    1       26.920 -30.055  10.331  0.00  0.00    +0.064 C 
ATOM     18  C   LIG    1       26.298 -29.324   9.187  0.00  0.00    +0.021 C 
ATOM     19  N   LIG    1       25.420 -29.866   8.240  0.00  0.00    -0.317 NA
ATOM     20  C   LIG    1       25.185 -28.857   7.275  0.00  0.00    +0.028 C 
ATOM     21  C   LIG    1       24.223 -29.012   6.138  0.00  0.00    +0.064 C 
ATOM     22  C   LIG    1       25.922 -27.732   7.624  0.00  0.00    -0.004 C 
ATOM     23  C   LIG    1       26.593 -28.026   8.823  0.00  0.00    +0.031 C 
BRANCH  19  24
ATOM     24  C   LIG    1       24.877 -31.205   8.248  0.00  0.00    +0.046 C 
ATOM     25  C   LIG    1       23.660 -31.491   8.882  0.00  0.00    +0.026 C 
ATOM     26  C   LIG    1       23.143 -32.792   8.909  0.00  0.00    +0.002 C 
ATOM     27  C   LIG    1       23.812 -33.825   8.264  0.00  0.00    +0.000 C 
ATOM     28  C   LIG    1       25.007 -33.558   7.606  0.00  0.00    +0.002 C 
ATOM     29  C   LIG    1       25.546 -32.264   7.613  0.00  0.00    +0.026 C 
ENDBRANCH  19  24
ENDBRANCH   1  22
TORSDOF 4
ENDMDL
MODEL 4
REMARK VINA RESULT:      -6.0      2.016     10.455
REMARK  Name = *****
REMARK                            x       y       z     vdW  Elec       q    Type
REMARK                         _______ _______ _______ _____ _____    ______ ____
ROOT
ATOM      1  C   LIG    1       25.434 -26.221   6.844  0.00  0.00    +0.016 C 
ATOM      2  C   LIG    1       24.300 -25.528   6.671  0.00  0.00    +0.079 C 
ENDROOT
BRANCH   2   3
ATOM      3  C   LIG    1       24.194 -24.087   6.388  0.00  0.00    +0.208 C 
ATOM      4  N   LIG    1       24.470 -23.590   5.144  0.00  0.00    -0.194 NA
ATOM      5  C   LIG    1       25.025 -24.521   4.132  0.00  0.00    +0.439 C 
ATOM      6  C   LIG    1       24.235 -22.265   4.849  0.00  0.00    +0.215 C 
ATOM      7  C   LIG    1       23.648 -21.434   5.834  0.00  0.00    +0.048 C 
ATOM      8  C   LIG    1       23.325 -20.092   5.540  0.00  0.00    +0.037 C 
ATOM      9  C   LIG    1       23.584 -19.494   4.297  0.00  0.00    +0.030 C 
ATOM     10  C   LIG    1       24.183 -20.326   3.345  0.00  0.00    +0.029 C 
ATOM     11  C   LIG    1       23.377 -21.944   7.098  0.00  0.00    +0.021 C 
ATOM     12  C   LIG    1       24.516 -21.669   3.613  0.00  0.00    +0.081 C 
ATOM     13  C   LIG    1       23.661 -23.269   7.381  0.00  0.00    +0.079 C 
BRANCH   9  14
ATOM     14  N   LIG    1       23.218 -18.176   4.019  0.00  0.00    -0.336 NA
ATOM     15  C   LIG    1       24.259 -17.182   3.733  0.00  0.00    +0.129 C 
ATOM     16  C   LIG    1       22.028 -17.615   4.670  0.00  0.00    +0.129 C 
ENDBRANCH   9  14
ENDBRANCH   2   3
BRANCH   1  22
ATOM     17  C   LIG    1       26.291 -30.561   9.243  0.00  0.00    +0.064 C 
ATOM     18  C   LIG    1       25.810 -29.584   8.222  0.00  0.00    +0.021 C 
ATOM     19  N   LIG    1       25.320 -29.895   6.946  0.00  0.00    -0.317 NA
ATOM     20  C   LIG    1       25.101 -28.666   6.280  0.00  0.00    +0.028 C 
ATOM     21  C   LIG    1       24.491 -28.564   4.917  0.00  0.00    +0.064 C 
ATOM     22  C   LIG    1       25.470 -27.631   7.131  0.00  0.00    -0.004 C 
ATOM     23  C   LIG    1       25.889 -28.212   8.341  0.00  0.00    +0.031 C 
BRANCH  19  24
ATOM     24  C   LIG    1       25.098 -31.222   6.419  0.00  0.00    +0.046 C 
ATOM     25  C   LIG    1       23.862 -31.866   6.570  0.00  0.00    +0.026 C 
ATOM     26  C   LIG    1       23.653 -33.161   6.078  0.00  0.00    +0.002 C 
ATOM     27  C   LIG    1       24.661 -33.818   5.385  0.00  0.00    +0.000 C 
ATOM     28  C   LIG    1       25.886 -33.187   5.200  0.00  0.00    +0.002 C 
ATOM     29  C   LIG    1       26.110 -31.908   5.728  0.00  0.00    +0.026 C 
ENDBRANCH  19  24
ENDBRANCH   1  22
TORSDOF 4
ENDMDL
MODEL 5
REMARK VINA RESULT:      -5.8      1.716     10.535
REMARK  Name = *****
REMARK                            x       y       z     vdW  Elec       q    Type
REMARK                         _______ _______ _______ _____ _____    ______ ____
ROOT
ATOM      1  C   LIG    1       24.317 -26.941   5.923  0.00  0.00    +0.016 C 
ATOM      2  C   LIG    1       23.971 -26.010   6.823  0.00  0.00    +0.079 C 
ENDROOT
BRANCH   2   3
ATOM      3  C   LIG    1       23.815 -24.569   6.570  0.00  0.00    +0.208 C 
ATOM      4  N   LIG    1       24.869 -23.809   6.144  0.00  0.00    -0.194 NA
ATOM      5  C   LIG    1       26.208 -24.447   6.090  0.00  0.00    +0.439 C 
ATOM      6  C   LIG    1       24.685 -22.495   5.776  0.00  0.00    +0.215 C 
ATOM      7  C   LIG    1       23.377 -21.953   5.789  0.00  0.00    +0.048 C 
ATOM      8  C   LIG    1       23.142 -20.633   5.346  0.00  0.00    +0.037 C 
ATOM      9  C   LIG    1       24.163 -19.778   4.906  0.00  0.00    +0.030 C 
ATOM     10  C   LIG    1       25.451 -20.325   4.920  0.00  0.00    +0.029 C 
ATOM     11  C   LIG    1       22.311 -22.728   6.230  0.00  0.00    +0.021 C 
ATOM     12  C   LIG    1       25.712 -21.639   5.357  0.00  0.00    +0.081 C 
ATOM     13  C   LIG    1       22.531 -24.034   6.633  0.00  0.00    +0.079 C 
BRANCH   9  14
ATOM     14  N   LIG    1       23.899 -18.491   4.434  0.00  0.00    -0.336 NA
ATOM     15  C   LIG    1       22.508 -18.047   4.287  0.00  0.00    +0.129 C 
ATOM     16  C   LIG    1       24.819 -17.885   3.464  0.00  0.00    +0.129 C 
ENDBRANCH   9  14
ENDBRANCH   2   3
BRANCH   1  22
ATOM     17  C   LIG    1       23.724 -31.936   5.772  0.00  0.00    +0.064 C 
ATOM     18  C   LIG    1       24.241 -30.587   6.149  0.00  0.00    +0.021 C 
ATOM     19  N   LIG    1       25.046 -30.291   7.256  0.00  0.00    -0.317 NA
ATOM     20  C   LIG    1       25.188 -28.883   7.293  0.00  0.00    +0.028 C 
ATOM     21  C   LIG    1       26.057 -28.167   8.282  0.00  0.00    +0.064 C 
ATOM     22  C   LIG    1       24.466 -28.338   6.239  0.00  0.00    -0.004 C 
ATOM     23  C   LIG    1       23.898 -29.406   5.523  0.00  0.00    +0.031 C 
BRANCH  19  24
ATOM     24  C   LIG    1       25.607 -31.246   8.183  0.00  0.00    +0.046 C 
ATOM     25  C   LIG    1       25.022 -31.469   9.438  0.00  0.00    +0.026 C 
ATOM     26  C   LIG    1       25.577 -32.380  10.346  0.00  0.00    +0.002 C 
ATOM     27  C   LIG    1       26.701 -33.118   9.999  0.00  0.00    +0.000 C 
ATOM     28  C   LIG    1       27.281 -32.933   8.749  0.00  0.00    +0.002 C 
ATOM     29  C   LIG    1       26.751 -31.992   7.856  0.00  0.00    +0.026 C 
ENDBRANCH  19  24
ENDBRANCH   1  22
TORSDOF 4
ENDMDL
MODEL 6
REMARK VINA RESULT:      -5.8      7.774      9.300
REMARK  Name = *****
REMARK                            x       y       z     vdW  Elec       q    Type
REMARK                         _______ _______ _______ _____ _____    ______ ____
ROOT
ATOM      1  C   LIG    1       23.661 -28.901  11.905  0.00  0.00    +0.016 C 
ATOM      2  C   LIG    1       23.426 -30.044  11.246  0.00  0.00    +0.079 C 
ENDROOT
BRANCH   2   3
ATOM      3  C   LIG    1       24.367 -30.749  10.361  0.00  0.00    +0.208 C 
ATOM      4  N   LIG    1       23.937 -31.734   9.514  0.00  0.00    -0.194 NA
ATOM      5  C   LIG    1       22.524 -32.175   9.622  0.00  0.00    +0.439 C 
ATOM      6  C   LIG    1       24.795 -32.291   8.592  0.00  0.00    +0.215 C 
ATOM      7  C   LIG    1       26.116 -31.792   8.490  0.00  0.00    +0.048 C 
ATOM      8  C   LIG    1       26.997 -32.288   7.506  0.00  0.00    +0.037 C 
ATOM      9  C   LIG    1       26.647 -33.306   6.605  0.00  0.00    +0.030 C 
ATOM     10  C   LIG    1       25.344 -33.799   6.735  0.00  0.00    +0.029 C 
ATOM     11  C   LIG    1       26.549 -30.797   9.359  0.00  0.00    +0.021 C 
ATOM     12  C   LIG    1       24.446 -33.321   7.709  0.00  0.00    +0.081 C 
ATOM     13  C   LIG    1       25.678 -30.283  10.304  0.00  0.00    +0.079 C 
BRANCH   9  14
ATOM     14  N   LIG    1       27.523 -33.751   5.614  0.00  0.00    -0.336 NA
ATOM     15  C   LIG    1       28.967 -33.765   5.880  0.00  0.00    +0.129 C 
ATOM     16  C   LIG    1       27.184 -33.516   4.205  0.00  0.00    +0.129 C 
ENDBRANCH   9  14
ENDBRANCH   2   3
BRANCH   1  22
ATOM     17  C   LIG    1       21.677 -25.991  15.500  0.00  0.00    +0.064 C 
ATOM     18  C   LIG    1       21.787 -26.914  14.332  0.00  0.00    +0.021 C 
ATOM     19  N   LIG    1       20.743 -27.658  13.766  0.00  0.00    -0.317 NA
ATOM     20  C   LIG    1       21.320 -28.482  12.771  0.00  0.00    +0.028 C 
ATOM     21  C   LIG    1       20.519 -29.368  11.868  0.00  0.00    +0.064 C 
ATOM     22  C   LIG    1       22.691 -28.254  12.749  0.00  0.00    -0.004 C 
ATOM     23  C   LIG    1       22.966 -27.264  13.707  0.00  0.00    +0.031 C 
BRANCH  19  24
ATOM     24  C   LIG    1       19.350 -27.597  14.145  0.00  0.00    +0.046 C 
ATOM     25  C   LIG    1       18.715 -28.689  14.754  0.00  0.00    +0.026 C 
ATOM     26  C   LIG    1       17.359 -28.638  15.102  0.00  0.00    +0.002 C 
ATOM     27  C   LIG    1       16.624 -27.480  14.889  0.00  0.00    +0.000 C 
ATOM     28  C   LIG    1       17.241 -26.376  14.311  0.00  0.00    +0.002 C 
ATOM     29  C   LIG    1       18.587 -26.439  13.925  0.00  0.00    +0.026 C 
ENDBRANCH  19  24
ENDBRANCH   1  22
TORSDOF 4
ENDMDL
MODEL 7
REMARK VINA RESULT:      -5.7      1.227      2.410
REMARK  Name = *****
REMARK                            x       y       z     vdW  Elec       q    Type
REMARK                         _______ _______ _______ _____ _____    ______ ____
ROOT
ATOM      1  C   LIG    1       24.764 -24.654   6.144  0.00  0.00    +0.016 C 
ATOM      2  C   LIG    1       25.567 -25.708   5.940  0.00  0.00    +0.079 C 
ENDROOT
BRANCH   2   3
ATOM      3  C   LIG    1       25.197 -27.126   6.082  0.00  0.00    +0.208 C 
ATOM      4  N   LIG    1       25.561 -27.843   7.188  0.00  0.00    -0.194 NA
ATOM      5  C   LIG    1       26.467 -27.194   8.169  0.00  0.00    +0.439 C 
ATOM      6  C   LIG    1       25.094 -29.124   7.380  0.00  0.00    +0.215 C 
ATOM      7  C   LIG    1       24.185 -29.674   6.444  0.00  0.00    +0.048 C 
ATOM      8  C   LIG    1       23.630 -30.955   6.649  0.00  0.00    +0.037 C 
ATOM      9  C   LIG    1       23.955 -31.766   7.747  0.00  0.00    +0.030 C 
ATOM     10  C   LIG    1       24.871 -31.213   8.649  0.00  0.00    +0.029 C 
ATOM     11  C   LIG    1       23.825 -28.942   5.317  0.00  0.00    +0.021 C 
ATOM     12  C   LIG    1       25.440 -29.937   8.467  0.00  0.00    +0.081 C 
ATOM     13  C   LIG    1       24.341 -27.671   5.129  0.00  0.00    +0.079 C 
BRANCH   9  14
ATOM     14  N   LIG    1       23.361 -33.013   7.948  0.00  0.00    -0.336 NA
ATOM     15  C   LIG    1       22.818 -33.747   6.800  0.00  0.00    +0.129 C 
ATOM     16  C   LIG    1       22.646 -33.266   9.205  0.00  0.00    +0.129 C 
ENDBRANCH   9  14
ENDBRANCH   2   3
BRANCH   1  22
ATOM     17  C   LIG    1       24.956 -19.875   4.581  0.00  0.00    +0.064 C 
ATOM     18  C   LIG    1       25.259 -21.125   5.338  0.00  0.00    +0.021 C 
ATOM     19  N   LIG    1       26.385 -21.353   6.141  0.00  0.00    -0.317 NA
ATOM     20  C   LIG    1       26.324 -22.704   6.556  0.00  0.00    +0.028 C 
ATOM     21  C   LIG    1       27.303 -23.319   7.509  0.00  0.00    +0.064 C 
ATOM     22  C   LIG    1       25.192 -23.288   6.000  0.00  0.00    -0.004 C 
ATOM     23  C   LIG    1       24.527 -22.293   5.262  0.00  0.00    +0.031 C 
BRANCH  19  24
ATOM     24  C   LIG    1       27.411 -20.389   6.463  0.00  0.00    +0.046 C 
ATOM     25  C   LIG    1       27.777 -20.135   7.792  0.00  0.00    +0.026 C 
ATOM     26  C   LIG    1       28.757 -19.185   8.107  0.00  0.00    +0.002 C 
ATOM     27  C   LIG    1       29.422 -18.504   7.096  0.00  0.00    +0.000 C 
ATOM     28  C   LIG    1       29.094 -18.760   5.769  0.00  0.00    +0.002 C 
ATOM     29  C   LIG    1       28.085 -19.680   5.455  0.00  0.00    +0.026 C 
ENDBRANCH  19  24
ENDBRANCH   1  22
TORSDOF 4
ENDMDL
MODEL 8
REMARK VINA RESULT:      -5.6      1.956     10.744
REMARK  Name = *****
REMARK                            x       y       z     vdW  Elec       q    Type
REMARK                         _______ _______ _______ _____ _____    ______ ____
ROOT
ATOM      1  C   LIG    1       25.037 -26.692   6.499  0.00  0.00    +0.016 C 
ATOM      2  C   LIG    1       23.943 -25.923   6.405  0.00  0.00    +0.079 C 
ENDROOT
BRANCH   2   3
ATOM      3  C   LIG    1       23.917 -24.458   6.260  0.00  0.00    +0.208 C 
ATOM      4  N   LIG    1       24.373 -23.853   5.122  0.00  0.00    -0.194 NA
ATOM      5  C   LIG    1       25.033 -24.703   4.100  0.00  0.00    +0.439 C 
ATOM      6  C   LIG    1       24.218 -22.497   4.936  0.00  0.00    +0.215 C 
ATOM      7  C   LIG    1       23.527 -21.743   5.915  0.00  0.00    +0.048 C 
ATOM      8  C   LIG    1       23.284 -20.366   5.721  0.00  0.00    +0.037 C 
ATOM      9  C   LIG    1       23.727 -19.660   4.592  0.00  0.00    +0.030 C 
ATOM     10  C   LIG    1       24.425 -20.419   3.646  0.00  0.00    +0.029 C 
ATOM     11  C   LIG    1       23.073 -22.363   7.074  0.00  0.00    +0.021 C 
ATOM     12  C   LIG    1       24.680 -21.794   3.816  0.00  0.00    +0.081 C 
ATOM     13  C   LIG    1       23.278 -23.720   7.253  0.00  0.00    +0.079 C 
BRANCH   9  14
ATOM     14  N   LIG    1       23.438 -18.307   4.405  0.00  0.00    -0.336 NA
ATOM     15  C   LIG    1       22.039 -17.874   4.310  0.00  0.00    +0.129 C 
ATOM     16  C   LIG    1       24.367 -17.483   3.622  0.00  0.00    +0.129 C 
ENDBRANCH   9  14
ENDBRANCH   2   3
BRANCH   1  22
ATOM     17  C   LIG    1       23.935 -31.530   5.662  0.00  0.00    +0.064 C 
ATOM     18  C   LIG    1       24.542 -30.304   6.258  0.00  0.00    +0.021 C 
ATOM     19  N   LIG    1       25.233 -30.232   7.475  0.00  0.00    -0.317 NA
ATOM     20  C   LIG    1       25.519 -28.865   7.703  0.00  0.00    +0.028 C 
ATOM     21  C   LIG    1       26.331 -28.374   8.862  0.00  0.00    +0.064 C 
ATOM     22  C   LIG    1       24.995 -28.122   6.652  0.00  0.00    -0.004 C 
ATOM     23  C   LIG    1       24.409 -29.027   5.751  0.00  0.00    +0.031 C 
BRANCH  19  24
ATOM     24  C   LIG    1       25.569 -31.346   8.332  0.00  0.00    +0.046 C 
ATOM     25  C   LIG    1       26.692 -32.145   8.076  0.00  0.00    +0.026 C 
ATOM     26  C   LIG    1       27.007 -33.238   8.893  0.00  0.00    +0.002 C 
ATOM     27  C   LIG    1       26.231 -33.525  10.008  0.00  0.00    +0.000 C 
ATOM     28  C   LIG    1       25.128 -32.729  10.296  0.00  0.00    +0.002 C 
ATOM     29  C   LIG    1       24.788 -31.660   9.456  0.00  0.00    +0.026 C 
ENDBRANCH  19  24
ENDBRANCH   1  22
TORSDOF 4
ENDMDL
MODEL 9
REMARK VINA RESULT:      -5.5      6.464      8.175
REMARK  Name = *****
REMARK                            x       y       z     vdW  Elec       q    Type
REMARK                         _______ _______ _______ _____ _____    ______ ____
ROOT
ATOM      1  C   LIG    1       24.929 -30.006  11.005  0.00  0.00    +0.016 C 
ATOM      2  C   LIG    1       25.931 -29.982  10.116  0.00  0.00    +0.079 C 
ENDROOT
BRANCH   2   3
ATOM      3  C   LIG    1       26.094 -30.883   8.963  0.00  0.00    +0.208 C 
ATOM      4  N   LIG    1       25.592 -30.556   7.734  0.00  0.00    -0.194 NA
ATOM      5  C   LIG    1       24.747 -29.340   7.631  0.00  0.00    +0.439 C 
ATOM      6  C   LIG    1       25.868 -31.334   6.632  0.00  0.00    +0.215 C 
ATOM      7  C   LIG    1       26.728 -32.450   6.774  0.00  0.00    +0.048 C 
ATOM      8  C   LIG    1       27.092 -33.223   5.651  0.00  0.00    +0.037 C 
ATOM      9  C   LIG    1       26.614 -32.970   4.356  0.00  0.00    +0.030 C 
ATOM     10  C   LIG    1       25.749 -31.876   4.241  0.00  0.00    +0.029 C 
ATOM     11  C   LIG    1       27.229 -32.782   8.028  0.00  0.00    +0.021 C 
ATOM     12  C   LIG    1       25.371 -31.088   5.345  0.00  0.00    +0.081 C 
ATOM     13  C   LIG    1       26.903 -32.005   9.126  0.00  0.00    +0.079 C 
BRANCH   9  14
ATOM     14  N   LIG    1       27.021 -33.725   3.256  0.00  0.00    -0.336 NA
ATOM     15  C   LIG    1       28.450 -33.824   2.937  0.00  0.00    +0.129 C 
ATOM     16  C   LIG    1       26.146 -33.799   2.079  0.00  0.00    +0.129 C 
ENDBRANCH   9  14
ENDBRANCH   2   3
BRANCH   1  22
ATOM     17  C   LIG    1       23.215 -27.768  15.174  0.00  0.00    +0.064 C 
ATOM     18  C   LIG    1       24.095 -28.119  14.021  0.00  0.00    +0.021 C 
ATOM     19  N   LIG    1       25.192 -27.376  13.562  0.00  0.00    -0.317 NA
ATOM     20  C   LIG    1       25.649 -28.008  12.382  0.00  0.00    +0.028 C 
ATOM     21  C   LIG    1       26.870 -27.571  11.632  0.00  0.00    +0.064 C 
ATOM     22  C   LIG    1       24.833 -29.103  12.121  0.00  0.00    -0.004 C 
ATOM     23  C   LIG    1       23.884 -29.173  13.156  0.00  0.00    +0.031 C 
BRANCH  19  24
ATOM     24  C   LIG    1       25.732 -26.186  14.178  0.00  0.00    +0.046 C 
ATOM     25  C   LIG    1       26.965 -26.211  14.846  0.00  0.00    +0.026 C 
ATOM     26  C   LIG    1       27.480 -25.063  15.461  0.00  0.00    +0.002 C 
ATOM     27  C   LIG    1       26.794 -23.858  15.381  0.00  0.00    +0.000 C 
ATOM     28  C   LIG    1       25.584 -23.804  14.699  0.00  0.00    +0.002 C 
ATOM     29  C   LIG    1       25.047 -24.962  14.118  0.00  0.00    +0.026 C 
ENDBRANCH  19  24
ENDBRANCH   1  22
TORSDOF 4
ENDMDL
