MODEL 1
REMARK VINA RESULT:      -8.3      0.000      0.000
REMARK  Name = *****
REMARK                            x       y       z     vdW  Elec       q    Type
REMARK                         _______ _______ _______ _____ _____    ______ ____
ROOT
ATOM      1  C   LIG    1       30.021 -19.381   7.802  0.00  0.00    -0.024 C 
ATOM      2  C   LIG    1       28.818 -20.085   8.000  0.00  0.00    +0.015 C 
ATOM      3  C   LIG    1       27.873 -20.173   6.960  0.00  0.00    +0.003 C 
ATOM      4  C   LIG    1       28.156 -19.545   5.748  0.00  0.00    +0.047 C 
ATOM      5  N   LIG    1       27.086 -19.772   4.916  0.00  0.00    -0.360 NA
ATOM      6  H   LIG    1       27.016 -19.432   3.967  0.00  0.00    +0.165 HD
ATOM      7  C   LIG    1       26.139 -20.526   5.556  0.00  0.00    +0.087 C 
ATOM      8  C   LIG    1       29.345 -18.845   5.519  0.00  0.00    +0.026 C 
ATOM      9  C   LIG    1       26.597 -20.807   6.829  0.00  0.00    -0.021 C 
ATOM     10  C   LIG    1       30.271 -18.776   6.564  0.00  0.00    +0.007 C 
ENDROOT
BRANCH   1  11
ATOM     11  C   LIG    1       31.023 -19.283   8.920  0.00  0.00    +0.220 C 
BRANCH  11  12
ATOM     12  S   LIG    1       31.248 -17.558   9.382  0.00  0.00    +0.033 S 
ATOM     13  O   LIG    1       32.244 -16.930   8.547  0.00  0.00    -0.158 OA
ATOM     14  O   LIG    1       29.956 -16.941   9.623  0.00  0.00    -0.158 OA
BRANCH  12  16
ATOM     15  C   LIG    1       31.707 -16.621  11.873  0.00  0.00    +0.127 C 
ATOM     16  N   LIG    1       31.940 -17.710  10.922  0.00  0.00    -0.197 NA
ATOM     17  H   LIG    1       31.757 -18.649  11.283  0.00  0.00    +0.147 HD
ENDBRANCH  12  16
ENDBRANCH  11  12
ENDBRANCH   1  11
BRANCH   9  18
ATOM     18  C   LIG    1       25.895 -21.635   7.862  0.00  0.00    +0.052 C 
BRANCH  18  19
ATOM     19  C   LIG    1       25.477 -23.014   7.322  0.00  0.00    +0.088 C 
BRANCH  19  20
ATOM     20  N   LIG    1       24.169 -23.031   6.632  0.00  0.00    -0.308 NA
ATOM     21  C   LIG    1       23.196 -22.141   7.267  0.00  0.00    +0.104 C 
ATOM     22  C   LIG    1       23.642 -24.400   6.612  0.00  0.00    +0.104 C 
ENDBRANCH  19  20
ENDBRANCH  18  19
ENDBRANCH   9  18
TORSDOF 6
ENDMDL
MODEL 2
REMARK VINA RESULT:      -8.0      1.717      1.946
REMARK  Name = *****
REMARK                            x       y       z     vdW  Elec       q    Type
REMARK                         _______ _______ _______ _____ _____    ______ ____
ROOT
ATOM      1  C   LIG    1       28.930 -19.279   7.535  0.00  0.00    -0.024 C 
ATOM      2  C   LIG    1       27.836 -20.156   7.657  0.00  0.00    +0.015 C 
ATOM      3  C   LIG    1       27.008 -20.411   6.546  0.00  0.00    +0.003 C 
ATOM      4  C   LIG    1       27.296 -19.771   5.341  0.00  0.00    +0.047 C 
ATOM      5  N   LIG    1       26.349 -20.178   4.431  0.00  0.00    -0.360 NA
ATOM      6  H   LIG    1       26.311 -19.873   3.469  0.00  0.00    +0.165 HD
ATOM      7  C   LIG    1       25.477 -21.056   5.017  0.00  0.00    +0.087 C 
ATOM      8  C   LIG    1       28.380 -18.900   5.187  0.00  0.00    +0.026 C 
ATOM      9  C   LIG    1       25.861 -21.236   6.332  0.00  0.00    -0.021 C 
ATOM     10  C   LIG    1       29.191 -18.668   6.303  0.00  0.00    +0.007 C 
ENDROOT
BRANCH   1  11
ATOM     11  C   LIG    1       29.805 -19.005   8.728  0.00  0.00    +0.220 C 
BRANCH  11  12
ATOM     12  S   LIG    1       31.529 -19.281   8.291  0.00  0.00    +0.033 S 
ATOM     13  O   LIG    1       32.227 -19.952   9.362  0.00  0.00    -0.158 OA
ATOM     14  O   LIG    1       31.621 -19.739   6.916  0.00  0.00    -0.158 OA
BRANCH  12  16
ATOM     15  C   LIG    1       31.825 -16.836   9.400  0.00  0.00    +0.127 C 
ATOM     16  N   LIG    1       32.125 -17.695   8.251  0.00  0.00    -0.197 NA
ATOM     17  H   LIG    1       33.105 -17.710   7.962  0.00  0.00    +0.147 HD
ENDBRANCH  12  16
ENDBRANCH  11  12
ENDBRANCH   1  11
BRANCH   9  18
ATOM     18  C   LIG    1       25.206 -22.142   7.330  0.00  0.00    +0.052 C 
BRANCH  18  19
ATOM     19  C   LIG    1       25.735 -23.585   7.247  0.00  0.00    +0.088 C 
BRANCH  19  20
ATOM     20  N   LIG    1       24.797 -24.547   6.626  0.00  0.00    -0.308 NA
ATOM     21  C   LIG    1       25.124 -24.811   5.224  0.00  0.00    +0.104 C 
ATOM     22  C   LIG    1       23.428 -24.031   6.723  0.00  0.00    +0.104 C 
ENDBRANCH  19  20
ENDBRANCH  18  19
ENDBRANCH   9  18
TORSDOF 6
ENDMDL
MODEL 3
REMARK VINA RESULT:      -7.9      4.761      8.250
REMARK  Name = *****
REMARK                            x       y       z     vdW  Elec       q    Type
REMARK                         _______ _______ _______ _____ _____    ______ ____
ROOT
ATOM      1  C   LIG    1       24.550 -24.575   6.147  0.00  0.00    -0.024 C 
ATOM      2  C   LIG    1       25.704 -23.817   6.426  0.00  0.00    +0.015 C 
ATOM      3  C   LIG    1       25.594 -22.587   7.103  0.00  0.00    +0.003 C 
ATOM      4  C   LIG    1       24.326 -22.144   7.476  0.00  0.00    +0.047 C 
ATOM      5  N   LIG    1       24.490 -20.932   8.105  0.00  0.00    -0.360 NA
ATOM      6  H   LIG    1       23.736 -20.376   8.484  0.00  0.00    +0.165 HD
ATOM      7  C   LIG    1       25.817 -20.598   8.148  0.00  0.00    +0.087 C 
ATOM      8  C   LIG    1       23.162 -22.877   7.219  0.00  0.00    +0.026 C 
ATOM      9  C   LIG    1       26.539 -21.609   7.544  0.00  0.00    -0.021 C 
ATOM     10  C   LIG    1       23.298 -24.098   6.551  0.00  0.00    +0.007 C 
ENDROOT
BRANCH   1  11
ATOM     11  C   LIG    1       24.674 -25.884   5.417  0.00  0.00    +0.220 C 
BRANCH  11  12
ATOM     12  S   LIG    1       26.038 -26.835   6.105  0.00  0.00    +0.033 S 
ATOM     13  O   LIG    1       27.274 -26.518   5.429  0.00  0.00    -0.158 OA
ATOM     14  O   LIG    1       25.943 -26.853   7.553  0.00  0.00    -0.158 OA
BRANCH  12  16
ATOM     15  C   LIG    1       24.243 -28.839   5.870  0.00  0.00    +0.127 C 
ATOM     16  N   LIG    1       25.623 -28.409   5.632  0.00  0.00    -0.197 NA
ATOM     17  H   LIG    1       25.976 -28.582   4.688  0.00  0.00    +0.147 HD
ENDBRANCH  12  16
ENDBRANCH  11  12
ENDBRANCH   1  11
BRANCH   9  18
ATOM     18  C   LIG    1       28.030 -21.671   7.402  0.00  0.00    +0.052 C 
BRANCH  18  19
ATOM     19  C   LIG    1       28.668 -20.274   7.306  0.00  0.00    +0.088 C 
BRANCH  19  20
ATOM     20  N   LIG    1       29.562 -19.930   8.434  0.00  0.00    -0.308 NA
ATOM     21  C   LIG    1       30.078 -18.564   8.334  0.00  0.00    +0.104 C 
ATOM     22  C   LIG    1       30.682 -20.876   8.480  0.00  0.00    +0.104 C 
ENDBRANCH  19  20
ENDBRANCH  18  19
ENDBRANCH   9  18
TORSDOF 6
ENDMDL
MODEL 4
REMARK VINA RESULT:      -7.9      2.172      3.157
REMARK  Name = *****
REMARK                            x       y       z     vdW  Elec       q    Type
REMARK                         _______ _______ _______ _____ _____    ______ ____
ROOT
ATOM      1  C   LIG    1       29.424 -19.914   6.992  0.00  0.00    -0.024 C 
ATOM      2  C   LIG    1       28.353 -19.676   6.110  0.00  0.00    +0.015 C 
ATOM      3  C   LIG    1       27.216 -20.508   6.140  0.00  0.00    +0.003 C 
ATOM      4  C   LIG    1       27.187 -21.564   7.048  0.00  0.00    +0.047 C 
ATOM      5  N   LIG    1       25.991 -22.217   6.872  0.00  0.00    -0.360 NA
ATOM      6  H   LIG    1       25.697 -23.027   7.400  0.00  0.00    +0.165 HD
ATOM      7  C   LIG    1       25.260 -21.607   5.888  0.00  0.00    +0.087 C 
ATOM      8  C   LIG    1       28.233 -21.822   7.942  0.00  0.00    +0.026 C 
ATOM      9  C   LIG    1       25.984 -20.530   5.414  0.00  0.00    -0.021 C 
ATOM     10  C   LIG    1       29.348 -20.979   7.898  0.00  0.00    +0.007 C 
ENDROOT
BRANCH   1  11
ATOM     11  C   LIG    1       30.638 -19.028   6.950  0.00  0.00    +0.220 C 
BRANCH  11  12
ATOM     12  S   LIG    1       31.167 -18.646   8.628  0.00  0.00    +0.033 S 
ATOM     13  O   LIG    1       30.049 -18.207   9.429  0.00  0.00    -0.158 OA
ATOM     14  O   LIG    1       32.089 -19.664   9.097  0.00  0.00    -0.158 OA
BRANCH  12  16
ATOM     15  C   LIG    1       32.321 -16.365   9.501  0.00  0.00    +0.127 C 
ATOM     16  N   LIG    1       32.138 -17.280   8.371  0.00  0.00    -0.197 NA
ATOM     17  H   LIG    1       32.997 -17.561   7.895  0.00  0.00    +0.147 HD
ENDBRANCH  12  16
ENDBRANCH  11  12
ENDBRANCH   1  11
BRANCH   9  18
ATOM     18  C   LIG    1       25.546 -19.563   4.357  0.00  0.00    +0.052 C 
BRANCH  18  19
ATOM     19  C   LIG    1       24.133 -19.871   3.831  0.00  0.00    +0.088 C 
BRANCH  19  20
ATOM     20  N   LIG    1       23.044 -19.569   4.785  0.00  0.00    -0.308 NA
ATOM     21  C   LIG    1       22.116 -20.690   4.939  0.00  0.00    +0.104 C 
ATOM     22  C   LIG    1       22.309 -18.382   4.333  0.00  0.00    +0.104 C 
ENDBRANCH  19  20
ENDBRANCH  18  19
ENDBRANCH   9  18
TORSDOF 6
ENDMDL
MODEL 5
REMARK VINA RESULT:      -7.8      3.102      5.152
REMARK  Name = *****
REMARK                            x       y       z     vdW  Elec       q    Type
REMARK                         _______ _______ _______ _____ _____    ______ ____
ROOT
ATOM      1  C   LIG    1       25.939 -21.210   7.608  0.00  0.00    -0.024 C 
ATOM      2  C   LIG    1       26.172 -22.558   7.275  0.00  0.00    +0.015 C 
ATOM      3  C   LIG    1       25.098 -23.389   6.903  0.00  0.00    +0.003 C 
ATOM      4  C   LIG    1       23.814 -22.848   6.882  0.00  0.00    +0.047 C 
ATOM      5  N   LIG    1       22.958 -23.853   6.499  0.00  0.00    -0.360 NA
ATOM      6  H   LIG    1       21.958 -23.746   6.397  0.00  0.00    +0.165 HD
ATOM      7  C   LIG    1       23.656 -25.008   6.271  0.00  0.00    +0.087 C 
ATOM      8  C   LIG    1       23.551 -21.511   7.201  0.00  0.00    +0.026 C 
ATOM      9  C   LIG    1       24.995 -24.758   6.500  0.00  0.00    -0.021 C 
ATOM     10  C   LIG    1       24.634 -20.704   7.562  0.00  0.00    +0.007 C 
ENDROOT
BRANCH   1  11
ATOM     11  C   LIG    1       27.089 -20.329   8.013  0.00  0.00    +0.220 C 
BRANCH  11  12
ATOM     12  S   LIG    1       28.335 -20.326   6.714  0.00  0.00    +0.033 S 
ATOM     13  O   LIG    1       29.196 -21.480   6.829  0.00  0.00    -0.158 OA
ATOM     14  O   LIG    1       27.728 -19.950   5.451  0.00  0.00    -0.158 OA
BRANCH  12  16
ATOM     15  C   LIG    1       30.722 -19.179   7.247  0.00  0.00    +0.127 C 
ATOM     16  N   LIG    1       29.273 -18.983   7.152  0.00  0.00    -0.197 NA
ATOM     17  H   LIG    1       28.979 -18.173   6.603  0.00  0.00    +0.147 HD
ENDBRANCH  12  16
ENDBRANCH  11  12
ENDBRANCH   1  11
BRANCH   9  18
ATOM     18  C   LIG    1       26.121 -25.733   6.336  0.00  0.00    +0.052 C 
BRANCH  18  19
ATOM     19  C   LIG    1       25.824 -26.796   5.265  0.00  0.00    +0.088 C 
BRANCH  19  20
ATOM     20  N   LIG    1       25.480 -28.131   5.803  0.00  0.00    -0.308 NA
ATOM     21  C   LIG    1       24.153 -28.576   5.374  0.00  0.00    +0.104 C 
ATOM     22  C   LIG    1       25.538 -28.100   7.268  0.00  0.00    +0.104 C 
ENDBRANCH  19  20
ENDBRANCH  18  19
ENDBRANCH   9  18
TORSDOF 6
ENDMDL
MODEL 6
REMARK VINA RESULT:      -7.5      2.664      4.253
REMARK  Name = *****
REMARK                            x       y       z     vdW  Elec       q    Type
REMARK                         _______ _______ _______ _____ _____    ______ ____
ROOT
ATOM      1  C   LIG    1       27.403 -21.546   7.844  0.00  0.00    -0.024 C 
ATOM      2  C   LIG    1       26.871 -22.678   7.198  0.00  0.00    +0.015 C 
ATOM      3  C   LIG    1       25.476 -22.830   7.074  0.00  0.00    +0.003 C 
ATOM      4  C   LIG    1       24.649 -21.844   7.611  0.00  0.00    +0.047 C 
ATOM      5  N   LIG    1       23.352 -22.228   7.367  0.00  0.00    -0.360 NA
ATOM      6  H   LIG    1       22.536 -21.701   7.645  0.00  0.00    +0.165 HD
ATOM      7  C   LIG    1       23.330 -23.418   6.691  0.00  0.00    +0.087 C 
ATOM      8  C   LIG    1       25.147 -20.705   8.252  0.00  0.00    +0.026 C 
ATOM      9  C   LIG    1       24.634 -23.821   6.479  0.00  0.00    -0.021 C 
ATOM     10  C   LIG    1       26.536 -20.573   8.357  0.00  0.00    +0.007 C 
ENDROOT
BRANCH   1  11
ATOM     11  C   LIG    1       28.893 -21.394   7.981  0.00  0.00    +0.220 C 
BRANCH  11  12
ATOM     12  S   LIG    1       29.367 -19.702   7.590  0.00  0.00    +0.033 S 
ATOM     13  O   LIG    1       28.860 -19.316   6.294  0.00  0.00    -0.158 OA
ATOM     14  O   LIG    1       29.193 -18.860   8.759  0.00  0.00    -0.158 OA
BRANCH  12  16
ATOM     15  C   LIG    1       31.877 -18.787   7.985  0.00  0.00    +0.127 C 
ATOM     16  N   LIG    1       31.047 -19.854   7.421  0.00  0.00    -0.197 NA
ATOM     17  H   LIG    1       31.327 -20.804   7.675  0.00  0.00    +0.147 HD
ENDBRANCH  12  16
ENDBRANCH  11  12
ENDBRANCH   1  11
BRANCH   9  18
ATOM     18  C   LIG    1       25.075 -25.051   5.745  0.00  0.00    +0.052 C 
BRANCH  18  19
ATOM     19  C   LIG    1       24.094 -26.222   5.924  0.00  0.00    +0.088 C 
BRANCH  19  20
ATOM     20  N   LIG    1       24.589 -27.521   5.416  0.00  0.00    -0.308 NA
ATOM     21  C   LIG    1       24.465 -28.588   6.411  0.00  0.00    +0.104 C 
ATOM     22  C   LIG    1       25.992 -27.388   5.011  0.00  0.00    +0.104 C 
ENDBRANCH  19  20
ENDBRANCH  18  19
ENDBRANCH   9  18
TORSDOF 6
ENDMDL
MODEL 7
REMARK VINA RESULT:      -7.5      2.356      2.988
REMARK  Name = *****
REMARK                            x       y       z     vdW  Elec       q    Type
REMARK                         _______ _______ _______ _____ _____    ______ ____
ROOT
ATOM      1  C   LIG    1       28.018 -20.969   6.924  0.00  0.00    -0.024 C 
ATOM      2  C   LIG    1       26.773 -21.587   7.143  0.00  0.00    +0.015 C 
ATOM      3  C   LIG    1       25.667 -21.251   6.338  0.00  0.00    +0.003 C 
ATOM      4  C   LIG    1       25.838 -20.296   5.337  0.00  0.00    +0.047 C 
ATOM      5  N   LIG    1       24.624 -20.146   4.710  0.00  0.00    -0.360 NA
ATOM      6  H   LIG    1       24.451 -19.515   3.940  0.00  0.00    +0.165 HD
ATOM      7  C   LIG    1       23.694 -20.976   5.275  0.00  0.00    +0.087 C 
ATOM      8  C   LIG    1       27.064 -19.669   5.091  0.00  0.00    +0.026 C 
ATOM      9  C   LIG    1       24.307 -21.690   6.286  0.00  0.00    -0.021 C 
ATOM     10  C   LIG    1       28.149 -20.024   5.899  0.00  0.00    +0.007 C 
ENDROOT
BRANCH   1  11
ATOM     11  C   LIG    1       29.193 -21.326   7.792  0.00  0.00    +0.220 C 
BRANCH  11  12
ATOM     12  S   LIG    1       30.238 -19.878   8.023  0.00  0.00    +0.033 S 
ATOM     13  O   LIG    1       30.882 -19.510   6.784  0.00  0.00    -0.158 OA
ATOM     14  O   LIG    1       29.548 -18.900   8.845  0.00  0.00    -0.158 OA
BRANCH  12  16
ATOM     15  C   LIG    1       31.481 -21.948   9.233  0.00  0.00    +0.127 C 
ATOM     16  N   LIG    1       31.453 -20.497   9.029  0.00  0.00    -0.197 NA
ATOM     17  H   LIG    1       32.349 -20.076   8.775  0.00  0.00    +0.147 HD
ENDBRANCH  12  16
ENDBRANCH  11  12
ENDBRANCH   1  11
BRANCH   9  18
ATOM     18  C   LIG    1       23.668 -22.739   7.145  0.00  0.00    +0.052 C 
BRANCH  18  19
ATOM     19  C   LIG    1       23.745 -24.140   6.514  0.00  0.00    +0.088 C 
BRANCH  19  20
ATOM     20  N   LIG    1       25.065 -24.482   5.939  0.00  0.00    -0.308 NA
ATOM     21  C   LIG    1       24.947 -25.229   4.686  0.00  0.00    +0.104 C 
ATOM     22  C   LIG    1       25.834 -25.269   6.909  0.00  0.00    +0.104 C 
ENDBRANCH  19  20
ENDBRANCH  18  19
ENDBRANCH   9  18
TORSDOF 6
ENDMDL
MODEL 8
REMARK VINA RESULT:      -7.3      3.979      7.409
REMARK  Name = *****
REMARK                            x       y       z     vdW  Elec       q    Type
REMARK                         _______ _______ _______ _____ _____    ______ ____
ROOT
ATOM      1  C   LIG    1       25.969 -21.584   6.822  0.00  0.00    -0.024 C 
ATOM      2  C   LIG    1       27.231 -21.264   7.358  0.00  0.00    +0.015 C 
ATOM      3  C   LIG    1       28.042 -20.301   6.726  0.00  0.00    +0.003 C 
ATOM      4  C   LIG    1       27.569 -19.690   5.566  0.00  0.00    +0.047 C 
ATOM      5  N   LIG    1       28.539 -18.810   5.149  0.00  0.00    -0.360 NA
ATOM      6  H   LIG    1       28.467 -18.225   4.328  0.00  0.00    +0.165 HD
ATOM      7  C   LIG    1       29.605 -18.839   6.007  0.00  0.00    +0.087 C 
ATOM      8  C   LIG    1       26.317 -19.982   5.014  0.00  0.00    +0.026 C 
ATOM      9  C   LIG    1       29.330 -19.748   7.010  0.00  0.00    -0.021 C 
ATOM     10  C   LIG    1       25.527 -20.937   5.662  0.00  0.00    +0.007 C 
ENDROOT
BRANCH   1  11
ATOM     11  C   LIG    1       25.111 -22.619   7.497  0.00  0.00    +0.220 C 
BRANCH  11  12
ATOM     12  S   LIG    1       24.981 -24.076   6.448  0.00  0.00    +0.033 S 
ATOM     13  O   LIG    1       25.149 -23.721   5.058  0.00  0.00    -0.158 OA
ATOM     14  O   LIG    1       25.709 -25.180   7.047  0.00  0.00    -0.158 OA
BRANCH  12  16
ATOM     15  C   LIG    1       22.385 -23.387   6.735  0.00  0.00    +0.127 C 
ATOM     16  N   LIG    1       23.349 -24.488   6.644  0.00  0.00    -0.197 NA
ATOM     17  H   LIG    1       23.105 -25.226   5.981  0.00  0.00    +0.147 HD
ENDBRANCH  12  16
ENDBRANCH  11  12
ENDBRANCH   1  11
BRANCH   9  18
ATOM     18  C   LIG    1       30.208 -20.071   8.181  0.00  0.00    +0.052 C 
BRANCH  18  19
ATOM     19  C   LIG    1       31.467 -19.188   8.229  0.00  0.00    +0.088 C 
BRANCH  19  20
ATOM     20  N   LIG    1       31.674 -18.483   9.513  0.00  0.00    -0.308 NA
ATOM     21  C   LIG    1       30.416 -18.246  10.223  0.00  0.00    +0.104 C 
ATOM     22  C   LIG    1       32.350 -17.205   9.270  0.00  0.00    +0.104 C 
ENDBRANCH  19  20
ENDBRANCH  18  19
ENDBRANCH   9  18
TORSDOF 6
ENDMDL
MODEL 9
REMARK VINA RESULT:      -6.9      2.826      4.053
REMARK  Name = *****
REMARK                            x       y       z     vdW  Elec       q    Type
REMARK                         _______ _______ _______ _____ _____    ______ ____
ROOT
ATOM      1  C   LIG    1       26.835 -20.000   5.441  0.00  0.00    -0.024 C 
ATOM      2  C   LIG    1       25.891 -20.802   6.110  0.00  0.00    +0.015 C 
ATOM      3  C   LIG    1       24.560 -20.855   5.651  0.00  0.00    +0.003 C 
ATOM      4  C   LIG    1       24.209 -20.094   4.538  0.00  0.00    +0.047 C 
ATOM      5  N   LIG    1       22.872 -20.313   4.303  0.00  0.00    -0.360 NA
ATOM      6  H   LIG    1       22.345 -19.889   3.553  0.00  0.00    +0.165 HD
ATOM      7  C   LIG    1       22.368 -21.190   5.226  0.00  0.00    +0.087 C 
ATOM      8  C   LIG    1       25.126 -19.293   3.848  0.00  0.00    +0.026 C 
ATOM      9  C   LIG    1       23.391 -21.560   6.077  0.00  0.00    -0.021 C 
ATOM     10  C   LIG    1       26.443 -19.262   4.318  0.00  0.00    +0.007 C 
ENDROOT
BRANCH   1  11
ATOM     11  C   LIG    1       28.253 -19.941   5.941  0.00  0.00    +0.220 C 
BRANCH  11  12
ATOM     12  S   LIG    1       28.313 -20.482   7.657  0.00  0.00    +0.033 S 
ATOM     13  O   LIG    1       27.128 -20.062   8.367  0.00  0.00    -0.158 OA
ATOM     14  O   LIG    1       28.800 -21.847   7.726  0.00  0.00    -0.158 OA
BRANCH  12  16
ATOM     15  C   LIG    1       30.326 -18.716   7.301  0.00  0.00    +0.127 C 
ATOM     16  N   LIG    1       29.590 -19.544   8.260  0.00  0.00    -0.197 NA
ATOM     17  H   LIG    1       29.283 -19.060   9.106  0.00  0.00    +0.147 HD
ENDBRANCH  12  16
ENDBRANCH  11  12
ENDBRANCH   1  11
BRANCH   9  18
ATOM     18  C   LIG    1       23.292 -22.531   7.214  0.00  0.00    +0.052 C 
BRANCH  18  19
ATOM     19  C   LIG    1       23.233 -23.992   6.733  0.00  0.00    +0.088 C 
BRANCH  19  20
ATOM     20  N   LIG    1       24.450 -24.455   6.030  0.00  0.00    -0.308 NA
ATOM     21  C   LIG    1       24.311 -25.823   5.526  0.00  0.00    +0.104 C 
ATOM     22  C   LIG    1       25.600 -24.379   6.935  0.00  0.00    +0.104 C 
ENDBRANCH  19  20
ENDBRANCH  18  19
ENDBRANCH   9  18
TORSDOF 6
ENDMDL
