MODEL 1
REMARK VINA RESULT:      -3.5      0.000      0.000
REMARK  Name = *****
REMARK                            x       y       z     vdW  Elec       q    Type
REMARK                         _______ _______ _______ _____ _____    ______ ____
ROOT
ATOM      1  C   LIG    1       25.441 -16.896   3.631  0.00  0.00    +0.234 C 
ATOM      2  N   LIG    1       26.305 -17.993   3.581  0.00  0.00    -0.284 N 
ATOM      3  H   LIG    1       26.853 -17.990   2.728  0.00  0.00    +0.155 HD
ATOM      4  O   LIG    1       24.338 -16.906   4.159  0.00  0.00    -0.274 OA
ENDROOT
BRANCH   2   5
ATOM      5  C   LIG    1       25.934 -19.240   4.151  0.00  0.00    +0.039 A 
ATOM      6  C   LIG    1       26.691 -19.827   5.193  0.00  0.00    -0.029 A 
ATOM      7  C   LIG    1       28.033 -19.298   5.633  0.00  0.00    +0.045 C 
ATOM      8  C   LIG    1       26.208 -20.979   5.837  0.00  0.00    +0.005 A 
ATOM      9  C   LIG    1       25.017 -21.571   5.436  0.00  0.00    +0.001 A 
ATOM     10  C   LIG    1       24.322 -21.050   4.348  0.00  0.00    +0.005 A 
ATOM     11  C   LIG    1       24.791 -19.913   3.664  0.00  0.00    -0.029 A 
ATOM     12  C   LIG    1       23.985 -19.422   2.494  0.00  0.00    +0.045 C 
ENDBRANCH   2   5
BRANCH   1  14
ATOM     13  N   LIG    1       25.093 -14.456   3.126  0.00  0.00    -0.291 NA
ATOM     14  C   LIG    1       26.020 -15.620   2.946  0.00  0.00    +0.143 C 
ATOM     15  C   LIG    1       27.459 -15.354   3.436  0.00  0.00    +0.028 C 
ATOM     16  C   LIG    1       27.503 -14.818   4.865  0.00  0.00    +0.003 C 
ATOM     17  C   LIG    1       26.550 -13.645   5.041  0.00  0.00    +0.015 C 
ATOM     18  C   LIG    1       25.148 -13.972   4.520  0.00  0.00    +0.085 C 
BRANCH  13  19
ATOM     19  C   LIG    1       25.369 -13.386   2.136  0.00  0.00    +0.085 C 
BRANCH  19  21
ATOM     20  C   LIG    1       23.864 -11.448   2.845  0.00  0.00    +0.005 C 
ATOM     21  C   LIG    1       24.123 -12.539   1.812  0.00  0.00    +0.012 C 
ENDBRANCH  19  21
ENDBRANCH  13  19
ENDBRANCH   1  14
TORSDOF 4
ENDMDL
MODEL 2
REMARK VINA RESULT:      -3.5      1.580      2.025
REMARK  Name = *****
REMARK                            x       y       z     vdW  Elec       q    Type
REMARK                         _______ _______ _______ _____ _____    ______ ____
ROOT
ATOM      1  C   LIG    1       25.953 -16.734   3.530  0.00  0.00    +0.234 C 
ATOM      2  N   LIG    1       24.599 -17.010   3.329  0.00  0.00    -0.284 N 
ATOM      3  H   LIG    1       24.040 -16.167   3.381  0.00  0.00    +0.155 HD
ATOM      4  O   LIG    1       26.743 -17.494   4.073  0.00  0.00    -0.274 OA
ENDROOT
BRANCH   2   5
ATOM      5  C   LIG    1       24.031 -18.235   3.772  0.00  0.00    +0.039 A 
ATOM      6  C   LIG    1       24.619 -19.480   3.443  0.00  0.00    -0.029 A 
ATOM      7  C   LIG    1       25.745 -19.622   2.451  0.00  0.00    +0.045 C 
ATOM      8  C   LIG    1       24.120 -20.657   4.028  0.00  0.00    +0.005 A 
ATOM      9  C   LIG    1       23.034 -20.617   4.892  0.00  0.00    +0.001 A 
ATOM     10  C   LIG    1       22.396 -19.405   5.139  0.00  0.00    +0.005 A 
ATOM     11  C   LIG    1       22.852 -18.211   4.550  0.00  0.00    -0.029 A 
ATOM     12  C   LIG    1       22.099 -16.948   4.862  0.00  0.00    +0.045 C 
ENDBRANCH   2   5
BRANCH   1  14
ATOM     13  N   LIG    1       25.242 -14.375   3.019  0.00  0.00    -0.291 NA
ATOM     14  C   LIG    1       26.389 -15.340   2.983  0.00  0.00    +0.143 C 
ATOM     15  C   LIG    1       27.648 -14.842   3.723  0.00  0.00    +0.028 C 
ATOM     16  C   LIG    1       27.347 -14.382   5.148  0.00  0.00    +0.003 C 
ATOM     17  C   LIG    1       26.175 -13.413   5.177  0.00  0.00    +0.015 C 
ATOM     18  C   LIG    1       24.969 -13.962   4.411  0.00  0.00    +0.085 C 
BRANCH  13  19
ATOM     19  C   LIG    1       25.474 -13.223   2.115  0.00  0.00    +0.085 C 
BRANCH  19  21
ATOM     20  C   LIG    1       23.810 -11.464   2.925  0.00  0.00    +0.005 C 
ATOM     21  C   LIG    1       24.186 -12.434   1.812  0.00  0.00    +0.012 C 
ENDBRANCH  19  21
ENDBRANCH  13  19
ENDBRANCH   1  14
TORSDOF 4
ENDMDL
MODEL 3
REMARK VINA RESULT:      -3.3      1.244      2.296
REMARK  Name = *****
REMARK                            x       y       z     vdW  Elec       q    Type
REMARK                         _______ _______ _______ _____ _____    ______ ____
ROOT
ATOM      1  C   LIG    1       24.642 -16.395   3.801  0.00  0.00    +0.234 C 
ATOM      2  N   LIG    1       24.937 -17.718   3.466  0.00  0.00    -0.284 N 
ATOM      3  H   LIG    1       25.151 -17.809   2.479  0.00  0.00    +0.155 HD
ATOM      4  O   LIG    1       23.845 -16.060   4.667  0.00  0.00    -0.274 OA
ENDROOT
BRANCH   2   5
ATOM      5  C   LIG    1       24.294 -18.799   4.127  0.00  0.00    +0.039 A 
ATOM      6  C   LIG    1       22.883 -18.905   4.162  0.00  0.00    -0.029 A 
ATOM      7  C   LIG    1       21.963 -17.805   3.696  0.00  0.00    +0.045 C 
ATOM      8  C   LIG    1       22.288 -20.066   4.687  0.00  0.00    +0.005 A 
ATOM      9  C   LIG    1       23.067 -21.091   5.207  0.00  0.00    +0.001 A 
ATOM     10  C   LIG    1       24.450 -20.944   5.261  0.00  0.00    +0.005 A 
ATOM     11  C   LIG    1       25.077 -19.784   4.768  0.00  0.00    -0.029 A 
ATOM     12  C   LIG    1       26.574 -19.703   4.874  0.00  0.00    +0.045 C 
ENDBRANCH   2   5
BRANCH   1  14
ATOM     13  N   LIG    1       25.026 -13.955   3.320  0.00  0.00    -0.291 NA
ATOM     14  C   LIG    1       25.441 -15.351   2.962  0.00  0.00    +0.143 C 
ATOM     15  C   LIG    1       26.957 -15.605   3.091  0.00  0.00    +0.028 C 
ATOM     16  C   LIG    1       27.507 -15.190   4.453  0.00  0.00    +0.003 C 
ATOM     17  C   LIG    1       27.072 -13.777   4.814  0.00  0.00    +0.015 C 
ATOM     18  C   LIG    1       25.562 -13.591   4.647  0.00  0.00    +0.085 C 
BRANCH  13  19
ATOM     19  C   LIG    1       25.408 -12.989   2.262  0.00  0.00    +0.085 C 
BRANCH  19  21
ATOM     20  C   LIG    1       23.649 -11.448   3.288  0.00  0.00    +0.005 C 
ATOM     21  C   LIG    1       24.323 -11.925   2.007  0.00  0.00    +0.012 C 
ENDBRANCH  19  21
ENDBRANCH  13  19
ENDBRANCH   1  14
TORSDOF 4
ENDMDL
MODEL 4
REMARK VINA RESULT:      -3.3      1.287      1.452
REMARK  Name = *****
REMARK                            x       y       z     vdW  Elec       q    Type
REMARK                         _______ _______ _______ _____ _____    ______ ____
ROOT
ATOM      1  C   LIG    1       24.586 -16.309   3.817  0.00  0.00    +0.234 C 
ATOM      2  N   LIG    1       24.941 -17.617   3.480  0.00  0.00    -0.284 N 
ATOM      3  H   LIG    1       25.163 -17.695   2.494  0.00  0.00    +0.155 HD
ATOM      4  O   LIG    1       23.771 -16.012   4.680  0.00  0.00    -0.274 OA
ENDROOT
BRANCH   2   5
ATOM      5  C   LIG    1       24.344 -18.727   4.135  0.00  0.00    +0.039 A 
ATOM      6  C   LIG    1       25.127 -19.677   4.834  0.00  0.00    -0.029 A 
ATOM      7  C   LIG    1       26.633 -19.707   4.771  0.00  0.00    +0.045 C 
ATOM      8  C   LIG    1       24.492 -20.670   5.599  0.00  0.00    +0.005 A 
ATOM      9  C   LIG    1       23.106 -20.755   5.645  0.00  0.00    +0.001 A 
ATOM     10  C   LIG    1       22.338 -19.882   4.880  0.00  0.00    +0.005 A 
ATOM     11  C   LIG    1       22.942 -18.892   4.082  0.00  0.00    -0.029 A 
ATOM     12  C   LIG    1       22.039 -17.997   3.280  0.00  0.00    +0.045 C 
ENDBRANCH   2   5
BRANCH   1  14
ATOM     13  N   LIG    1       25.020 -13.853   3.487  0.00  0.00    -0.291 NA
ATOM     14  C   LIG    1       25.342 -15.228   2.985  0.00  0.00    +0.143 C 
ATOM     15  C   LIG    1       26.852 -15.541   2.943  0.00  0.00    +0.028 C 
ATOM     16  C   LIG    1       27.547 -15.253   4.271  0.00  0.00    +0.003 C 
ATOM     17  C   LIG    1       27.206 -13.861   4.780  0.00  0.00    +0.015 C 
ATOM     18  C   LIG    1       25.696 -13.613   4.778  0.00  0.00    +0.085 C 
BRANCH  13  19
ATOM     19  C   LIG    1       25.337 -12.818   2.473  0.00  0.00    +0.085 C 
BRANCH  19  21
ATOM     20  C   LIG    1       23.509 -11.447   3.614  0.00  0.00    +0.005 C 
ATOM     21  C   LIG    1       24.205 -11.786   2.302  0.00  0.00    +0.012 C 
ENDBRANCH  19  21
ENDBRANCH  13  19
ENDBRANCH   1  14
TORSDOF 4
ENDMDL
MODEL 5
REMARK VINA RESULT:      -2.3      1.819      6.681
REMARK  Name = *****
REMARK                            x       y       z     vdW  Elec       q    Type
REMARK                         _______ _______ _______ _____ _____    ______ ____
ROOT
ATOM      1  C   LIG    1       24.393 -19.089   3.783  0.00  0.00    +0.234 C 
ATOM      2  N   LIG    1       25.018 -18.017   4.423  0.00  0.00    -0.284 N 
ATOM      3  H   LIG    1       25.239 -18.241   5.386  0.00  0.00    +0.155 HD
ATOM      4  O   LIG    1       23.545 -18.976   2.908  0.00  0.00    -0.274 OA
ENDROOT
BRANCH   2   5
ATOM      5  C   LIG    1       24.684 -16.675   4.094  0.00  0.00    +0.039 A 
ATOM      6  C   LIG    1       23.373 -16.176   4.285  0.00  0.00    -0.029 A 
ATOM      7  C   LIG    1       22.203 -17.055   4.647  0.00  0.00    +0.045 C 
ATOM      8  C   LIG    1       23.120 -14.806   4.097  0.00  0.00    +0.005 A 
ATOM      9  C   LIG    1       24.130 -13.946   3.689  0.00  0.00    +0.001 A 
ATOM     10  C   LIG    1       25.395 -14.454   3.407  0.00  0.00    +0.005 A 
ATOM     11  C   LIG    1       25.677 -15.825   3.559  0.00  0.00    -0.029 A 
ATOM     12  C   LIG    1       27.065 -16.292   3.224  0.00  0.00    +0.045 C 
ENDBRANCH   2   5
BRANCH   1  14
ATOM     13  N   LIG    1       25.254 -20.422   5.735  0.00  0.00    -0.291 NA
ATOM     14  C   LIG    1       24.886 -20.482   4.284  0.00  0.00    +0.143 C 
ATOM     15  C   LIG    1       23.848 -21.572   3.946  0.00  0.00    +0.028 C 
ATOM     16  C   LIG    1       22.609 -21.497   4.835  0.00  0.00    +0.003 C 
ATOM     17  C   LIG    1       22.991 -21.424   6.306  0.00  0.00    +0.015 C 
ATOM     18  C   LIG    1       24.035 -20.335   6.566  0.00  0.00    +0.085 C 
BRANCH  13  19
ATOM     19  C   LIG    1       26.130 -21.556   6.120  0.00  0.00    +0.085 C 
BRANCH  19  21
ATOM     20  C   LIG    1       28.213 -20.085   6.261  0.00  0.00    +0.005 C 
ATOM     21  C   LIG    1       27.338 -21.114   6.967  0.00  0.00    +0.012 C 
ENDBRANCH  19  21
ENDBRANCH  13  19
ENDBRANCH   1  14
TORSDOF 4
ENDMDL
MODEL 6
REMARK VINA RESULT:      -2.2      1.765      6.480
REMARK  Name = *****
REMARK                            x       y       z     vdW  Elec       q    Type
REMARK                         _______ _______ _______ _____ _____    ______ ____
ROOT
ATOM      1  C   LIG    1       24.307 -18.659   3.730  0.00  0.00    +0.234 C 
ATOM      2  N   LIG    1       25.084 -17.627   4.260  0.00  0.00    -0.284 N 
ATOM      3  H   LIG    1       25.457 -17.877   5.169  0.00  0.00    +0.155 HD
ATOM      4  O   LIG    1       23.326 -18.492   3.018  0.00  0.00    -0.274 OA
ENDROOT
BRANCH   2   5
ATOM      5  C   LIG    1       24.763 -16.266   4.005  0.00  0.00    +0.039 A 
ATOM      6  C   LIG    1       25.729 -15.367   3.493  0.00  0.00    -0.029 A 
ATOM      7  C   LIG    1       27.192 -15.711   3.373  0.00  0.00    +0.045 C 
ATOM      8  C   LIG    1       25.335 -14.074   3.106  0.00  0.00    +0.005 A 
ATOM      9  C   LIG    1       24.019 -13.656   3.259  0.00  0.00    +0.001 A 
ATOM     10  C   LIG    1       23.092 -14.507   3.852  0.00  0.00    +0.005 A 
ATOM     11  C   LIG    1       23.458 -15.799   4.275  0.00  0.00    -0.029 A 
ATOM     12  C   LIG    1       22.397 -16.649   4.916  0.00  0.00    +0.045 C 
ENDBRANCH   2   5
BRANCH   1  14
ATOM     13  N   LIG    1       25.114 -20.144   5.593  0.00  0.00    -0.291 NA
ATOM     14  C   LIG    1       24.810 -20.080   4.127  0.00  0.00    +0.143 C 
ATOM     15  C   LIG    1       23.814 -21.156   3.647  0.00  0.00    +0.028 C 
ATOM     16  C   LIG    1       22.537 -21.186   4.483  0.00  0.00    +0.003 C 
ATOM     17  C   LIG    1       22.854 -21.239   5.970  0.00  0.00    +0.015 C 
ATOM     18  C   LIG    1       23.859 -20.157   6.372  0.00  0.00    +0.085 C 
BRANCH  13  19
ATOM     19  C   LIG    1       26.000 -21.290   5.914  0.00  0.00    +0.085 C 
BRANCH  19  21
ATOM     20  C   LIG    1       28.192 -19.985   6.030  0.00  0.00    +0.005 C 
ATOM     21  C   LIG    1       27.212 -20.884   6.774  0.00  0.00    +0.012 C 
ENDBRANCH  19  21
ENDBRANCH  13  19
ENDBRANCH   1  14
TORSDOF 4
ENDMDL
MODEL 7
REMARK VINA RESULT:      -2.0      1.777      2.842
REMARK  Name = *****
REMARK                            x       y       z     vdW  Elec       q    Type
REMARK                         _______ _______ _______ _____ _____    ______ ____
ROOT
ATOM      1  C   LIG    1       25.544 -16.543   3.480  0.00  0.00    +0.234 C 
ATOM      2  N   LIG    1       24.630 -17.008   4.428  0.00  0.00    -0.284 N 
ATOM      3  H   LIG    1       24.846 -16.652   5.352  0.00  0.00    +0.155 HD
ATOM      4  O   LIG    1       25.906 -17.176   2.497  0.00  0.00    -0.274 OA
ENDROOT
BRANCH   2   5
ATOM      5  C   LIG    1       24.051 -18.301   4.312  0.00  0.00    +0.039 A 
ATOM      6  C   LIG    1       24.854 -19.466   4.287  0.00  0.00    -0.029 A 
ATOM      7  C   LIG    1       26.357 -19.427   4.174  0.00  0.00    +0.045 C 
ATOM      8  C   LIG    1       24.242 -20.731   4.330  0.00  0.00    +0.005 A 
ATOM      9  C   LIG    1       22.858 -20.850   4.357  0.00  0.00    +0.001 A 
ATOM     10  C   LIG    1       22.068 -19.706   4.283  0.00  0.00    +0.005 A 
ATOM     11  C   LIG    1       22.648 -18.426   4.213  0.00  0.00    -0.029 A 
ATOM     12  C   LIG    1       21.722 -17.245   4.126  0.00  0.00    +0.045 C 
ENDBRANCH   2   5
BRANCH   1  14
ATOM     13  N   LIG    1       26.335 -14.362   2.508  0.00  0.00    -0.291 NA
ATOM     14  C   LIG    1       26.074 -15.108   3.781  0.00  0.00    +0.143 C 
ATOM     15  C   LIG    1       25.121 -14.377   4.751  0.00  0.00    +0.028 C 
ATOM     16  C   LIG    1       23.821 -13.944   4.079  0.00  0.00    +0.003 C 
ATOM     17  C   LIG    1       24.094 -13.197   2.782  0.00  0.00    +0.015 C 
ATOM     18  C   LIG    1       25.058 -13.970   1.877  0.00  0.00    +0.085 C 
BRANCH  13  19
ATOM     19  C   LIG    1       27.241 -13.209   2.732  0.00  0.00    +0.085 C 
BRANCH  19  21
ATOM     20  C   LIG    1       28.765 -12.340   4.588  0.00  0.00    +0.005 C 
ATOM     21  C   LIG    1       28.381 -13.530   3.718  0.00  0.00    +0.012 C 
ENDBRANCH  19  21
ENDBRANCH  13  19
ENDBRANCH   1  14
TORSDOF 4
ENDMDL
MODEL 8
REMARK VINA RESULT:      -1.8      2.085      3.564
REMARK  Name = *****
REMARK                            x       y       z     vdW  Elec       q    Type
REMARK                         _______ _______ _______ _____ _____    ______ ____
ROOT
ATOM      1  C   LIG    1       24.234 -14.855   3.867  0.00  0.00    +0.234 C 
ATOM      2  N   LIG    1       24.751 -16.093   4.256  0.00  0.00    -0.284 N 
ATOM      3  H   LIG    1       25.743 -16.156   4.058  0.00  0.00    +0.155 HD
ATOM      4  O   LIG    1       23.099 -14.678   3.448  0.00  0.00    -0.274 OA
ENDROOT
BRANCH   2   5
ATOM      5  C   LIG    1       23.963 -17.272   4.172  0.00  0.00    +0.039 A 
ATOM      6  C   LIG    1       24.470 -18.456   3.585  0.00  0.00    -0.029 A 
ATOM      7  C   LIG    1       25.776 -18.507   2.833  0.00  0.00    +0.045 C 
ATOM      8  C   LIG    1       23.721 -19.643   3.661  0.00  0.00    +0.005 A 
ATOM      9  C   LIG    1       22.473 -19.658   4.269  0.00  0.00    +0.001 A 
ATOM     10  C   LIG    1       21.932 -18.473   4.760  0.00  0.00    +0.005 A 
ATOM     11  C   LIG    1       22.644 -17.262   4.677  0.00  0.00    -0.029 A 
ATOM     12  C   LIG    1       21.983 -16.027   5.222  0.00  0.00    +0.045 C 
ENDBRANCH   2   5
BRANCH   1  14
ATOM     13  N   LIG    1       25.913 -13.378   2.715  0.00  0.00    -0.291 NA
ATOM     14  C   LIG    1       25.251 -13.683   4.024  0.00  0.00    +0.143 C 
ATOM     15  C   LIG    1       24.568 -12.464   4.679  0.00  0.00    +0.028 C 
ATOM     16  C   LIG    1       23.618 -11.743   3.725  0.00  0.00    +0.003 C 
ATOM     17  C   LIG    1       24.294 -11.447   2.395  0.00  0.00    +0.015 C 
ATOM     18  C   LIG    1       24.965 -12.694   1.812  0.00  0.00    +0.085 C 
BRANCH  13  19
ATOM     19  C   LIG    1       27.171 -12.616   2.908  0.00  0.00    +0.085 C 
BRANCH  19  21
ATOM     20  C   LIG    1       28.742 -12.319   4.900  0.00  0.00    +0.005 C 
ATOM     21  C   LIG    1       28.133 -13.296   3.901  0.00  0.00    +0.012 C 
ENDBRANCH  19  21
ENDBRANCH  13  19
ENDBRANCH   1  14
TORSDOF 4
ENDMDL
MODEL 9
REMARK VINA RESULT:      -1.7      1.980      3.567
REMARK  Name = *****
REMARK                            x       y       z     vdW  Elec       q    Type
REMARK                         _______ _______ _______ _____ _____    ______ ____
ROOT
ATOM      1  C   LIG    1       24.252 -15.213   3.905  0.00  0.00    +0.234 C 
ATOM      2  N   LIG    1       24.755 -16.495   4.134  0.00  0.00    -0.284 N 
ATOM      3  H   LIG    1       25.689 -16.598   3.752  0.00  0.00    +0.155 HD
ATOM      4  O   LIG    1       23.072 -14.955   3.714  0.00  0.00    -0.274 OA
ENDROOT
BRANCH   2   5
ATOM      5  C   LIG    1       23.895 -17.626   4.145  0.00  0.00    +0.039 A 
ATOM      6  C   LIG    1       22.557 -17.527   4.598  0.00  0.00    -0.029 A 
ATOM      7  C   LIG    1       22.008 -16.301   5.281  0.00  0.00    +0.045 C 
ATOM      8  C   LIG    1       21.693 -18.626   4.448  0.00  0.00    +0.005 A 
ATOM      9  C   LIG    1       22.146 -19.817   3.897  0.00  0.00    +0.001 A 
ATOM     10  C   LIG    1       23.486 -19.945   3.543  0.00  0.00    +0.005 A 
ATOM     11  C   LIG    1       24.385 -18.875   3.703  0.00  0.00    -0.029 A 
ATOM     12  C   LIG    1       25.816 -19.101   3.304  0.00  0.00    +0.045 C 
ENDBRANCH   2   5
BRANCH   1  14
ATOM     13  N   LIG    1       25.803 -13.787   2.529  0.00  0.00    -0.291 NA
ATOM     14  C   LIG    1       25.349 -14.105   3.922  0.00  0.00    +0.143 C 
ATOM     15  C   LIG    1       24.858 -12.875   4.715  0.00  0.00    +0.028 C 
ATOM     16  C   LIG    1       23.809 -12.068   3.955  0.00  0.00    +0.003 C 
ATOM     17  C   LIG    1       24.272 -11.761   2.539  0.00  0.00    +0.015 C 
ATOM     18  C   LIG    1       24.761 -13.020   1.818  0.00  0.00    +0.085 C 
BRANCH  13  19
ATOM     19  C   LIG    1       27.119 -13.103   2.531  0.00  0.00    +0.085 C 
BRANCH  19  21
ATOM     20  C   LIG    1       28.712 -12.474   4.425  0.00  0.00    +0.005 C 
ATOM     21  C   LIG    1       28.051 -13.607   3.649  0.00  0.00    +0.012 C 
ENDBRANCH  19  21
ENDBRANCH  13  19
ENDBRANCH   1  14
TORSDOF 4
ENDMDL
