MODEL 1
REMARK VINA RESULT:      -6.1      0.000      0.000
REMARK  Name = *****
REMARK                            x       y       z     vdW  Elec       q    Type
REMARK                         _______ _______ _______ _____ _____    ______ ____
ROOT
ATOM      1  N   LIG    1       26.545 -17.478   3.365  0.00  0.00    -0.236 NA
ATOM      2  H   LIG    1       26.789 -17.671   4.347  0.00  0.00    +0.145 HD
ENDROOT
BRANCH   1   4
ATOM      3  C   LIG    1       26.660 -15.046   3.663  0.00  0.00    +0.246 C 
ATOM      4  N   LIG    1       25.960 -16.198   3.330  0.00  0.00    -0.249 N 
ATOM      5  H   LIG    1       24.961 -16.087   3.125  0.00  0.00    +0.169 HD
ATOM      6  O   LIG    1       27.839 -15.028   4.021  0.00  0.00    -0.273 OA
BRANCH   3   7
ATOM      7  CA  LIG    1       25.809 -13.792   3.411  0.00  0.00    +0.165 C 
BRANCH   7   8
ATOM      8  N   LIG    1       25.918 -13.368   1.981  0.00  0.00    -0.318 NA
ATOM      9  H1  LIG    1       26.092 -12.359   1.969  0.00  0.00    +0.119 HD
ATOM     10  H2  LIG    1       26.799 -13.763   1.633  0.00  0.00    +0.119 HD
ENDBRANCH   7   8
BRANCH   7  11
ATOM     11  C   LIG    1       24.343 -13.970   3.814  0.00  0.00    +0.183 C 
BRANCH  11  12
ATOM     12  O   LIG    1       23.497 -13.575   2.727  0.00  0.00    -0.393 OA
ATOM     13  H   LIG    1       22.944 -14.344   2.498  0.00  0.00    +0.209 HD
ENDBRANCH  11  12
ENDBRANCH   7  11
ENDBRANCH   3   7
ENDBRANCH   1   4
BRANCH   1  14
ATOM     14  C   LIG    1       25.600 -18.528   2.936  0.00  0.00    +0.140 C 
BRANCH  14  15
ATOM     15  C   LIG    1       24.884 -19.277   4.046  0.00  0.00    +0.013 A 
ATOM     16  C   LIG    1       25.627 -20.042   4.951  0.00  0.00    +0.167 A 
ATOM     17  C   LIG    1       25.001 -20.805   5.932  0.00  0.00    +0.201 A 
ATOM     18  C   LIG    1       23.619 -20.798   6.057  0.00  0.00    +0.162 A 
ATOM     19  C   LIG    1       22.847 -20.053   5.174  0.00  0.00    +0.050 A 
ATOM     20  C   LIG    1       23.480 -19.315   4.160  0.00  0.00    +0.012 A 
BRANCH  16  21
ATOM     21  O   LIG    1       26.995 -20.063   4.887  0.00  0.00    -0.503 OA
ATOM     22  H   LIG    1       27.227 -21.012   4.945  0.00  0.00    +0.292 HD
ENDBRANCH  16  21
BRANCH  17  23
ATOM     23  O   LIG    1       25.771 -21.572   6.766  0.00  0.00    -0.501 OA
ATOM     24  H   LIG    1       25.119 -22.043   7.325  0.00  0.00    +0.292 HD
ENDBRANCH  17  23
BRANCH  18  25
ATOM     25  O   LIG    1       23.069 -21.544   7.062  0.00  0.00    -0.503 OA
ATOM     26  H   LIG    1       22.262 -21.967   6.717  0.00  0.00    +0.292 HD
ENDBRANCH  18  25
ENDBRANCH  14  15
ENDBRANCH   1  14
TORSDOF 10
ENDMDL
MODEL 2
REMARK VINA RESULT:      -6.0      1.935      6.846
REMARK  Name = *****
REMARK                            x       y       z     vdW  Elec       q    Type
REMARK                         _______ _______ _______ _____ _____    ______ ____
ROOT
ATOM      1  N   LIG    1       26.098 -17.558   2.931  0.00  0.00    -0.236 NA
ATOM      2  H   LIG    1       25.116 -17.377   2.680  0.00  0.00    +0.145 HD
ENDROOT
BRANCH   1   4
ATOM      3  C   LIG    1       25.001 -19.464   4.015  0.00  0.00    +0.246 C 
ATOM      4  N   LIG    1       26.102 -18.638   3.834  0.00  0.00    -0.249 N 
ATOM      5  H   LIG    1       26.906 -18.801   4.448  0.00  0.00    +0.169 HD
ATOM      6  O   LIG    1       23.929 -19.337   3.421  0.00  0.00    -0.273 OA
BRANCH   3   7
ATOM      7  CA  LIG    1       25.336 -20.627   4.964  0.00  0.00    +0.165 C 
BRANCH   7   8
ATOM      8  N   LIG    1       26.707 -20.453   5.534  0.00  0.00    -0.318 NA
ATOM      9  H1  LIG    1       27.359 -20.968   4.935  0.00  0.00    +0.119 HD
ATOM     10  H2  LIG    1       26.962 -19.473   5.372  0.00  0.00    +0.119 HD
ENDBRANCH   7   8
BRANCH   7  11
ATOM     11  C   LIG    1       24.303 -20.809   6.079  0.00  0.00    +0.183 C 
BRANCH  11  12
ATOM     12  O   LIG    1       22.996 -20.936   5.503  0.00  0.00    -0.393 OA
ATOM     13  H   LIG    1       22.693 -20.039   5.275  0.00  0.00    +0.209 HD
ENDBRANCH  11  12
ENDBRANCH   7  11
ENDBRANCH   3   7
ENDBRANCH   1   4
BRANCH   1  14
ATOM     14  C   LIG    1       26.626 -16.324   3.545  0.00  0.00    +0.140 C 
BRANCH  14  15
ATOM     15  C   LIG    1       25.732 -15.100   3.459  0.00  0.00    +0.013 A 
ATOM     16  C   LIG    1       26.108 -14.028   2.643  0.00  0.00    +0.167 A 
ATOM     17  C   LIG    1       25.355 -12.858   2.599  0.00  0.00    +0.201 A 
ATOM     18  C   LIG    1       24.190 -12.740   3.342  0.00  0.00    +0.162 A 
ATOM     19  C   LIG    1       23.786 -13.782   4.168  0.00  0.00    +0.050 A 
ATOM     20  C   LIG    1       24.568 -14.946   4.240  0.00  0.00    +0.012 A 
BRANCH  16  21
ATOM     21  O   LIG    1       27.235 -14.104   1.869  0.00  0.00    -0.503 OA
ATOM     22  H   LIG    1       27.469 -15.055   1.873  0.00  0.00    +0.292 HD
ENDBRANCH  16  21
BRANCH  17  23
ATOM     23  O   LIG    1       25.791 -11.821   1.817  0.00  0.00    -0.501 OA
ATOM     24  H   LIG    1       25.652 -12.140   0.901  0.00  0.00    +0.292 HD
ENDBRANCH  17  23
BRANCH  18  25
ATOM     25  O   LIG    1       23.480 -11.577   3.229  0.00  0.00    -0.503 OA
ATOM     26  H   LIG    1       23.847 -10.937   3.864  0.00  0.00    +0.292 HD
ENDBRANCH  18  25
ENDBRANCH  14  15
ENDBRANCH   1  14
TORSDOF 10
ENDMDL
MODEL 3
REMARK VINA RESULT:      -5.7      1.899      2.409
REMARK  Name = *****
REMARK                            x       y       z     vdW  Elec       q    Type
REMARK                         _______ _______ _______ _____ _____    ______ ____
ROOT
ATOM      1  N   LIG    1       25.718 -17.073   3.090  0.00  0.00    -0.236 NA
ATOM      2  H   LIG    1       25.659 -16.819   2.094  0.00  0.00    +0.145 HD
ENDROOT
BRANCH   1   4
ATOM      3  C   LIG    1       26.964 -14.962   3.142  0.00  0.00    +0.246 C 
ATOM      4  N   LIG    1       26.647 -16.200   3.685  0.00  0.00    -0.249 N 
ATOM      5  H   LIG    1       27.181 -16.490   4.511  0.00  0.00    +0.169 HD
ATOM      6  O   LIG    1       26.479 -14.514   2.102  0.00  0.00    -0.273 OA
BRANCH   3   7
ATOM      7  CA  LIG    1       27.908 -14.179   4.069  0.00  0.00    +0.165 C 
BRANCH   7   8
ATOM      8  N   LIG    1       28.871 -13.368   3.264  0.00  0.00    -0.318 NA
ATOM      9  H1  LIG    1       29.817 -13.644   3.544  0.00  0.00    +0.119 HD
ATOM     10  H2  LIG    1       28.801 -13.714   2.301  0.00  0.00    +0.119 HD
ENDBRANCH   7   8
BRANCH   7  11
ATOM     11  C   LIG    1       27.165 -13.298   5.076  0.00  0.00    +0.183 C 
BRANCH  11  12
ATOM     12  O   LIG    1       25.751 -13.462   4.904  0.00  0.00    -0.393 OA
ATOM     13  H   LIG    1       25.425 -13.972   5.667  0.00  0.00    +0.209 HD
ENDBRANCH  11  12
ENDBRANCH   7  11
ENDBRANCH   3   7
ENDBRANCH   1   4
BRANCH   1  14
ATOM     14  C   LIG    1       26.162 -18.479   3.155  0.00  0.00    +0.140 C 
BRANCH  14  15
ATOM     15  C   LIG    1       25.471 -19.352   4.187  0.00  0.00    +0.013 A 
ATOM     16  C   LIG    1       24.075 -19.437   4.193  0.00  0.00    +0.167 A 
ATOM     17  C   LIG    1       23.402 -20.163   5.171  0.00  0.00    +0.201 A 
ATOM     18  C   LIG    1       24.106 -20.850   6.150  0.00  0.00    +0.162 A 
ATOM     19  C   LIG    1       25.494 -20.787   6.179  0.00  0.00    +0.050 A 
ATOM     20  C   LIG    1       26.168 -20.022   5.213  0.00  0.00    +0.012 A 
BRANCH  16  21
ATOM     21  O   LIG    1       23.334 -18.798   3.234  0.00  0.00    -0.503 OA
ATOM     22  H   LIG    1       22.437 -18.736   3.621  0.00  0.00    +0.292 HD
ENDBRANCH  16  21
BRANCH  17  23
ATOM     23  O   LIG    1       22.032 -20.179   5.158  0.00  0.00    -0.501 OA
ATOM     24  H   LIG    1       21.808 -21.100   4.913  0.00  0.00    +0.292 HD
ENDBRANCH  17  23
BRANCH  18  25
ATOM     25  O   LIG    1       23.387 -21.571   7.061  0.00  0.00    -0.503 OA
ATOM     26  H   LIG    1       23.473 -22.514   6.835  0.00  0.00    +0.292 HD
ENDBRANCH  18  25
ENDBRANCH  14  15
ENDBRANCH   1  14
TORSDOF 10
ENDMDL
MODEL 4
REMARK VINA RESULT:      -5.4      2.179      6.839
REMARK  Name = *****
REMARK                            x       y       z     vdW  Elec       q    Type
REMARK                         _______ _______ _______ _____ _____    ______ ____
ROOT
ATOM      1  N   LIG    1       26.156 -17.886   2.974  0.00  0.00    -0.236 NA
ATOM      2  H   LIG    1       25.232 -17.540   2.679  0.00  0.00    +0.145 HD
ENDROOT
BRANCH   1   4
ATOM      3  C   LIG    1       24.662 -19.516   4.036  0.00  0.00    +0.246 C 
ATOM      4  N   LIG    1       25.934 -19.032   3.761  0.00  0.00    -0.249 N 
ATOM      5  H   LIG    1       26.717 -19.507   4.223  0.00  0.00    +0.169 HD
ATOM      6  O   LIG    1       23.619 -19.000   3.633  0.00  0.00    -0.273 OA
BRANCH   3   7
ATOM      7  CA  LIG    1       24.733 -20.844   4.808  0.00  0.00    +0.165 C 
BRANCH   7   8
ATOM      8  N   LIG    1       26.030 -20.949   5.542  0.00  0.00    -0.318 NA
ATOM      9  H1  LIG    1       26.679 -21.478   4.952  0.00  0.00    +0.119 HD
ATOM     10  H2  LIG    1       26.433 -20.005   5.547  0.00  0.00    +0.119 HD
ENDBRANCH   7   8
BRANCH   7  11
ATOM     11  C   LIG    1       23.552 -21.049   5.759  0.00  0.00    +0.183 C 
BRANCH  11  12
ATOM     12  O   LIG    1       22.379 -21.372   5.002  0.00  0.00    -0.393 OA
ATOM     13  H   LIG    1       22.412 -22.327   4.811  0.00  0.00    +0.209 HD
ENDBRANCH  11  12
ENDBRANCH   7  11
ENDBRANCH   3   7
ENDBRANCH   1   4
BRANCH   1  14
ATOM     14  C   LIG    1       26.802 -16.806   3.744  0.00  0.00    +0.140 C 
BRANCH  14  15
ATOM     15  C   LIG    1       26.363 -15.392   3.408  0.00  0.00    +0.013 A 
ATOM     16  C   LIG    1       25.012 -15.045   3.519  0.00  0.00    +0.167 A 
ATOM     17  C   LIG    1       24.560 -13.783   3.146  0.00  0.00    +0.201 A 
ATOM     18  C   LIG    1       25.449 -12.823   2.683  0.00  0.00    +0.162 A 
ATOM     19  C   LIG    1       26.797 -13.131   2.555  0.00  0.00    +0.050 A 
ATOM     20  C   LIG    1       27.245 -14.418   2.896  0.00  0.00    +0.012 A 
BRANCH  16  21
ATOM     21  O   LIG    1       24.099 -15.948   3.995  0.00  0.00    -0.503 OA
ATOM     22  H   LIG    1       23.243 -15.640   3.633  0.00  0.00    +0.292 HD
ENDBRANCH  16  21
BRANCH  17  23
ATOM     23  O   LIG    1       23.221 -13.508   3.233  0.00  0.00    -0.501 OA
ATOM     24  H   LIG    1       22.799 -14.392   3.264  0.00  0.00    +0.292 HD
ENDBRANCH  17  23
BRANCH  18  25
ATOM     25  O   LIG    1       24.945 -11.593   2.364  0.00  0.00    -0.503 OA
ATOM     26  H   LIG    1       25.505 -11.209   1.667  0.00  0.00    +0.292 HD
ENDBRANCH  18  25
ENDBRANCH  14  15
ENDBRANCH   1  14
TORSDOF 10
ENDMDL
MODEL 5
REMARK VINA RESULT:      -5.3      2.219      2.574
REMARK  Name = *****
REMARK                            x       y       z     vdW  Elec       q    Type
REMARK                         _______ _______ _______ _____ _____    ______ ____
ROOT
ATOM      1  N   LIG    1       26.208 -17.240   3.050  0.00  0.00    -0.236 NA
ATOM      2  H   LIG    1       26.574 -17.309   2.090  0.00  0.00    +0.145 HD
ENDROOT
BRANCH   1   4
ATOM      3  C   LIG    1       27.040 -14.935   3.137  0.00  0.00    +0.246 C 
ATOM      4  N   LIG    1       26.915 -16.203   3.688  0.00  0.00    -0.249 N 
ATOM      5  H   LIG    1       27.430 -16.381   4.556  0.00  0.00    +0.169 HD
ATOM      6  O   LIG    1       26.560 -14.595   2.055  0.00  0.00    -0.273 OA
BRANCH   3   7
ATOM      7  CA  LIG    1       27.753 -13.980   4.109  0.00  0.00    +0.165 C 
BRANCH   7   8
ATOM      8  N   LIG    1       28.531 -12.954   3.352  0.00  0.00    -0.318 NA
ATOM      9  H1  LIG    1       27.872 -12.437   2.762  0.00  0.00    +0.119 HD
ATOM     10  H2  LIG    1       28.828 -12.254   4.041  0.00  0.00    +0.119 HD
ENDBRANCH   7   8
BRANCH   7  11
ATOM     11  C   LIG    1       26.799 -13.314   5.105  0.00  0.00    +0.183 C 
BRANCH  11  12
ATOM     12  O   LIG    1       25.447 -13.650   4.768  0.00  0.00    -0.393 OA
ATOM     13  H   LIG    1       25.043 -12.857   4.371  0.00  0.00    +0.209 HD
ENDBRANCH  11  12
ENDBRANCH   7  11
ENDBRANCH   3   7
ENDBRANCH   1   4
BRANCH   1  14
ATOM     14  C   LIG    1       26.439 -18.545   3.699  0.00  0.00    +0.140 C 
BRANCH  14  15
ATOM     15  C   LIG    1       25.201 -19.372   3.997  0.00  0.00    +0.013 A 
ATOM     16  C   LIG    1       23.949 -18.750   4.029  0.00  0.00    +0.167 A 
ATOM     17  C   LIG    1       22.802 -19.458   4.376  0.00  0.00    +0.201 A 
ATOM     18  C   LIG    1       22.870 -20.813   4.666  0.00  0.00    +0.162 A 
ATOM     19  C   LIG    1       24.096 -21.466   4.648  0.00  0.00    +0.050 A 
ATOM     20  C   LIG    1       25.258 -20.739   4.336  0.00  0.00    +0.012 A 
BRANCH  16  21
ATOM     21  O   LIG    1       23.824 -17.421   3.726  0.00  0.00    -0.503 OA
ATOM     22  H   LIG    1       24.458 -16.974   4.323  0.00  0.00    +0.292 HD
ENDBRANCH  16  21
BRANCH  17  23
ATOM     23  O   LIG    1       21.606 -18.793   4.435  0.00  0.00    -0.501 OA
ATOM     24  H   LIG    1       21.438 -18.525   3.508  0.00  0.00    +0.292 HD
ENDBRANCH  17  23
BRANCH  18  25
ATOM     25  O   LIG    1       21.702 -21.458   4.967  0.00  0.00    -0.503 OA
ATOM     26  H   LIG    1       21.776 -22.377   4.655  0.00  0.00    +0.292 HD
ENDBRANCH  18  25
ENDBRANCH  14  15
ENDBRANCH   1  14
TORSDOF 10
ENDMDL
MODEL 6
REMARK VINA RESULT:      -5.0      1.935      2.239
REMARK  Name = *****
REMARK                            x       y       z     vdW  Elec       q    Type
REMARK                         _______ _______ _______ _____ _____    ______ ____
ROOT
ATOM      1  N   LIG    1       25.839 -16.617   2.922  0.00  0.00    -0.236 NA
ATOM      2  H   LIG    1       26.150 -17.594   3.015  0.00  0.00    +0.145 HD
ENDROOT
BRANCH   1   4
ATOM      3  C   LIG    1       27.163 -14.558   3.067  0.00  0.00    +0.246 C 
ATOM      4  N   LIG    1       26.811 -15.813   3.546  0.00  0.00    -0.249 N 
ATOM      5  H   LIG    1       27.348 -16.168   4.343  0.00  0.00    +0.169 HD
ATOM      6  O   LIG    1       26.676 -14.034   2.064  0.00  0.00    -0.273 OA
BRANCH   3   7
ATOM      7  CA  LIG    1       28.152 -13.863   4.017  0.00  0.00    +0.165 C 
BRANCH   7   8
ATOM      8  N   LIG    1       29.226 -13.176   3.237  0.00  0.00    -0.318 NA
ATOM      9  H1  LIG    1       30.111 -13.647   3.447  0.00  0.00    +0.119 HD
ATOM     10  H2  LIG    1       29.061 -13.415   2.253  0.00  0.00    +0.119 HD
ENDBRANCH   7   8
BRANCH   7  11
ATOM     11  C   LIG    1       27.473 -12.888   4.982  0.00  0.00    +0.183 C 
BRANCH  11  12
ATOM     12  O   LIG    1       26.072 -13.183   5.052  0.00  0.00    -0.393 OA
ATOM     13  H   LIG    1       25.944 -14.070   4.669  0.00  0.00    +0.209 HD
ENDBRANCH  11  12
ENDBRANCH   7  11
ENDBRANCH   3   7
ENDBRANCH   1   4
BRANCH   1  14
ATOM     14  C   LIG    1       24.526 -16.513   3.589  0.00  0.00    +0.140 C 
BRANCH  14  15
ATOM     15  C   LIG    1       23.889 -17.822   4.019  0.00  0.00    +0.013 A 
ATOM     16  C   LIG    1       24.661 -18.988   4.045  0.00  0.00    +0.167 A 
ATOM     17  C   LIG    1       24.094 -20.220   4.358  0.00  0.00    +0.201 A 
ATOM     18  C   LIG    1       22.749 -20.315   4.685  0.00  0.00    +0.162 A 
ATOM     19  C   LIG    1       21.949 -19.180   4.667  0.00  0.00    +0.050 A 
ATOM     20  C   LIG    1       22.516 -17.944   4.313  0.00  0.00    +0.012 A 
BRANCH  16  21
ATOM     21  O   LIG    1       25.999 -18.943   3.755  0.00  0.00    -0.503 OA
ATOM     22  H   LIG    1       26.224 -17.991   3.791  0.00  0.00    +0.292 HD
ENDBRANCH  16  21
BRANCH  17  23
ATOM     23  O   LIG    1       24.885 -21.338   4.326  0.00  0.00    -0.501 OA
ATOM     24  H   LIG    1       25.381 -21.302   5.170  0.00  0.00    +0.292 HD
ENDBRANCH  17  23
BRANCH  18  25
ATOM     25  O   LIG    1       22.262 -21.550   5.014  0.00  0.00    -0.503 OA
ATOM     26  H   LIG    1       21.364 -21.434   5.369  0.00  0.00    +0.292 HD
ENDBRANCH  18  25
ENDBRANCH  14  15
ENDBRANCH   1  14
TORSDOF 10
ENDMDL
MODEL 7
REMARK VINA RESULT:      -4.7      2.264      6.779
REMARK  Name = *****
REMARK                            x       y       z     vdW  Elec       q    Type
REMARK                         _______ _______ _______ _____ _____    ______ ____
ROOT
ATOM      1  N   LIG    1       25.999 -18.092   3.150  0.00  0.00    -0.236 NA
ATOM      2  H   LIG    1       25.603 -18.374   2.242  0.00  0.00    +0.145 HD
ENDROOT
BRANCH   1   4
ATOM      3  C   LIG    1       24.756 -20.030   3.997  0.00  0.00    +0.246 C 
ATOM      4  N   LIG    1       25.864 -19.192   4.018  0.00  0.00    -0.249 N 
ATOM      5  H   LIG    1       26.557 -19.365   4.753  0.00  0.00    +0.169 HD
ATOM      6  O   LIG    1       23.796 -19.895   3.237  0.00  0.00    -0.273 OA
BRANCH   3   7
ATOM      7  CA  LIG    1       24.941 -21.211   4.963  0.00  0.00    +0.165 C 
BRANCH   7   8
ATOM      8  N   LIG    1       26.256 -21.107   5.666  0.00  0.00    -0.318 NA
ATOM      9  H1  LIG    1       26.467 -20.112   5.782  0.00  0.00    +0.119 HD
ATOM     10  H2  LIG    1       26.091 -21.426   6.627  0.00  0.00    +0.119 HD
ENDBRANCH   7   8
BRANCH   7  11
ATOM     11  C   LIG    1       23.796 -21.349   5.969  0.00  0.00    +0.183 C 
BRANCH  11  12
ATOM     12  O   LIG    1       22.927 -20.214   5.862  0.00  0.00    -0.393 OA
ATOM     13  H   LIG    1       23.490 -19.419   5.851  0.00  0.00    +0.209 HD
ENDBRANCH  11  12
ENDBRANCH   7  11
ENDBRANCH   3   7
ENDBRANCH   1   4
BRANCH   1  14
ATOM     14  C   LIG    1       25.230 -16.923   3.618  0.00  0.00    +0.140 C 
BRANCH  14  15
ATOM     15  C   LIG    1       25.838 -15.563   3.327  0.00  0.00    +0.013 A 
ATOM     16  C   LIG    1       27.186 -15.333   3.625  0.00  0.00    +0.167 A 
ATOM     17  C   LIG    1       27.758 -14.077   3.446  0.00  0.00    +0.201 A 
ATOM     18  C   LIG    1       27.010 -13.027   2.934  0.00  0.00    +0.162 A 
ATOM     19  C   LIG    1       25.667 -13.215   2.630  0.00  0.00    +0.050 A 
ATOM     20  C   LIG    1       25.082 -14.474   2.848  0.00  0.00    +0.012 A 
BRANCH  16  21
ATOM     21  O   LIG    1       27.974 -16.343   4.107  0.00  0.00    -0.503 OA
ATOM     22  H   LIG    1       28.664 -15.885   4.630  0.00  0.00    +0.292 HD
ENDBRANCH  16  21
BRANCH  17  23
ATOM     23  O   LIG    1       29.070 -13.893   3.793  0.00  0.00    -0.501 OA
ATOM     24  H   LIG    1       29.165 -14.391   4.631  0.00  0.00    +0.292 HD
ENDBRANCH  17  23
BRANCH  18  25
ATOM     25  O   LIG    1       27.641 -11.828   2.752  0.00  0.00    -0.503 OA
ATOM     26  H   LIG    1       28.499 -11.866   3.210  0.00  0.00    +0.292 HD
ENDBRANCH  18  25
ENDBRANCH  14  15
ENDBRANCH   1  14
TORSDOF 10
ENDMDL
MODEL 8
REMARK VINA RESULT:      -4.5      1.915      2.884
REMARK  Name = *****
REMARK                            x       y       z     vdW  Elec       q    Type
REMARK                         _______ _______ _______ _____ _____    ______ ____
ROOT
ATOM      1  N   LIG    1       22.033 -17.459   4.500  0.00  0.00    -0.236 NA
ATOM      2  H   LIG    1       21.138 -17.213   4.055  0.00  0.00    +0.145 HD
ENDROOT
BRANCH   1   4
ATOM      3  C   LIG    1       23.132 -15.279   4.741  0.00  0.00    +0.246 C 
ATOM      4  N   LIG    1       22.975 -16.496   4.091  0.00  0.00    -0.249 N 
ATOM      5  H   LIG    1       23.531 -16.638   3.241  0.00  0.00    +0.169 HD
ATOM      6  O   LIG    1       22.472 -14.922   5.719  0.00  0.00    -0.273 OA
BRANCH   3   7
ATOM      7  CA  LIG    1       24.313 -14.490   4.155  0.00  0.00    +0.165 C 
BRANCH   7   8
ATOM      8  N   LIG    1       25.358 -15.425   3.639  0.00  0.00    -0.318 NA
ATOM      9  H1  LIG    1       26.259 -15.128   4.024  0.00  0.00    +0.119 HD
ATOM     10  H2  LIG    1       25.190 -16.325   4.103  0.00  0.00    +0.119 HD
ENDBRANCH   7   8
BRANCH   7  11
ATOM     11  C   LIG    1       23.892 -13.494   3.071  0.00  0.00    +0.183 C 
BRANCH  11  12
ATOM     12  O   LIG    1       24.071 -12.157   3.556  0.00  0.00    -0.393 OA
ATOM     13  H   LIG    1       23.196 -11.731   3.560  0.00  0.00    +0.209 HD
ENDBRANCH  11  12
ENDBRANCH   7  11
ENDBRANCH   3   7
ENDBRANCH   1   4
BRANCH   1  14
ATOM     14  C   LIG    1       22.393 -18.813   4.038  0.00  0.00    +0.140 C 
BRANCH  14  15
ATOM     15  C   LIG    1       23.466 -19.530   4.838  0.00  0.00    +0.013 A 
ATOM     16  C   LIG    1       24.804 -19.422   4.446  0.00  0.00    +0.167 A 
ATOM     17  C   LIG    1       25.806 -20.127   5.107  0.00  0.00    +0.201 A 
ATOM     18  C   LIG    1       25.503 -20.932   6.195  0.00  0.00    +0.162 A 
ATOM     19  C   LIG    1       24.185 -21.068   6.611  0.00  0.00    +0.050 A 
ATOM     20  C   LIG    1       23.171 -20.385   5.919  0.00  0.00    +0.012 A 
BRANCH  16  21
ATOM     21  O   LIG    1       25.159 -18.620   3.395  0.00  0.00    -0.503 OA
ATOM     22  H   LIG    1       24.307 -18.306   3.030  0.00  0.00    +0.292 HD
ENDBRANCH  16  21
BRANCH  17  23
ATOM     23  O   LIG    1       27.096 -20.021   4.656  0.00  0.00    -0.501 OA
ATOM     24  H   LIG    1       27.633 -20.397   5.384  0.00  0.00    +0.292 HD
ENDBRANCH  17  23
BRANCH  18  25
ATOM     25  O   LIG    1       26.538 -21.571   6.819  0.00  0.00    -0.503 OA
ATOM     26  H   LIG    1       27.305 -20.971   6.823  0.00  0.00    +0.292 HD
ENDBRANCH  18  25
ENDBRANCH  14  15
ENDBRANCH   1  14
TORSDOF 10
ENDMDL
MODEL 9
REMARK VINA RESULT:      -4.4      2.264      6.714
REMARK  Name = *****
REMARK                            x       y       z     vdW  Elec       q    Type
REMARK                         _______ _______ _______ _____ _____    ______ ____
ROOT
ATOM      1  N   LIG    1       23.266 -15.357   4.462  0.00  0.00    -0.236 NA
ATOM      2  H   LIG    1       23.304 -15.341   5.491  0.00  0.00    +0.145 HD
ENDROOT
BRANCH   1   4
ATOM      3  C   LIG    1       23.664 -17.738   4.031  0.00  0.00    +0.246 C 
ATOM      4  N   LIG    1       24.088 -16.416   4.034  0.00  0.00    -0.249 N 
ATOM      5  H   LIG    1       25.067 -16.246   3.779  0.00  0.00    +0.169 HD
ATOM      6  O   LIG    1       22.550 -18.112   4.400  0.00  0.00    -0.273 OA
BRANCH   3   7
ATOM      7  CA  LIG    1       24.723 -18.654   3.397  0.00  0.00    +0.165 C 
BRANCH   7   8
ATOM      8  N   LIG    1       25.994 -17.902   3.173  0.00  0.00    -0.318 NA
ATOM      9  H1  LIG    1       26.768 -18.502   3.474  0.00  0.00    +0.119 HD
ATOM     10  H2  LIG    1       26.120 -17.849   2.156  0.00  0.00    +0.119 HD
ENDBRANCH   7   8
BRANCH   7  11
ATOM     11  C   LIG    1       24.981 -19.926   4.209  0.00  0.00    +0.183 C 
BRANCH  11  12
ATOM     12  O   LIG    1       26.393 -20.118   4.361  0.00  0.00    -0.393 OA
ATOM     13  H   LIG    1       26.830 -19.620   3.648  0.00  0.00    +0.209 HD
ENDBRANCH  11  12
ENDBRANCH   7  11
ENDBRANCH   3   7
ENDBRANCH   1   4
BRANCH   1  14
ATOM     14  C   LIG    1       23.759 -14.049   3.988  0.00  0.00    +0.140 C 
BRANCH  14  15
ATOM     15  C   LIG    1       25.260 -13.929   3.799  0.00  0.00    +0.013 A 
ATOM     16  C   LIG    1       26.040 -13.369   4.817  0.00  0.00    +0.167 A 
ATOM     17  C   LIG    1       27.407 -13.170   4.650  0.00  0.00    +0.201 A 
ATOM     18  C   LIG    1       28.038 -13.556   3.476  0.00  0.00    +0.162 A 
ATOM     19  C   LIG    1       27.297 -14.113   2.441  0.00  0.00    +0.050 A 
ATOM     20  C   LIG    1       25.911 -14.276   2.598  0.00  0.00    +0.012 A 
BRANCH  16  21
ATOM     21  O   LIG    1       25.470 -12.995   6.005  0.00  0.00    -0.503 OA
ATOM     22  H   LIG    1       24.626 -13.492   6.036  0.00  0.00    +0.292 HD
ENDBRANCH  16  21
BRANCH  17  23
ATOM     23  O   LIG    1       28.117 -12.577   5.660  0.00  0.00    -0.501 OA
ATOM     24  H   LIG    1       28.553 -13.327   6.115  0.00  0.00    +0.292 HD
ENDBRANCH  17  23
BRANCH  18  25
ATOM     25  O   LIG    1       29.389 -13.363   3.388  0.00  0.00    -0.503 OA
ATOM     26  H   LIG    1       29.822 -14.232   3.461  0.00  0.00    +0.292 HD
ENDBRANCH  18  25
ENDBRANCH  14  15
ENDBRANCH   1  14
TORSDOF 10
ENDMDL
