MODEL 1
REMARK VINA RESULT:      -0.8      0.000      0.000
REMARK  Name = *****
REMARK                            x       y       z     vdW  Elec       q    Type
REMARK                         _______ _______ _______ _____ _____    ______ ____
ROOT
ATOM      1  C   LIG    1       25.231 -20.042   4.376  0.00  0.00    +0.187 C 
ATOM      2  C   LIG    1       24.222 -18.894   3.940  0.00  0.00    +0.063 C 
ATOM      3  C   LIG    1       22.803 -19.187   4.427  0.00  0.00    -0.042 C 
ATOM      4  C   LIG    1       21.968 -18.125   4.926  0.00  0.00    -0.000 C 
ATOM      5  C   LIG    1       22.317 -16.839   4.853  0.00  0.00    -0.023 C 
ATOM      6  C   LIG    1       23.582 -16.356   4.212  0.00  0.00    +0.012 C 
ATOM      7  C   LIG    1       23.222 -15.783   2.833  0.00  0.00    +0.012 C 
ATOM      8  C   LIG    1       22.322 -20.440   4.342  0.00  0.00    +0.008 C 
ATOM      9  C   LIG    1       23.213 -21.572   3.943  0.00  0.00    +0.141 C 
ATOM     10  C   LIG    1       24.717 -17.426   4.219  0.00  0.00    +0.007 C 
ATOM     11  C   LIG    1       24.552 -21.411   4.655  0.00  0.00    +0.080 C 
ENDROOT
BRANCH   9  12
ATOM     12  O   LIG    1       23.402 -21.558   2.536  0.00  0.00    -0.388 OA
ATOM     13  H   LIG    1       22.524 -21.609   2.120  0.00  0.00    +0.210 HD
ENDBRANCH   9  12
BRANCH   1  14
ATOM     14  O   LIG    1       26.003 -19.644   5.547  0.00  0.00    -0.460 OA
BRANCH  14  15
ATOM     15  C   LIG    1       27.370 -19.648   5.451  0.00  0.00    +0.310 C 
ATOM     16  O   LIG    1       28.004 -19.388   4.437  0.00  0.00    -0.251 OA
BRANCH  15  17
ATOM     17  C   LIG    1       27.988 -20.015   6.803  0.00  0.00    +0.094 C 
ATOM     18  C   LIG    1       28.051 -21.540   6.935  0.00  0.00    +0.019 C 
BRANCH  17  20
ATOM     19  C   LIG    1       29.468 -17.888   7.044  0.00  0.00    +0.004 C 
ATOM     20  C   LIG    1       29.385 -19.408   7.062  0.00  0.00    +0.011 C 
ENDBRANCH  17  20
ENDBRANCH  15  17
ENDBRANCH  14  15
ENDBRANCH   1  14
BRANCH  10  21
ATOM     21  C   LIG    1       25.871 -17.018   3.263  0.00  0.00    +0.007 C 
BRANCH  21  22
ATOM     22  C   LIG    1       26.968 -16.177   3.952  0.00  0.00    +0.032 C 
BRANCH  22  23
ATOM     23  C   LIG    1       27.362 -14.902   3.188  0.00  0.00    +0.117 C 
BRANCH  23  24
ATOM     24  O   LIG    1       26.518 -14.764   2.039  0.00  0.00    -0.392 OA
ATOM     25  H   LIG    1       26.491 -15.627   1.582  0.00  0.00    +0.210 HD
ENDBRANCH  23  24
BRANCH  23  26
ATOM     26  C   LIG    1       27.257 -13.634   4.039  0.00  0.00    +0.063 C 
BRANCH  26  27
ATOM     27  C   LIG    1       26.208 -13.716   5.151  0.00  0.00    +0.128 C 
BRANCH  27  28
ATOM     28  O   LIG    1       26.272 -12.587   6.030  0.00  0.00    -0.391 OA
ATOM     29  H   LIG    1       26.132 -12.913   6.944  0.00  0.00    +0.210 HD
ENDBRANCH  27  28
BRANCH  27  30
ATOM     30  C   LIG    1       24.782 -13.766   4.603  0.00  0.00    +0.151 C 
BRANCH  30  31
ATOM     31  C   LIG    1       24.280 -12.437   4.050  0.00  0.00    +0.307 C 
ATOM     32  O   LIG    1       24.287 -12.179   2.871  0.00  0.00    -0.251 OA
BRANCH  31  33
ATOM     33  O   LIG    1       23.810 -11.552   4.965  0.00  0.00    -0.481 OA
ATOM     34  H   LIG    1       24.374 -11.495   5.763  0.00  0.00    +0.295 HD
ENDBRANCH  31  33
ENDBRANCH  30  31
ENDBRANCH  27  30
ENDBRANCH  26  27
ENDBRANCH  23  26
ENDBRANCH  22  23
ENDBRANCH  21  22
ENDBRANCH  10  21
TORSDOF 15
ENDMDL
MODEL 2
REMARK VINA RESULT:       0.6      2.029      6.922
REMARK  Name = *****
REMARK                            x       y       z     vdW  Elec       q    Type
REMARK                         _______ _______ _______ _____ _____    ______ ____
ROOT
ATOM      1  C   LIG    1       24.192 -14.975   3.516  0.00  0.00    +0.187 C 
ATOM      2  C   LIG    1       25.582 -14.250   3.778  0.00  0.00    +0.063 C 
ATOM      3  C   LIG    1       25.385 -12.915   4.496  0.00  0.00    -0.042 C 
ATOM      4  C   LIG    1       26.299 -12.499   5.528  0.00  0.00    -0.000 C 
ATOM      5  C   LIG    1       27.425 -13.161   5.803  0.00  0.00    -0.023 C 
ATOM      6  C   LIG    1       27.882 -14.373   5.050  0.00  0.00    +0.012 C 
ATOM      7  C   LIG    1       29.003 -13.938   4.095  0.00  0.00    +0.012 C 
ATOM      8  C   LIG    1       24.374 -12.109   4.125  0.00  0.00    +0.008 C 
ATOM      9  C   LIG    1       23.348 -12.577   3.146  0.00  0.00    +0.141 C 
ATOM     10  C   LIG    1       26.708 -15.162   4.393  0.00  0.00    +0.007 C 
ATOM     11  C   LIG    1       22.971 -14.016   3.486  0.00  0.00    +0.080 C 
ENDROOT
BRANCH   9  12
ATOM     12  O   LIG    1       23.876 -12.508   1.830  0.00  0.00    -0.388 OA
ATOM     13  H   LIG    1       24.576 -13.179   1.758  0.00  0.00    +0.210 HD
ENDBRANCH   9  12
BRANCH   1  14
ATOM     14  O   LIG    1       23.954 -16.023   4.501  0.00  0.00    -0.460 OA
BRANCH  14  15
ATOM     15  C   LIG    1       22.657 -16.383   4.758  0.00  0.00    +0.310 C 
ATOM     16  O   LIG    1       21.872 -15.743   5.443  0.00  0.00    -0.251 OA
BRANCH  15  17
ATOM     17  C   LIG    1       22.333 -17.703   4.052  0.00  0.00    +0.094 C 
ATOM     18  C   LIG    1       22.579 -18.869   5.016  0.00  0.00    +0.019 C 
BRANCH  17  20
ATOM     19  C   LIG    1       20.223 -19.152   3.581  0.00  0.00    +0.004 C 
ATOM     20  C   LIG    1       20.901 -17.793   3.475  0.00  0.00    +0.011 C 
ENDBRANCH  17  20
ENDBRANCH  15  17
ENDBRANCH  14  15
ENDBRANCH   1  14
BRANCH  10  21
ATOM     21  C   LIG    1       27.240 -16.192   3.360  0.00  0.00    +0.007 C 
BRANCH  21  22
ATOM     22  C   LIG    1       26.202 -17.271   2.981  0.00  0.00    +0.032 C 
BRANCH  22  23
ATOM     23  C   LIG    1       26.152 -18.469   3.944  0.00  0.00    +0.117 C 
BRANCH  23  24
ATOM     24  O   LIG    1       25.797 -19.646   3.208  0.00  0.00    -0.392 OA
ATOM     25  H   LIG    1       26.412 -20.358   3.468  0.00  0.00    +0.210 HD
ENDBRANCH  23  24
BRANCH  23  26
ATOM     26  C   LIG    1       27.477 -18.714   4.668  0.00  0.00    +0.063 C 
BRANCH  26  27
ATOM     27  C   LIG    1       27.537 -20.045   5.424  0.00  0.00    +0.128 C 
BRANCH  27  28
ATOM     28  O   LIG    1       28.826 -20.270   6.006  0.00  0.00    -0.391 OA
ATOM     29  H   LIG    1       28.797 -21.134   6.469  0.00  0.00    +0.210 HD
ENDBRANCH  27  28
BRANCH  27  30
ATOM     30  C   LIG    1       26.522 -20.111   6.565  0.00  0.00    +0.151 C 
BRANCH  30  31
ATOM     31  C   LIG    1       25.309 -20.986   6.268  0.00  0.00    +0.307 C 
ATOM     32  O   LIG    1       24.415 -21.149   7.062  0.00  0.00    -0.251 OA
BRANCH  31  33
ATOM     33  O   LIG    1       25.283 -21.571   5.044  0.00  0.00    -0.481 OA
ATOM     34  H   LIG    1       25.804 -21.079   4.377  0.00  0.00    +0.295 HD
ENDBRANCH  31  33
ENDBRANCH  30  31
ENDBRANCH  27  30
ENDBRANCH  26  27
ENDBRANCH  23  26
ENDBRANCH  22  23
ENDBRANCH  21  22
ENDBRANCH  10  21
TORSDOF 15
ENDMDL
MODEL 3
REMARK VINA RESULT:       0.7      1.984      7.086
REMARK  Name = *****
REMARK                            x       y       z     vdW  Elec       q    Type
REMARK                         _______ _______ _______ _____ _____    ______ ____
ROOT
ATOM      1  C   LIG    1       24.158 -14.783   3.533  0.00  0.00    +0.187 C 
ATOM      2  C   LIG    1       25.525 -14.022   3.814  0.00  0.00    +0.063 C 
ATOM      3  C   LIG    1       25.293 -12.735   4.604  0.00  0.00    -0.042 C 
ATOM      4  C   LIG    1       26.208 -12.341   5.644  0.00  0.00    -0.000 C 
ATOM      5  C   LIG    1       27.360 -12.975   5.868  0.00  0.00    -0.023 C 
ATOM      6  C   LIG    1       27.848 -14.130   5.046  0.00  0.00    +0.012 C 
ATOM      7  C   LIG    1       28.938 -13.605   4.099  0.00  0.00    +0.012 C 
ATOM      8  C   LIG    1       24.249 -11.947   4.290  0.00  0.00    +0.008 C 
ATOM      9  C   LIG    1       23.224 -12.400   3.301  0.00  0.00    +0.141 C 
ATOM     10  C   LIG    1       26.692 -14.925   4.364  0.00  0.00    +0.007 C 
ATOM     11  C   LIG    1       22.903 -13.868   3.570  0.00  0.00    +0.080 C 
ENDROOT
BRANCH   9  12
ATOM     12  O   LIG    1       23.729 -12.244   1.984  0.00  0.00    -0.388 OA
ATOM     13  H   LIG    1       24.699 -12.258   2.037  0.00  0.00    +0.210 HD
ENDBRANCH   9  12
BRANCH   1  14
ATOM     14  O   LIG    1       23.972 -15.888   4.465  0.00  0.00    -0.460 OA
BRANCH  14  15
ATOM     15  C   LIG    1       22.690 -16.244   4.796  0.00  0.00    +0.310 C 
ATOM     16  O   LIG    1       21.974 -15.639   5.582  0.00  0.00    -0.251 OA
BRANCH  15  17
ATOM     17  C   LIG    1       22.284 -17.505   4.029  0.00  0.00    +0.094 C 
ATOM     18  C   LIG    1       22.669 -18.743   4.846  0.00  0.00    +0.019 C 
BRANCH  17  20
ATOM     19  C   LIG    1       20.243 -18.961   3.332  0.00  0.00    +0.004 C 
ATOM     20  C   LIG    1       20.789 -17.575   3.645  0.00  0.00    +0.011 C 
ENDBRANCH  17  20
ENDBRANCH  15  17
ENDBRANCH  14  15
ENDBRANCH   1  14
BRANCH  10  21
ATOM     21  C   LIG    1       27.244 -15.880   3.272  0.00  0.00    +0.007 C 
BRANCH  21  22
ATOM     22  C   LIG    1       27.660 -17.262   3.820  0.00  0.00    +0.032 C 
BRANCH  22  23
ATOM     23  C   LIG    1       26.486 -18.217   4.090  0.00  0.00    +0.117 C 
BRANCH  23  24
ATOM     24  O   LIG    1       25.746 -18.404   2.878  0.00  0.00    -0.392 OA
ATOM     25  H   LIG    1       26.075 -17.758   2.224  0.00  0.00    +0.210 HD
ENDBRANCH  23  24
BRANCH  23  26
ATOM     26  C   LIG    1       26.932 -19.583   4.618  0.00  0.00    +0.063 C 
BRANCH  26  27
ATOM     27  C   LIG    1       25.968 -20.203   5.634  0.00  0.00    +0.128 C 
BRANCH  27  28
ATOM     28  O   LIG    1       25.449 -21.458   5.181  0.00  0.00    -0.391 OA
ATOM     29  H   LIG    1       26.108 -21.850   4.570  0.00  0.00    +0.210 HD
ENDBRANCH  27  28
BRANCH  27  30
ATOM     30  C   LIG    1       26.637 -20.465   6.984  0.00  0.00    +0.151 C 
BRANCH  30  31
ATOM     31  C   LIG    1       28.158 -20.532   6.922  0.00  0.00    +0.307 C 
ATOM     32  O   LIG    1       28.767 -21.572   6.991  0.00  0.00    -0.251 OA
BRANCH  31  33
ATOM     33  O   LIG    1       28.800 -19.345   6.773  0.00  0.00    -0.481 OA
ATOM     34  H   LIG    1       29.760 -19.451   6.611  0.00  0.00    +0.295 HD
ENDBRANCH  31  33
ENDBRANCH  30  31
ENDBRANCH  27  30
ENDBRANCH  26  27
ENDBRANCH  23  26
ENDBRANCH  22  23
ENDBRANCH  21  22
ENDBRANCH  10  21
TORSDOF 15
ENDMDL
MODEL 4
REMARK VINA RESULT:       0.8      1.407      2.112
REMARK  Name = *****
REMARK                            x       y       z     vdW  Elec       q    Type
REMARK                         _______ _______ _______ _____ _____    ______ ____
ROOT
ATOM      1  C   LIG    1       25.556 -19.625   4.015  0.00  0.00    +0.187 C 
ATOM      2  C   LIG    1       24.296 -18.669   3.865  0.00  0.00    +0.063 C 
ATOM      3  C   LIG    1       23.041 -19.304   4.464  0.00  0.00    -0.042 C 
ATOM      4  C   LIG    1       22.098 -18.504   5.202  0.00  0.00    -0.000 C 
ATOM      5  C   LIG    1       22.182 -17.174   5.273  0.00  0.00    -0.023 C 
ATOM      6  C   LIG    1       23.229 -16.368   4.567  0.00  0.00    +0.012 C 
ATOM      7  C   LIG    1       22.575 -15.726   3.334  0.00  0.00    +0.012 C 
ATOM      8  C   LIG    1       22.801 -20.611   4.257  0.00  0.00    +0.008 C 
ATOM      9  C   LIG    1       23.826 -21.479   3.602  0.00  0.00    +0.141 C 
ATOM     10  C   LIG    1       24.536 -17.172   4.291  0.00  0.00    +0.007 C 
ATOM     11  C   LIG    1       25.197 -21.128   4.172  0.00  0.00    +0.080 C 
ENDROOT
BRANCH   9  12
ATOM     12  O   LIG    1       23.809 -21.263   2.199  0.00  0.00    -0.388 OA
ATOM     13  H   LIG    1       23.952 -22.122   1.767  0.00  0.00    +0.210 HD
ENDBRANCH   9  12
BRANCH   1  14
ATOM     14  O   LIG    1       26.395 -19.215   5.135  0.00  0.00    -0.460 OA
BRANCH  14  15
ATOM     15  C   LIG    1       26.465 -20.042   6.226  0.00  0.00    +0.310 C 
ATOM     16  O   LIG    1       25.519 -20.649   6.709  0.00  0.00    -0.251 OA
BRANCH  15  17
ATOM     17  C   LIG    1       27.904 -20.101   6.745  0.00  0.00    +0.094 C 
ATOM     18  C   LIG    1       28.408 -21.547   6.678  0.00  0.00    +0.019 C 
BRANCH  17  20
ATOM     19  C   LIG    1       29.475 -18.029   6.841  0.00  0.00    +0.004 C 
ATOM     20  C   LIG    1       28.895 -19.166   6.014  0.00  0.00    +0.011 C 
ENDBRANCH  17  20
ENDBRANCH  15  17
ENDBRANCH  14  15
ENDBRANCH   1  14
BRANCH  10  21
ATOM     21  C   LIG    1       25.445 -16.426   3.278  0.00  0.00    +0.007 C 
BRANCH  21  22
ATOM     22  C   LIG    1       24.973 -14.987   2.975  0.00  0.00    +0.032 C 
BRANCH  22  23
ATOM     23  C   LIG    1       25.996 -14.131   2.211  0.00  0.00    +0.117 C 
BRANCH  23  24
ATOM     24  O   LIG    1       25.515 -12.784   2.133  0.00  0.00    -0.392 OA
ATOM     25  H   LIG    1       24.956 -12.711   1.336  0.00  0.00    +0.210 HD
ENDBRANCH  23  24
BRANCH  23  26
ATOM     26  C   LIG    1       27.382 -14.129   2.860  0.00  0.00    +0.063 C 
BRANCH  26  27
ATOM     27  C   LIG    1       27.395 -14.636   4.305  0.00  0.00    +0.128 C 
BRANCH  27  28
ATOM     28  O   LIG    1       28.450 -15.576   4.532  0.00  0.00    -0.391 OA
ATOM     29  H   LIG    1       29.229 -15.280   4.015  0.00  0.00    +0.210 HD
ENDBRANCH  27  28
BRANCH  27  30
ATOM     30  C   LIG    1       27.588 -13.505   5.316  0.00  0.00    +0.151 C 
BRANCH  30  31
ATOM     31  C   LIG    1       28.549 -12.416   4.855  0.00  0.00    +0.307 C 
ATOM     32  O   LIG    1       28.758 -12.183   3.690  0.00  0.00    -0.251 OA
BRANCH  31  33
ATOM     33  O   LIG    1       29.159 -11.706   5.839  0.00  0.00    -0.481 OA
ATOM     34  H   LIG    1       29.496 -10.841   5.530  0.00  0.00    +0.295 HD
ENDBRANCH  31  33
ENDBRANCH  30  31
ENDBRANCH  27  30
ENDBRANCH  26  27
ENDBRANCH  23  26
ENDBRANCH  22  23
ENDBRANCH  21  22
ENDBRANCH  10  21
TORSDOF 15
ENDMDL
MODEL 5
REMARK VINA RESULT:       1.0      2.023      6.665
REMARK  Name = *****
REMARK                            x       y       z     vdW  Elec       q    Type
REMARK                         _______ _______ _______ _____ _____    ______ ____
ROOT
ATOM      1  C   LIG    1       27.226 -14.851   4.415  0.00  0.00    +0.187 C 
ATOM      2  C   LIG    1       26.152 -13.749   4.018  0.00  0.00    +0.063 C 
ATOM      3  C   LIG    1       26.767 -12.671   3.125  0.00  0.00    -0.042 C 
ATOM      4  C   LIG    1       26.021 -12.123   2.022  0.00  0.00    -0.000 C 
ATOM      5  C   LIG    1       24.733 -12.404   1.813  0.00  0.00    -0.023 C 
ATOM      6  C   LIG    1       23.915 -13.276   2.715  0.00  0.00    +0.012 C 
ATOM      7  C   LIG    1       23.025 -12.363   3.571  0.00  0.00    +0.012 C 
ATOM      8  C   LIG    1       27.996 -12.203   3.406  0.00  0.00    +0.008 C 
ATOM      9  C   LIG    1       28.830 -12.845   4.468  0.00  0.00    +0.141 C 
ATOM     10  C   LIG    1       24.773 -14.310   3.507  0.00  0.00    +0.007 C 
ATOM     11  C   LIG    1       28.697 -14.359   4.342  0.00  0.00    +0.080 C 
ENDROOT
BRANCH   9  12
ATOM     12  O   LIG    1       28.384 -12.420   5.747  0.00  0.00    -0.388 OA
ATOM     13  H   LIG    1       29.154 -12.416   6.341  0.00  0.00    +0.210 HD
ENDBRANCH   9  12
BRANCH   1  14
ATOM     14  O   LIG    1       27.080 -16.046   3.592  0.00  0.00    -0.460 OA
BRANCH  14  15
ATOM     15  C   LIG    1       27.540 -17.235   4.093  0.00  0.00    +0.310 C 
ATOM     16  O   LIG    1       28.688 -17.446   4.461  0.00  0.00    -0.251 OA
BRANCH  15  17
ATOM     17  C   LIG    1       26.402 -18.259   4.136  0.00  0.00    +0.094 C 
ATOM     18  C   LIG    1       25.684 -18.276   2.782  0.00  0.00    +0.019 C 
BRANCH  17  20
ATOM     19  C   LIG    1       27.274 -19.896   5.961  0.00  0.00    +0.004 C 
ATOM     20  C   LIG    1       26.835 -19.692   4.518  0.00  0.00    +0.011 C 
ENDBRANCH  17  20
ENDBRANCH  15  17
ENDBRANCH  14  15
ENDBRANCH   1  14
BRANCH  10  21
ATOM     21  C   LIG    1       23.951 -14.949   4.659  0.00  0.00    +0.007 C 
BRANCH  21  22
ATOM     22  C   LIG    1       23.772 -16.475   4.510  0.00  0.00    +0.032 C 
BRANCH  22  23
ATOM     23  C   LIG    1       22.339 -16.973   4.762  0.00  0.00    +0.117 C 
BRANCH  23  24
ATOM     24  O   LIG    1       21.618 -16.971   3.524  0.00  0.00    -0.392 OA
ATOM     25  H   LIG    1       21.889 -16.180   3.021  0.00  0.00    +0.210 HD
ENDBRANCH  23  24
BRANCH  23  26
ATOM     26  C   LIG    1       22.288 -18.378   5.366  0.00  0.00    +0.063 C 
BRANCH  26  27
ATOM     27  C   LIG    1       22.054 -19.490   4.339  0.00  0.00    +0.128 C 
BRANCH  27  28
ATOM     28  O   LIG    1       23.085 -19.526   3.346  0.00  0.00    -0.391 OA
ATOM     29  H   LIG    1       22.913 -18.797   2.713  0.00  0.00    +0.210 HD
ENDBRANCH  27  28
BRANCH  27  30
ATOM     30  C   LIG    1       22.014 -20.877   4.983  0.00  0.00    +0.151 C 
BRANCH  30  31
ATOM     31  C   LIG    1       23.222 -21.192   5.858  0.00  0.00    +0.307 C 
ATOM     32  O   LIG    1       23.186 -21.130   7.062  0.00  0.00    -0.251 OA
BRANCH  31  33
ATOM     33  O   LIG    1       24.352 -21.560   5.202  0.00  0.00    -0.481 OA
ATOM     34  H   LIG    1       25.160 -21.161   5.584  0.00  0.00    +0.295 HD
ENDBRANCH  31  33
ENDBRANCH  30  31
ENDBRANCH  27  30
ENDBRANCH  26  27
ENDBRANCH  23  26
ENDBRANCH  22  23
ENDBRANCH  21  22
ENDBRANCH  10  21
TORSDOF 15
ENDMDL
