MODEL 1
REMARK VINA RESULT:      -3.9      0.000      0.000
REMARK  Name = *****
REMARK                            x       y       z     vdW  Elec       q    Type
REMARK                         _______ _______ _______ _____ _____    ______ ____
ROOT
ATOM      1  C   LIG    1       25.437 -19.391   4.155  0.00  0.00    +0.133 C 
ATOM      2  C   LIG    1       25.911 -19.869   2.762  0.00  0.00    +0.054 C 
ENDROOT
BRANCH   1   3
ATOM      3  C   LIG    1       23.963 -19.821   4.387  0.00  0.00    +0.077 A 
ATOM      4  N   LIG    1       23.716 -21.138   4.695  0.00  0.00    -0.257 NA
ATOM      5  C   LIG    1       22.440 -21.544   4.853  0.00  0.00    +0.111 A 
ATOM      6  C   LIG    1       21.348 -20.711   4.731  0.00  0.00    +0.020 A 
ATOM      7  C   LIG    1       21.593 -19.377   4.418  0.00  0.00    +0.003 A 
ATOM      8  C   LIG    1       22.904 -18.930   4.238  0.00  0.00    +0.026 A 
ENDBRANCH   1   3
BRANCH   1   9
ATOM      9  C   LIG    1       26.426 -19.989   5.206  0.00  0.00    -0.010 A 
ATOM     10  C   LIG    1       27.792 -19.639   5.216  0.00  0.00    +0.007 A 
ATOM     11  C   LIG    1       28.698 -20.179   6.135  0.00  0.00    +0.000 A 
ATOM     12  C   LIG    1       28.257 -21.115   7.062  0.00  0.00    +0.000 A 
ATOM     13  C   LIG    1       26.924 -21.506   7.061  0.00  0.00    +0.000 A 
ATOM     14  C   LIG    1       26.012 -20.948   6.150  0.00  0.00    +0.007 A 
ENDBRANCH   1   9
BRANCH   1  15
ATOM     15  O   LIG    1       25.603 -17.956   4.262  0.00  0.00    -0.362 OA
BRANCH  15  16
ATOM     16  C   LIG    1       26.064 -17.203   3.148  0.00  0.00    +0.177 C 
BRANCH  16  17
ATOM     17  C   LIG    1       25.810 -15.681   3.376  0.00  0.00    +0.112 C 
BRANCH  17  19
ATOM     18  C   LIG    1       25.980 -13.522   2.221  0.00  0.00    +0.104 C 
ATOM     19  N   LIG    1       26.697 -14.673   2.754  0.00  0.00    -0.306 NA
ATOM     20  C   LIG    1       27.759 -14.230   3.653  0.00  0.00    +0.104 C 
ENDBRANCH  17  19
ENDBRANCH  16  17
ENDBRANCH  15  16
ENDBRANCH   1  15
TORSDOF 6
ENDMDL
MODEL 2
REMARK VINA RESULT:      -3.4      1.083      1.523
REMARK  Name = *****
REMARK                            x       y       z     vdW  Elec       q    Type
REMARK                         _______ _______ _______ _____ _____    ______ ____
ROOT
ATOM      1  C   LIG    1       25.799 -19.536   4.505  0.00  0.00    +0.133 C 
ATOM      2  C   LIG    1       26.108 -20.123   3.108  0.00  0.00    +0.054 C 
ENDROOT
BRANCH   1   3
ATOM      3  C   LIG    1       24.561 -20.247   5.114  0.00  0.00    +0.077 A 
ATOM      4  N   LIG    1       23.445 -20.391   4.324  0.00  0.00    -0.257 NA
ATOM      5  C   LIG    1       22.341 -20.963   4.848  0.00  0.00    +0.111 A 
ATOM      6  C   LIG    1       22.258 -21.425   6.145  0.00  0.00    +0.020 A 
ATOM      7  C   LIG    1       23.383 -21.279   6.949  0.00  0.00    +0.003 A 
ATOM      8  C   LIG    1       24.538 -20.681   6.437  0.00  0.00    +0.026 A 
ENDBRANCH   1   3
BRANCH   1   9
ATOM      9  C   LIG    1       27.090 -19.701   5.368  0.00  0.00    -0.010 A 
ATOM     10  C   LIG    1       28.211 -18.865   5.184  0.00  0.00    +0.007 A 
ATOM     11  C   LIG    1       29.385 -19.010   5.932  0.00  0.00    +0.000 A 
ATOM     12  C   LIG    1       29.475 -20.025   6.875  0.00  0.00    +0.000 A 
ATOM     13  C   LIG    1       28.400 -20.886   7.062  0.00  0.00    +0.000 A 
ATOM     14  C   LIG    1       27.216 -20.727   6.324  0.00  0.00    +0.007 A 
ENDBRANCH   1   9
BRANCH   1  15
ATOM     15  O   LIG    1       25.601 -18.104   4.400  0.00  0.00    -0.362 OA
BRANCH  15  16
ATOM     16  C   LIG    1       25.929 -17.421   3.198  0.00  0.00    +0.177 C 
BRANCH  16  17
ATOM     17  C   LIG    1       26.573 -16.037   3.516  0.00  0.00    +0.112 C 
BRANCH  17  19
ATOM     18  C   LIG    1       24.909 -14.238   3.630  0.00  0.00    +0.104 C 
ATOM     19  N   LIG    1       26.036 -14.803   2.900  0.00  0.00    -0.306 NA
ATOM     20  C   LIG    1       27.062 -13.785   2.697  0.00  0.00    +0.104 C 
ENDBRANCH  17  19
ENDBRANCH  16  17
ENDBRANCH  15  16
ENDBRANCH   1  15
TORSDOF 6
ENDMDL
MODEL 3
REMARK VINA RESULT:      -2.0      1.726      5.640
REMARK  Name = *****
REMARK                            x       y       z     vdW  Elec       q    Type
REMARK                         _______ _______ _______ _____ _____    ______ ____
ROOT
ATOM      1  C   LIG    1       24.797 -18.684   3.842  0.00  0.00    +0.133 C 
ATOM      2  C   LIG    1       25.325 -19.362   2.556  0.00  0.00    +0.054 C 
ENDROOT
BRANCH   1   3
ATOM      3  C   LIG    1       24.952 -17.143   3.728  0.00  0.00    +0.077 A 
ATOM      4  N   LIG    1       26.163 -16.647   3.308  0.00  0.00    -0.257 NA
ATOM      5  C   LIG    1       26.337 -15.310   3.247  0.00  0.00    +0.111 A 
ATOM      6  C   LIG    1       25.362 -14.393   3.580  0.00  0.00    +0.020 A 
ATOM      7  C   LIG    1       24.135 -14.892   4.008  0.00  0.00    +0.003 A 
ATOM      8  C   LIG    1       23.930 -16.271   4.090  0.00  0.00    +0.026 A 
ENDBRANCH   1   3
BRANCH   1   9
ATOM      9  C   LIG    1       23.314 -19.140   4.025  0.00  0.00    -0.010 A 
ATOM     10  C   LIG    1       22.993 -20.374   4.629  0.00  0.00    +0.007 A 
ATOM     11  C   LIG    1       21.673 -20.811   4.784  0.00  0.00    +0.000 A 
ATOM     12  C   LIG    1       20.631 -20.026   4.309  0.00  0.00    +0.000 A 
ATOM     13  C   LIG    1       20.913 -18.818   3.682  0.00  0.00    +0.000 A 
ATOM     14  C   LIG    1       22.238 -18.372   3.544  0.00  0.00    +0.007 A 
ENDBRANCH   1   9
BRANCH   1  15
ATOM     15  O   LIG    1       25.495 -19.213   4.995  0.00  0.00    -0.362 OA
BRANCH  15  16
ATOM     16  C   LIG    1       26.642 -20.035   4.825  0.00  0.00    +0.177 C 
BRANCH  16  17
ATOM     17  C   LIG    1       27.232 -20.442   6.209  0.00  0.00    +0.112 C 
BRANCH  17  19
ATOM     18  C   LIG    1       29.475 -20.958   7.062  0.00  0.00    +0.104 C 
ATOM     19  N   LIG    1       28.544 -19.916   6.647  0.00  0.00    -0.306 NA
ATOM     20  C   LIG    1       29.168 -19.058   5.645  0.00  0.00    +0.104 C 
ENDBRANCH  17  19
ENDBRANCH  16  17
ENDBRANCH  15  16
ENDBRANCH   1  15
TORSDOF 6
ENDMDL
MODEL 4
REMARK VINA RESULT:      -1.9      1.561      6.100
REMARK  Name = *****
REMARK                            x       y       z     vdW  Elec       q    Type
REMARK                         _______ _______ _______ _____ _____    ______ ____
ROOT
ATOM      1  C   LIG    1       25.836 -18.452   3.797  0.00  0.00    +0.133 C 
ATOM      2  C   LIG    1       26.106 -19.007   2.379  0.00  0.00    +0.054 C 
ENDROOT
BRANCH   1   3
ATOM      3  C   LIG    1       26.968 -18.898   4.763  0.00  0.00    +0.077 A 
ATOM      4  N   LIG    1       28.133 -18.169   4.773  0.00  0.00    -0.257 NA
ATOM      5  C   LIG    1       29.147 -18.567   5.568  0.00  0.00    +0.111 A 
ATOM      6  C   LIG    1       29.090 -19.673   6.390  0.00  0.00    +0.020 A 
ATOM      7  C   LIG    1       27.914 -20.416   6.382  0.00  0.00    +0.003 A 
ATOM      8  C   LIG    1       26.850 -20.033   5.561  0.00  0.00    +0.026 A 
ENDBRANCH   1   3
BRANCH   1   9
ATOM      9  C   LIG    1       25.716 -16.900   3.668  0.00  0.00    -0.010 A 
ATOM     10  C   LIG    1       26.819 -16.104   3.295  0.00  0.00    +0.007 A 
ATOM     11  C   LIG    1       26.738 -14.711   3.194  0.00  0.00    +0.000 A 
ATOM     12  C   LIG    1       25.542 -14.071   3.492  0.00  0.00    +0.000 A 
ATOM     13  C   LIG    1       24.443 -14.821   3.892  0.00  0.00    +0.000 A 
ATOM     14  C   LIG    1       24.521 -16.221   3.974  0.00  0.00    +0.007 A 
ENDBRANCH   1   9
BRANCH   1  15
ATOM     15  O   LIG    1       24.533 -18.890   4.254  0.00  0.00    -0.362 OA
BRANCH  15  16
ATOM     16  C   LIG    1       23.874 -19.971   3.609  0.00  0.00    +0.177 C 
BRANCH  16  17
ATOM     17  C   LIG    1       24.011 -21.275   4.453  0.00  0.00    +0.112 C 
BRANCH  17  19
ATOM     18  C   LIG    1       23.403 -20.964   6.810  0.00  0.00    +0.104 C 
ATOM     19  N   LIG    1       23.045 -21.572   5.534  0.00  0.00    -0.306 NA
ATOM     20  C   LIG    1       21.676 -21.216   5.177  0.00  0.00    +0.104 C 
ENDBRANCH  17  19
ENDBRANCH  16  17
ENDBRANCH  15  16
ENDBRANCH   1  15
TORSDOF 6
ENDMDL
MODEL 5
REMARK VINA RESULT:      -1.7      1.579      5.441
REMARK  Name = *****
REMARK                            x       y       z     vdW  Elec       q    Type
REMARK                         _______ _______ _______ _____ _____    ______ ____
ROOT
ATOM      1  C   LIG    1       25.376 -18.730   3.755  0.00  0.00    +0.133 C 
ATOM      2  C   LIG    1       25.787 -19.342   2.394  0.00  0.00    +0.054 C 
ENDROOT
BRANCH   1   3
ATOM      3  C   LIG    1       25.383 -17.180   3.659  0.00  0.00    +0.077 A 
ATOM      4  N   LIG    1       26.545 -16.563   3.263  0.00  0.00    -0.257 NA
ATOM      5  C   LIG    1       26.589 -15.215   3.220  0.00  0.00    +0.111 A 
ATOM      6  C   LIG    1       25.524 -14.402   3.547  0.00  0.00    +0.020 A 
ATOM      7  C   LIG    1       24.346 -15.022   3.951  0.00  0.00    +0.003 A 
ATOM      8  C   LIG    1       24.275 -16.416   4.015  0.00  0.00    +0.026 A 
ENDBRANCH   1   3
BRANCH   1   9
ATOM      9  C   LIG    1       23.976 -19.318   4.118  0.00  0.00    -0.010 A 
ATOM     10  C   LIG    1       22.783 -18.662   3.750  0.00  0.00    +0.007 A 
ATOM     11  C   LIG    1       21.519 -19.160   4.084  0.00  0.00    +0.000 A 
ATOM     12  C   LIG    1       21.419 -20.329   4.827  0.00  0.00    +0.000 A 
ATOM     13  C   LIG    1       22.574 -20.986   5.233  0.00  0.00    +0.000 A 
ATOM     14  C   LIG    1       23.841 -20.494   4.880  0.00  0.00    +0.007 A 
ENDBRANCH   1   9
BRANCH   1  15
ATOM     15  O   LIG    1       26.264 -19.210   4.794  0.00  0.00    -0.362 OA
BRANCH  15  16
ATOM     16  C   LIG    1       27.655 -19.349   4.541  0.00  0.00    +0.177 C 
BRANCH  16  17
ATOM     17  C   LIG    1       28.469 -19.174   5.859  0.00  0.00    +0.112 C 
BRANCH  17  19
ATOM     18  C   LIG    1       26.884 -20.612   7.060  0.00  0.00    +0.104 C 
ATOM     19  N   LIG    1       28.240 -20.081   7.006  0.00  0.00    -0.306 NA
ATOM     20  C   LIG    1       29.207 -21.172   7.062  0.00  0.00    +0.104 C 
ENDBRANCH  17  19
ENDBRANCH  16  17
ENDBRANCH  15  16
ENDBRANCH   1  15
TORSDOF 6
ENDMDL
MODEL 6
REMARK VINA RESULT:      -1.2      2.244      6.976
REMARK  Name = *****
REMARK                            x       y       z     vdW  Elec       q    Type
REMARK                         _______ _______ _______ _____ _____    ______ ____
ROOT
ATOM      1  C   LIG    1       25.425 -14.632   3.173  0.00  0.00    +0.133 C 
ATOM      2  C   LIG    1       24.874 -13.773   2.011  0.00  0.00    +0.054 C 
ENDROOT
BRANCH   1   3
ATOM      3  C   LIG    1       26.560 -13.864   3.904  0.00  0.00    +0.077 A 
ATOM      4  N   LIG    1       27.662 -13.492   3.172  0.00  0.00    -0.257 NA
ATOM      5  C   LIG    1       28.682 -12.867   3.797  0.00  0.00    +0.111 A 
ATOM      6  C   LIG    1       28.689 -12.567   5.143  0.00  0.00    +0.020 A 
ATOM      7  C   LIG    1       27.576 -12.944   5.888  0.00  0.00    +0.003 A 
ATOM      8  C   LIG    1       26.509 -13.602   5.270  0.00  0.00    +0.026 A 
ENDBRANCH   1   3
BRANCH   1   9
ATOM      9  C   LIG    1       24.218 -14.977   4.102  0.00  0.00    -0.010 A 
ATOM     10  C   LIG    1       23.515 -16.193   3.975  0.00  0.00    +0.007 A 
ATOM     11  C   LIG    1       22.417 -16.513   4.783  0.00  0.00    +0.000 A 
ATOM     12  C   LIG    1       21.977 -15.599   5.731  0.00  0.00    +0.000 A 
ATOM     13  C   LIG    1       22.627 -14.379   5.863  0.00  0.00    +0.000 A 
ATOM     14  C   LIG    1       23.740 -14.068   5.064  0.00  0.00    +0.007 A 
ENDBRANCH   1   9
BRANCH   1  15
ATOM     15  O   LIG    1       25.880 -15.909   2.663  0.00  0.00    -0.362 OA
BRANCH  15  16
ATOM     16  C   LIG    1       26.497 -16.849   3.532  0.00  0.00    +0.177 C 
BRANCH  16  17
ATOM     17  C   LIG    1       26.064 -18.301   3.161  0.00  0.00    +0.112 C 
BRANCH  17  19
ATOM     18  C   LIG    1       24.229 -19.890   3.522  0.00  0.00    +0.104 C 
ATOM     19  N   LIG    1       25.312 -19.129   4.131  0.00  0.00    -0.306 NA
ATOM     20  C   LIG    1       26.178 -20.017   4.900  0.00  0.00    +0.104 C 
ENDBRANCH  17  19
ENDBRANCH  16  17
ENDBRANCH  15  16
ENDBRANCH   1  15
TORSDOF 6
ENDMDL
