MODEL 1
REMARK VINA RESULT:      -4.2      0.000      0.000
REMARK  Name = *****
REMARK                            x       y       z     vdW  Elec       q    Type
REMARK                         _______ _______ _______ _____ _____    ______ ____
ROOT
ATOM      1  N   LIG    1       26.276 -16.362   3.166  0.00  0.00    -0.075 NA
ATOM      2  C   LIG    1       26.868 -17.438   3.547  0.00  0.00    +0.313 C 
ENDROOT
BRANCH   1   3
ATOM      3  S   LIG    1       26.979 -14.922   3.192  0.00  0.00    +0.103 S 
ATOM      4  O   LIG    1       28.129 -14.977   4.075  0.00  0.00    -0.146 OA
ATOM      5  O   LIG    1       27.148 -14.450   1.831  0.00  0.00    -0.146 OA
BRANCH   3  10
ATOM      6  C   LIG    1       22.734 -11.447   5.787  0.00  0.00    +0.044 C 
ATOM      7  C   LIG    1       23.793 -12.276   5.120  0.00  0.00    -0.050 A 
ATOM      8  C   LIG    1       25.046 -12.424   5.732  0.00  0.00    +0.005 A 
ATOM      9  C   LIG    1       26.033 -13.217   5.144  0.00  0.00    +0.029 A 
ATOM     10  C   LIG    1       25.758 -13.868   3.940  0.00  0.00    +0.113 A 
ATOM     11  C   LIG    1       24.518 -13.722   3.313  0.00  0.00    +0.029 A 
ATOM     12  C   LIG    1       23.536 -12.927   3.906  0.00  0.00    +0.005 A 
ENDBRANCH   3  10
ENDBRANCH   1   3
BRANCH   2  13
ATOM     13  N   LIG    1       26.365 -18.712   3.479  0.00  0.00    -0.231 N 
ATOM     14  H   LIG    1       26.089 -18.994   2.542  0.00  0.00    +0.171 HD
BRANCH  13  15
ATOM     15  N   LIG    1       25.610 -19.181   4.582  0.00  0.00    -0.225 NA
ATOM     16  C   LIG    1       24.180 -18.861   4.408  0.00  0.00    +0.109 C 
ATOM     17  C   LIG    1       23.512 -20.140   3.913  0.00  0.00    +0.009 C 
ATOM     18  C   LIG    1       24.354 -21.241   4.541  0.00  0.00    +0.009 C 
ATOM     19  C   LIG    1       23.656 -21.519   5.870  0.00  0.00    +0.005 C 
ATOM     20  C   LIG    1       22.179 -21.416   5.523  0.00  0.00    +0.001 C 
ATOM     21  C   LIG    1       22.088 -20.347   4.432  0.00  0.00    +0.005 C 
ATOM     22  C   LIG    1       25.748 -20.646   4.672  0.00  0.00    +0.109 C 
ENDBRANCH  13  15
ENDBRANCH   2  13
BRANCH   2  23
ATOM     23  O   LIG    1       28.102 -17.485   4.092  0.00  0.00    -0.480 OA
ATOM     24  H   LIG    1       28.196 -18.222   4.727  0.00  0.00    +0.295 HD
ENDBRANCH   2  23
TORSDOF 5
ENDMDL
MODEL 2
REMARK VINA RESULT:      -3.9      3.286      7.256
REMARK  Name = *****
REMARK                            x       y       z     vdW  Elec       q    Type
REMARK                         _______ _______ _______ _____ _____    ______ ____
ROOT
ATOM      1  N   LIG    1       23.944 -18.204   3.831  0.00  0.00    -0.075 NA
ATOM      2  C   LIG    1       23.037 -17.355   4.162  0.00  0.00    +0.313 C 
ENDROOT
BRANCH   1   3
ATOM      3  S   LIG    1       23.850 -19.765   4.186  0.00  0.00    +0.103 S 
ATOM      4  O   LIG    1       22.774 -19.966   5.138  0.00  0.00    -0.146 OA
ATOM      5  O   LIG    1       23.866 -20.534   2.955  0.00  0.00    -0.146 OA
BRANCH   3  10
ATOM      6  C   LIG    1       29.093 -20.792   7.062  0.00  0.00    +0.044 C 
ATOM      7  C   LIG    1       27.808 -20.565   6.322  0.00  0.00    -0.050 A 
ATOM      8  C   LIG    1       26.633 -21.189   6.765  0.00  0.00    +0.005 A 
ATOM      9  C   LIG    1       25.421 -20.965   6.110  0.00  0.00    +0.029 A 
ATOM     10  C   LIG    1       25.387 -20.106   5.010  0.00  0.00    +0.113 A 
ATOM     11  C   LIG    1       26.552 -19.484   4.551  0.00  0.00    +0.029 A 
ATOM     12  C   LIG    1       27.760 -19.713   5.209  0.00  0.00    +0.005 A 
ENDBRANCH   3  10
ENDBRANCH   1   3
BRANCH   2  13
ATOM     13  N   LIG    1       23.007 -16.025   3.826  0.00  0.00    -0.231 N 
ATOM     14  H   LIG    1       22.699 -15.849   2.874  0.00  0.00    +0.171 HD
BRANCH  13  15
ATOM     15  N   LIG    1       23.997 -15.183   4.388  0.00  0.00    -0.225 NA
ATOM     16  C   LIG    1       25.347 -15.637   4.004  0.00  0.00    +0.109 C 
ATOM     17  C   LIG    1       25.793 -14.736   2.858  0.00  0.00    +0.009 C 
ATOM     18  C   LIG    1       25.087 -13.421   3.151  0.00  0.00    +0.009 C 
ATOM     19  C   LIG    1       26.091 -12.650   4.004  0.00  0.00    +0.005 C 
ATOM     20  C   LIG    1       27.430 -12.986   3.366  0.00  0.00    +0.001 C 
ATOM     21  C   LIG    1       27.291 -14.421   2.852  0.00  0.00    +0.005 C 
ATOM     22  C   LIG    1       23.809 -13.811   3.878  0.00  0.00    +0.109 C 
ENDBRANCH  13  15
ENDBRANCH   2  13
BRANCH   2  23
ATOM     23  O   LIG    1       21.952 -17.640   4.911  0.00  0.00    -0.480 OA
ATOM     24  H   LIG    1       22.163 -18.246   5.648  0.00  0.00    +0.295 HD
ENDBRANCH   2  23
TORSDOF 5
ENDMDL
MODEL 3
REMARK VINA RESULT:      -3.4      3.094      7.153
REMARK  Name = *****
REMARK                            x       y       z     vdW  Elec       q    Type
REMARK                         _______ _______ _______ _____ _____    ______ ____
ROOT
ATOM      1  N   LIG    1       23.919 -17.388   3.971  0.00  0.00    -0.075 NA
ATOM      2  C   LIG    1       23.101 -16.516   4.442  0.00  0.00    +0.313 C 
ENDROOT
BRANCH   1   3
ATOM      3  S   LIG    1       23.612 -18.961   3.965  0.00  0.00    +0.103 S 
ATOM      4  O   LIG    1       22.386 -19.202   4.702  0.00  0.00    -0.146 OA
ATOM      5  O   LIG    1       23.740 -19.465   2.610  0.00  0.00    -0.146 OA
BRANCH   3  10
ATOM      6  C   LIG    1       28.180 -21.483   7.062  0.00  0.00    +0.044 C 
ATOM      7  C   LIG    1       27.048 -20.831   6.325  0.00  0.00    -0.050 A 
ATOM      8  C   LIG    1       27.320 -20.002   5.228  0.00  0.00    +0.005 A 
ATOM      9  C   LIG    1       26.279 -19.412   4.508  0.00  0.00    +0.029 A 
ATOM     10  C   LIG    1       24.959 -19.660   4.890  0.00  0.00    +0.113 A 
ATOM     11  C   LIG    1       24.672 -20.476   5.988  0.00  0.00    +0.029 A 
ATOM     12  C   LIG    1       25.717 -21.061   6.702  0.00  0.00    +0.005 A 
ENDBRANCH   3  10
ENDBRANCH   1   3
BRANCH   2  13
ATOM     13  N   LIG    1       23.256 -15.153   4.410  0.00  0.00    -0.231 N 
ATOM     14  H   LIG    1       22.381 -14.639   4.479  0.00  0.00    +0.171 HD
BRANCH  13  15
ATOM     15  N   LIG    1       24.292 -14.628   3.601  0.00  0.00    -0.225 NA
ATOM     16  C   LIG    1       24.860 -13.409   4.208  0.00  0.00    +0.109 C 
ATOM     17  C   LIG    1       26.152 -13.835   4.898  0.00  0.00    +0.009 C 
ATOM     18  C   LIG    1       26.634 -15.002   4.050  0.00  0.00    +0.009 C 
ATOM     19  C   LIG    1       27.535 -14.346   3.007  0.00  0.00    +0.005 C 
ATOM     20  C   LIG    1       28.264 -13.269   3.794  0.00  0.00    +0.001 C 
ATOM     21  C   LIG    1       27.266 -12.787   4.849  0.00  0.00    +0.005 C 
ATOM     22  C   LIG    1       25.369 -15.630   3.486  0.00  0.00    +0.109 C 
ENDBRANCH  13  15
ENDBRANCH   2  13
BRANCH   2  23
ATOM     23  O   LIG    1       21.938 -16.807   5.061  0.00  0.00    -0.480 OA
ATOM     24  H   LIG    1       22.075 -17.111   5.979  0.00  0.00    +0.295 HD
ENDBRANCH   2  23
TORSDOF 5
ENDMDL
MODEL 4
REMARK VINA RESULT:      -3.3      2.208      6.816
REMARK  Name = *****
REMARK                            x       y       z     vdW  Elec       q    Type
REMARK                         _______ _______ _______ _____ _____    ______ ____
ROOT
ATOM      1  N   LIG    1       27.182 -18.193   4.806  0.00  0.00    -0.075 NA
ATOM      2  C   LIG    1       28.191 -17.397   4.784  0.00  0.00    +0.313 C 
ENDROOT
BRANCH   1   3
ATOM      3  S   LIG    1       27.258 -19.683   5.390  0.00  0.00    +0.103 S 
ATOM      4  O   LIG    1       28.085 -20.490   4.512  0.00  0.00    -0.146 OA
ATOM      5  O   LIG    1       27.569 -19.625   6.806  0.00  0.00    -0.146 OA
BRANCH   3  10
ATOM      6  C   LIG    1       21.501 -21.572   5.048  0.00  0.00    +0.044 C 
ATOM      7  C   LIG    1       22.937 -21.144   5.130  0.00  0.00    -0.050 A 
ATOM      8  C   LIG    1       23.576 -20.638   3.990  0.00  0.00    +0.005 A 
ATOM      9  C   LIG    1       24.901 -20.203   4.053  0.00  0.00    +0.029 A 
ATOM     10  C   LIG    1       25.585 -20.272   5.268  0.00  0.00    +0.113 A 
ATOM     11  C   LIG    1       24.965 -20.783   6.411  0.00  0.00    +0.029 A 
ATOM     12  C   LIG    1       23.640 -21.216   6.341  0.00  0.00    +0.005 A 
ENDBRANCH   3  10
ENDBRANCH   1   3
BRANCH   2  13
ATOM     13  N   LIG    1       28.186 -16.086   4.377  0.00  0.00    -0.231 N 
ATOM     14  H   LIG    1       28.447 -15.429   5.108  0.00  0.00    +0.171 HD
BRANCH  13  15
ATOM     15  N   LIG    1       27.210 -15.697   3.428  0.00  0.00    -0.225 NA
ATOM     16  C   LIG    1       25.884 -15.577   4.063  0.00  0.00    +0.109 C 
ATOM     17  C   LIG    1       25.662 -14.089   4.315  0.00  0.00    +0.009 C 
ATOM     18  C   LIG    1       26.437 -13.423   3.188  0.00  0.00    +0.009 C 
ATOM     19  C   LIG    1       25.405 -13.278   2.072  0.00  0.00    +0.005 C 
ATOM     20  C   LIG    1       24.132 -12.904   2.814  0.00  0.00    +0.001 C 
ATOM     21  C   LIG    1       24.209 -13.634   4.156  0.00  0.00    +0.005 C 
ATOM     22  C   LIG    1       27.577 -14.380   2.873  0.00  0.00    +0.109 C 
ENDBRANCH  13  15
ENDBRANCH   2  13
BRANCH   2  23
ATOM     23  O   LIG    1       29.444 -17.731   5.158  0.00  0.00    -0.480 OA
ATOM     24  H   LIG    1       29.736 -18.572   4.756  0.00  0.00    +0.295 HD
ENDBRANCH   2  23
TORSDOF 5
ENDMDL
MODEL 5
REMARK VINA RESULT:      -3.2      2.637      6.428
REMARK  Name = *****
REMARK                            x       y       z     vdW  Elec       q    Type
REMARK                         _______ _______ _______ _____ _____    ______ ____
ROOT
ATOM      1  N   LIG    1       25.649 -19.198   5.213  0.00  0.00    -0.075 NA
ATOM      2  C   LIG    1       26.063 -18.805   4.061  0.00  0.00    +0.313 C 
ENDROOT
BRANCH   1   3
ATOM      3  S   LIG    1       24.727 -20.494   5.414  0.00  0.00    +0.103 S 
ATOM      4  O   LIG    1       25.213 -21.554   4.551  0.00  0.00    -0.146 OA
ATOM      5  O   LIG    1       24.566 -20.748   6.833  0.00  0.00    -0.146 OA
BRANCH   3  10
ATOM      6  C   LIG    1       19.351 -18.726   3.224  0.00  0.00    +0.044 C 
ATOM      7  C   LIG    1       20.670 -19.148   3.802  0.00  0.00    -0.050 A 
ATOM      8  C   LIG    1       20.867 -20.484   4.178  0.00  0.00    +0.005 A 
ATOM      9  C   LIG    1       22.097 -20.904   4.686  0.00  0.00    +0.029 A 
ATOM     10  C   LIG    1       23.135 -19.978   4.813  0.00  0.00    +0.113 A 
ATOM     11  C   LIG    1       22.951 -18.641   4.452  0.00  0.00    +0.029 A 
ATOM     12  C   LIG    1       21.719 -18.228   3.945  0.00  0.00    +0.005 A 
ENDBRANCH   3  10
ENDBRANCH   1   3
BRANCH   2  13
ATOM     13  N   LIG    1       26.917 -17.759   3.816  0.00  0.00    -0.231 N 
ATOM     14  H   LIG    1       27.539 -17.548   4.591  0.00  0.00    +0.171 HD
BRANCH  13  15
ATOM     15  N   LIG    1       26.437 -16.692   3.018  0.00  0.00    -0.225 NA
ATOM     16  C   LIG    1       25.018 -16.418   3.312  0.00  0.00    +0.109 C 
ATOM     17  C   LIG    1       24.999 -15.208   4.242  0.00  0.00    +0.009 C 
ATOM     18  C   LIG    1       26.235 -14.427   3.825  0.00  0.00    +0.009 C 
ATOM     19  C   LIG    1       25.719 -13.473   2.751  0.00  0.00    +0.005 C 
ATOM     20  C   LIG    1       24.356 -13.051   3.277  0.00  0.00    +0.001 C 
ATOM     21  C   LIG    1       23.810 -14.269   4.026  0.00  0.00    +0.005 C 
ATOM     22  C   LIG    1       27.214 -15.476   3.321  0.00  0.00    +0.109 C 
ENDBRANCH  13  15
ENDBRANCH   2  13
BRANCH   2  23
ATOM     23  O   LIG    1       25.711 -19.364   2.885  0.00  0.00    -0.480 OA
ATOM     24  H   LIG    1       26.444 -19.873   2.485  0.00  0.00    +0.295 HD
ENDBRANCH   2  23
TORSDOF 5
ENDMDL
MODEL 6
REMARK VINA RESULT:      -2.4      1.947      6.486
REMARK  Name = *****
REMARK                            x       y       z     vdW  Elec       q    Type
REMARK                         _______ _______ _______ _____ _____    ______ ____
ROOT
ATOM      1  N   LIG    1       25.914 -17.709   3.266  0.00  0.00    -0.075 NA
ATOM      2  C   LIG    1       26.973 -17.048   3.575  0.00  0.00    +0.313 C 
ENDROOT
BRANCH   1   3
ATOM      3  S   LIG    1       25.612 -19.183   3.818  0.00  0.00    +0.103 S 
ATOM      4  O   LIG    1       26.036 -20.152   2.825  0.00  0.00    -0.146 OA
ATOM      5  O   LIG    1       26.106 -19.292   5.178  0.00  0.00    -0.146 OA
BRANCH   3  10
ATOM      6  C   LIG    1       19.550 -19.374   4.027  0.00  0.00    +0.044 C 
ATOM      7  C   LIG    1       21.049 -19.311   4.012  0.00  0.00    -0.050 A 
ATOM      8  C   LIG    1       21.795 -20.469   4.271  0.00  0.00    +0.005 A 
ATOM      9  C   LIG    1       23.190 -20.439   4.229  0.00  0.00    +0.029 A 
ATOM     10  C   LIG    1       23.838 -19.241   3.923  0.00  0.00    +0.113 A 
ATOM     11  C   LIG    1       23.109 -18.075   3.673  0.00  0.00    +0.029 A 
ATOM     12  C   LIG    1       21.715 -18.113   3.716  0.00  0.00    +0.005 A 
ENDBRANCH   3  10
ENDBRANCH   1   3
BRANCH   2  13
ATOM     13  N   LIG    1       27.263 -15.758   3.210  0.00  0.00    -0.231 N 
ATOM     14  H   LIG    1       28.232 -15.617   2.936  0.00  0.00    +0.171 HD
BRANCH  13  15
ATOM     15  N   LIG    1       26.590 -14.715   3.891  0.00  0.00    -0.225 NA
ATOM     16  C   LIG    1       26.726 -13.442   3.158  0.00  0.00    +0.109 C 
ATOM     17  C   LIG    1       25.423 -13.247   2.390  0.00  0.00    +0.009 C 
ATOM     18  C   LIG    1       24.391 -13.937   3.269  0.00  0.00    +0.009 C 
ATOM     19  C   LIG    1       23.890 -12.825   4.186  0.00  0.00    +0.005 C 
ATOM     20  C   LIG    1       23.825 -11.613   3.269  0.00  0.00    +0.001 C 
ATOM     21  C   LIG    1       24.973 -11.789   2.274  0.00  0.00    +0.005 C 
ATOM     22  C   LIG    1       25.155 -15.045   3.979  0.00  0.00    +0.109 C 
ENDBRANCH  13  15
ENDBRANCH   2  13
BRANCH   2  23
ATOM     23  O   LIG    1       27.992 -17.531   4.316  0.00  0.00    -0.480 OA
ATOM     24  H   LIG    1       28.101 -18.495   4.208  0.00  0.00    +0.295 HD
ENDBRANCH   2  23
TORSDOF 5
ENDMDL
MODEL 7
REMARK VINA RESULT:      -2.0      3.192      4.380
REMARK  Name = *****
REMARK                            x       y       z     vdW  Elec       q    Type
REMARK                         _______ _______ _______ _____ _____    ______ ____
ROOT
ATOM      1  N   LIG    1       23.182 -18.821   3.850  0.00  0.00    -0.075 NA
ATOM      2  C   LIG    1       23.025 -19.955   4.434  0.00  0.00    +0.313 C 
ENDROOT
BRANCH   1   3
ATOM      3  S   LIG    1       22.595 -17.449   4.434  0.00  0.00    +0.103 S 
ATOM      4  O   LIG    1       21.409 -17.087   3.682  0.00  0.00    -0.146 OA
ATOM      5  O   LIG    1       22.521 -17.540   5.880  0.00  0.00    -0.146 OA
BRANCH   3  10
ATOM      6  C   LIG    1       26.951 -13.366   3.346  0.00  0.00    +0.044 C 
ATOM      7  C   LIG    1       25.856 -14.365   3.580  0.00  0.00    -0.050 A 
ATOM      8  C   LIG    1       26.087 -15.722   3.313  0.00  0.00    +0.005 A 
ATOM      9  C   LIG    1       25.093 -16.672   3.555  0.00  0.00    +0.029 A 
ATOM     10  C   LIG    1       23.864 -16.257   4.072  0.00  0.00    +0.113 A 
ATOM     11  C   LIG    1       23.615 -14.907   4.334  0.00  0.00    +0.029 A 
ATOM     12  C   LIG    1       24.613 -13.963   4.089  0.00  0.00    +0.005 A 
ENDBRANCH   3  10
ENDBRANCH   1   3
BRANCH   2  13
ATOM     13  N   LIG    1       23.562 -21.155   4.041  0.00  0.00    -0.231 N 
ATOM     14  H   LIG    1       22.867 -21.857   3.802  0.00  0.00    +0.171 HD
BRANCH  13  15
ATOM     15  N   LIG    1       24.764 -21.572   4.663  0.00  0.00    -0.225 NA
ATOM     16  C   LIG    1       25.898 -20.742   4.213  0.00  0.00    +0.109 C 
ATOM     17  C   LIG    1       26.146 -19.719   5.316  0.00  0.00    +0.009 C 
ATOM     18  C   LIG    1       25.717 -20.452   6.577  0.00  0.00    +0.009 C 
ATOM     19  C   LIG    1       26.999 -21.124   7.062  0.00  0.00    +0.005 C 
ATOM     20  C   LIG    1       28.072 -20.083   6.785  0.00  0.00    +0.001 C 
ATOM     21  C   LIG    1       27.619 -19.356   5.517  0.00  0.00    +0.005 C 
ATOM     22  C   LIG    1       24.631 -21.416   6.124  0.00  0.00    +0.109 C 
ENDBRANCH  13  15
ENDBRANCH   2  13
BRANCH   2  23
ATOM     23  O   LIG    1       22.286 -20.152   5.546  0.00  0.00    -0.480 OA
ATOM     24  H   LIG    1       21.328 -20.136   5.359  0.00  0.00    +0.295 HD
ENDBRANCH   2  23
TORSDOF 5
ENDMDL
MODEL 8
REMARK VINA RESULT:      -1.8      2.098      3.038
REMARK  Name = *****
REMARK                            x       y       z     vdW  Elec       q    Type
REMARK                         _______ _______ _______ _____ _____    ______ ____
ROOT
ATOM      1  N   LIG    1       24.405 -16.360   4.054  0.00  0.00    -0.075 NA
ATOM      2  C   LIG    1       25.418 -16.856   3.438  0.00  0.00    +0.313 C 
ENDROOT
BRANCH   1   3
ATOM      3  S   LIG    1       24.061 -14.795   4.051  0.00  0.00    +0.103 S 
ATOM      4  O   LIG    1       23.454 -14.450   2.779  0.00  0.00    -0.146 OA
ATOM      5  O   LIG    1       23.373 -14.456   5.283  0.00  0.00    -0.146 OA
BRANCH   3  10
ATOM      6  C   LIG    1       29.431 -11.983   4.321  0.00  0.00    +0.044 C 
ATOM      7  C   LIG    1       28.122 -12.711   4.239  0.00  0.00    -0.050 A 
ATOM      8  C   LIG    1       27.572 -13.282   5.395  0.00  0.00    +0.005 A 
ATOM      9  C   LIG    1       26.339 -13.935   5.347  0.00  0.00    +0.029 A 
ATOM     10  C   LIG    1       25.654 -14.010   4.133  0.00  0.00    +0.113 A 
ATOM     11  C   LIG    1       26.193 -13.455   2.970  0.00  0.00    +0.029 A 
ATOM     12  C   LIG    1       27.426 -12.804   3.025  0.00  0.00    +0.005 A 
ENDBRANCH   3  10
ENDBRANCH   1   3
BRANCH   2  13
ATOM     13  N   LIG    1       25.732 -18.187   3.327  0.00  0.00    -0.231 N 
ATOM     14  H   LIG    1       26.561 -18.367   2.766  0.00  0.00    +0.171 HD
BRANCH  13  15
ATOM     15  N   LIG    1       24.662 -19.113   3.278  0.00  0.00    -0.225 NA
ATOM     16  C   LIG    1       25.006 -20.346   4.012  0.00  0.00    +0.109 C 
ATOM     17  C   LIG    1       24.330 -20.237   5.375  0.00  0.00    +0.009 C 
ATOM     18  C   LIG    1       23.089 -19.407   5.084  0.00  0.00    +0.009 C 
ATOM     19  C   LIG    1       22.022 -20.448   4.759  0.00  0.00    +0.005 C 
ATOM     20  C   LIG    1       22.309 -21.570   5.744  0.00  0.00    +0.001 C 
ATOM     21  C   LIG    1       23.827 -21.569   5.936  0.00  0.00    +0.005 C 
ATOM     22  C   LIG    1       23.476 -18.512   3.916  0.00  0.00    +0.109 C 
ENDBRANCH  13  15
ENDBRANCH   2  13
BRANCH   2  23
ATOM     23  O   LIG    1       26.358 -16.132   2.794  0.00  0.00    -0.480 OA
ATOM     24  H   LIG    1       27.247 -16.526   2.877  0.00  0.00    +0.295 HD
ENDBRANCH   2  23
TORSDOF 5
ENDMDL
MODEL 9
REMARK VINA RESULT:      -1.3      2.931      3.886
REMARK  Name = *****
REMARK                            x       y       z     vdW  Elec       q    Type
REMARK                         _______ _______ _______ _____ _____    ______ ____
ROOT
ATOM      1  N   LIG    1       23.473 -17.365   3.669  0.00  0.00    -0.075 NA
ATOM      2  C   LIG    1       22.605 -18.313   3.654  0.00  0.00    +0.313 C 
ENDROOT
BRANCH   1   3
ATOM      3  S   LIG    1       23.184 -15.926   4.314  0.00  0.00    +0.103 S 
ATOM      4  O   LIG    1       22.238 -15.217   3.473  0.00  0.00    -0.146 OA
ATOM      5  O   LIG    1       22.899 -16.087   5.727  0.00  0.00    -0.146 OA
BRANCH   3  10
ATOM      6  C   LIG    1       28.499 -13.042   3.812  0.00  0.00    +0.044 C 
ATOM      7  C   LIG    1       27.201 -13.778   3.966  0.00  0.00    -0.050 A 
ATOM      8  C   LIG    1       26.156 -13.197   4.697  0.00  0.00    +0.005 A 
ATOM      9  C   LIG    1       24.929 -13.851   4.824  0.00  0.00    +0.029 A 
ATOM     10  C   LIG    1       24.750 -15.092   4.209  0.00  0.00    +0.113 A 
ATOM     11  C   LIG    1       25.785 -15.689   3.485  0.00  0.00    +0.029 A 
ATOM     12  C   LIG    1       27.009 -15.030   3.363  0.00  0.00    +0.005 A 
ENDBRANCH   3  10
ENDBRANCH   1   3
BRANCH   2  13
ATOM     13  N   LIG    1       22.804 -19.591   3.196  0.00  0.00    -0.231 N 
ATOM     14  H   LIG    1       22.176 -19.859   2.443  0.00  0.00    +0.171 HD
BRANCH  13  15
ATOM     15  N   LIG    1       23.197 -20.573   4.137  0.00  0.00    -0.225 NA
ATOM     16  C   LIG    1       24.633 -20.880   4.002  0.00  0.00    +0.109 C 
ATOM     17  C   LIG    1       25.344 -20.104   5.106  0.00  0.00    +0.009 C 
ATOM     18  C   LIG    1       24.304 -20.042   6.215  0.00  0.00    +0.009 C 
ATOM     19  C   LIG    1       24.589 -21.285   7.053  0.00  0.00    +0.005 C 
ATOM     20  C   LIG    1       26.107 -21.365   7.062  0.00  0.00    +0.001 C 
ATOM     21  C   LIG    1       26.555 -20.825   5.702  0.00  0.00    +0.005 C 
ATOM     22  C   LIG    1       22.962 -20.057   5.499  0.00  0.00    +0.109 C 
ENDBRANCH  13  15
ENDBRANCH   2  13
BRANCH   2  23
ATOM     23  O   LIG    1       21.333 -18.199   4.088  0.00  0.00    -0.480 OA
ATOM     24  H   LIG    1       20.836 -17.516   3.598  0.00  0.00    +0.295 HD
ENDBRANCH   2  23
TORSDOF 5
ENDMDL
