MODEL 1
REMARK VINA RESULT:      -9.9      0.000      0.000
REMARK  Name = *****
REMARK                            x       y       z     vdW  Elec       q    Type
REMARK                         _______ _______ _______ _____ _____    ______ ____
ROOT
ATOM      1  C   LIG    1       29.634 -20.311   7.454  0.00  0.00    -0.033 A 
ATOM      2  C   LIG    1       28.532 -20.859   8.139  0.00  0.00    +0.016 A 
ATOM      3  C   LIG    1       27.239 -20.783   7.599  0.00  0.00    +0.022 A 
ATOM      4  C   LIG    1       27.049 -20.199   6.342  0.00  0.00    +0.012 A 
ATOM      5  C   LIG    1       28.134 -19.673   5.646  0.00  0.00    +0.001 A 
ATOM      6  C   LIG    1       29.415 -19.733   6.196  0.00  0.00    +0.004 A 
ENDROOT
BRANCH   1   8
ATOM      7  C   LIG    1       31.171 -21.568   9.040  0.00  0.00    +0.024 C 
ATOM      8  C   LIG    1       31.028 -20.386   8.070  0.00  0.00    +0.124 C 
BRANCH   8   9
ATOM      9  C   LIG    1       31.512 -19.119   8.776  0.00  0.00    +0.312 C 
ATOM     10  O   LIG    1       31.489 -18.995   9.991  0.00  0.00    -0.250 OA
BRANCH   9  11
ATOM     11  O   LIG    1       31.987 -18.128   7.989  0.00  0.00    -0.480 OA
ATOM     12  H   LIG    1       32.818 -18.317   7.516  0.00  0.00    +0.295 HD
ENDBRANCH   9  11
ENDBRANCH   8   9
ENDBRANCH   1   8
BRANCH   3  13
ATOM     13  C   LIG    1       26.057 -21.356   8.301  0.00  0.00    +0.193 C 
ATOM     14  O   LIG    1       25.784 -20.954   9.428  0.00  0.00    -0.287 OA
BRANCH  13  15
ATOM     15  C   LIG    1       25.190 -22.385   7.663  0.00  0.00    +0.022 A 
ATOM     16  C   LIG    1       25.764 -23.607   7.291  0.00  0.00    +0.012 A 
ATOM     17  C   LIG    1       24.977 -24.602   6.707  0.00  0.00    +0.001 A 
ATOM     18  C   LIG    1       23.617 -24.377   6.488  0.00  0.00    +0.000 A 
ATOM     19  C   LIG    1       23.047 -23.153   6.833  0.00  0.00    +0.001 A 
ATOM     20  C   LIG    1       23.834 -22.152   7.405  0.00  0.00    +0.012 A 
ENDBRANCH  13  15
ENDBRANCH   3  13
TORSDOF 5
ENDMDL
MODEL 2
REMARK VINA RESULT:      -9.3      2.593      6.743
REMARK  Name = *****
REMARK                            x       y       z     vdW  Elec       q    Type
REMARK                         _______ _______ _______ _____ _____    ______ ____
ROOT
ATOM      1  C   LIG    1       25.175 -24.792   6.571  0.00  0.00    -0.033 A 
ATOM      2  C   LIG    1       25.907 -23.747   7.166  0.00  0.00    +0.016 A 
ATOM      3  C   LIG    1       25.277 -22.553   7.548  0.00  0.00    +0.022 A 
ATOM      4  C   LIG    1       23.895 -22.417   7.379  0.00  0.00    +0.012 A 
ATOM      5  C   LIG    1       23.156 -23.451   6.811  0.00  0.00    +0.001 A 
ATOM      6  C   LIG    1       23.790 -24.628   6.414  0.00  0.00    +0.004 A 
ENDROOT
BRANCH   1   8
ATOM      7  C   LIG    1       25.670 -26.385   4.655  0.00  0.00    +0.024 C 
ATOM      8  C   LIG    1       25.884 -26.073   6.143  0.00  0.00    +0.124 C 
BRANCH   8   9
ATOM      9  C   LIG    1       25.544 -27.324   6.953  0.00  0.00    +0.312 C 
ATOM     10  O   LIG    1       24.560 -28.010   6.720  0.00  0.00    -0.250 OA
BRANCH   9  11
ATOM     11  O   LIG    1       26.396 -27.655   7.948  0.00  0.00    -0.480 OA
ATOM     12  H   LIG    1       27.323 -27.807   7.686  0.00  0.00    +0.295 HD
ENDBRANCH   9  11
ENDBRANCH   8   9
ENDBRANCH   1   8
BRANCH   3  13
ATOM     13  C   LIG    1       26.028 -21.433   8.182  0.00  0.00    +0.193 C 
ATOM     14  O   LIG    1       25.789 -21.147   9.352  0.00  0.00    -0.287 OA
BRANCH  13  15
ATOM     15  C   LIG    1       27.070 -20.671   7.442  0.00  0.00    +0.022 A 
ATOM     16  C   LIG    1       26.849 -20.370   6.093  0.00  0.00    +0.012 A 
ATOM     17  C   LIG    1       27.797 -19.641   5.372  0.00  0.00    +0.001 A 
ATOM     18  C   LIG    1       28.970 -19.214   5.995  0.00  0.00    +0.000 A 
ATOM     19  C   LIG    1       29.207 -19.532   7.332  0.00  0.00    +0.001 A 
ATOM     20  C   LIG    1       28.267 -20.273   8.051  0.00  0.00    +0.012 A 
ENDBRANCH  13  15
ENDBRANCH   3  13
TORSDOF 5
ENDMDL
MODEL 3
REMARK VINA RESULT:      -9.3      2.466      6.514
REMARK  Name = *****
REMARK                            x       y       z     vdW  Elec       q    Type
REMARK                         _______ _______ _______ _____ _____    ______ ____
ROOT
ATOM      1  C   LIG    1       24.407 -24.166   6.750  0.00  0.00    -0.033 A 
ATOM      2  C   LIG    1       25.352 -23.282   7.305  0.00  0.00    +0.016 A 
ATOM      3  C   LIG    1       24.977 -21.992   7.713  0.00  0.00    +0.022 A 
ATOM      4  C   LIG    1       23.639 -21.597   7.612  0.00  0.00    +0.012 A 
ATOM      5  C   LIG    1       22.692 -22.471   7.084  0.00  0.00    +0.001 A 
ATOM      6  C   LIG    1       23.072 -23.744   6.661  0.00  0.00    +0.004 A 
ENDROOT
BRANCH   1   8
ATOM      7  C   LIG    1       25.961 -26.131   7.171  0.00  0.00    +0.024 C 
ATOM      8  C   LIG    1       24.841 -25.556   6.293  0.00  0.00    +0.124 C 
BRANCH   8   9
ATOM      9  C   LIG    1       25.264 -25.673   4.829  0.00  0.00    +0.312 C 
ATOM     10  O   LIG    1       25.957 -26.591   4.417  0.00  0.00    -0.250 OA
BRANCH   9  11
ATOM     11  O   LIG    1       24.824 -24.709   3.990  0.00  0.00    -0.480 OA
ATOM     12  H   LIG    1       24.850 -24.923   3.039  0.00  0.00    +0.295 HD
ENDBRANCH   9  11
ENDBRANCH   8   9
ENDBRANCH   1   8
BRANCH   3  13
ATOM     13  C   LIG    1       25.955 -21.038   8.306  0.00  0.00    +0.193 C 
ATOM     14  O   LIG    1       25.860 -20.754   9.497  0.00  0.00    -0.287 OA
BRANCH  13  15
ATOM     15  C   LIG    1       27.053 -20.439   7.499  0.00  0.00    +0.022 A 
ATOM     16  C   LIG    1       28.233 -20.059   8.151  0.00  0.00    +0.012 A 
ATOM     17  C   LIG    1       29.291 -19.511   7.422  0.00  0.00    +0.001 A 
ATOM     18  C   LIG    1       29.173 -19.338   6.043  0.00  0.00    +0.000 A 
ATOM     19  C   LIG    1       27.991 -19.692   5.393  0.00  0.00    +0.001 A 
ATOM     20  C   LIG    1       26.927 -20.227   6.121  0.00  0.00    +0.012 A 
ENDBRANCH  13  15
ENDBRANCH   3  13
TORSDOF 5
ENDMDL
MODEL 4
REMARK VINA RESULT:      -9.0      2.183      2.934
REMARK  Name = *****
REMARK                            x       y       z     vdW  Elec       q    Type
REMARK                         _______ _______ _______ _____ _____    ______ ____
ROOT
ATOM      1  C   LIG    1       29.681 -19.876   7.766  0.00  0.00    -0.033 A 
ATOM      2  C   LIG    1       28.502 -20.637   7.659  0.00  0.00    +0.016 A 
ATOM      3  C   LIG    1       27.651 -20.494   6.552  0.00  0.00    +0.022 A 
ATOM      4  C   LIG    1       28.003 -19.619   5.519  0.00  0.00    +0.012 A 
ATOM      5  C   LIG    1       29.178 -18.876   5.604  0.00  0.00    +0.001 A 
ATOM      6  C   LIG    1       30.010 -19.007   6.715  0.00  0.00    +0.004 A 
ENDROOT
BRANCH   1   8
ATOM      7  C   LIG    1       31.766 -19.056   8.964  0.00  0.00    +0.024 C 
ATOM      8  C   LIG    1       30.581 -20.032   8.988  0.00  0.00    +0.124 C 
BRANCH   8   9
ATOM      9  C   LIG    1       31.118 -21.440   9.244  0.00  0.00    +0.312 C 
ATOM     10  O   LIG    1       30.736 -22.130  10.176  0.00  0.00    -0.250 OA
BRANCH   9  11
ATOM     11  O   LIG    1       32.041 -21.906   8.373  0.00  0.00    -0.480 OA
ATOM     12  H   LIG    1       31.985 -22.854   8.155  0.00  0.00    +0.295 HD
ENDBRANCH   9  11
ENDBRANCH   8   9
ENDBRANCH   1   8
BRANCH   3  13
ATOM     13  C   LIG    1       26.399 -21.289   6.412  0.00  0.00    +0.193 C 
ATOM     14  O   LIG    1       26.375 -22.438   6.841  0.00  0.00    -0.287 OA
BRANCH  13  15
ATOM     15  C   LIG    1       25.175 -20.718   5.786  0.00  0.00    +0.022 A 
ATOM     16  C   LIG    1       23.996 -20.672   6.540  0.00  0.00    +0.012 A 
ATOM     17  C   LIG    1       22.834 -20.126   5.991  0.00  0.00    +0.001 A 
ATOM     18  C   LIG    1       22.844 -19.630   4.687  0.00  0.00    +0.000 A 
ATOM     19  C   LIG    1       24.008 -19.697   3.923  0.00  0.00    +0.001 A 
ATOM     20  C   LIG    1       25.168 -20.254   4.464  0.00  0.00    +0.012 A 
ENDBRANCH  13  15
ENDBRANCH   3  13
TORSDOF 5
ENDMDL
MODEL 5
REMARK VINA RESULT:      -8.8      2.881      5.493
REMARK  Name = *****
REMARK                            x       y       z     vdW  Elec       q    Type
REMARK                         _______ _______ _______ _____ _____    ______ ____
ROOT
ATOM      1  C   LIG    1       24.839 -22.239   6.932  0.00  0.00    -0.033 A 
ATOM      2  C   LIG    1       25.625 -23.375   6.661  0.00  0.00    +0.016 A 
ATOM      3  C   LIG    1       25.034 -24.636   6.486  0.00  0.00    +0.022 A 
ATOM      4  C   LIG    1       23.641 -24.757   6.534  0.00  0.00    +0.012 A 
ATOM      5  C   LIG    1       22.851 -23.637   6.781  0.00  0.00    +0.001 A 
ATOM      6  C   LIG    1       23.445 -22.390   6.974  0.00  0.00    +0.004 A 
ENDROOT
BRANCH   1   8
ATOM      7  C   LIG    1       26.367 -20.470   5.939  0.00  0.00    +0.024 C 
ATOM      8  C   LIG    1       25.505 -20.882   7.141  0.00  0.00    +0.124 C 
BRANCH   8   9
ATOM      9  C   LIG    1       26.345 -20.742   8.410  0.00  0.00    +0.312 C 
ATOM     10  O   LIG    1       25.845 -20.601   9.516  0.00  0.00    -0.250 OA
BRANCH   9  11
ATOM     11  O   LIG    1       27.687 -20.793   8.260  0.00  0.00    -0.480 OA
ATOM     12  H   LIG    1       28.092 -21.678   8.319  0.00  0.00    +0.295 HD
ENDBRANCH   9  11
ENDBRANCH   8   9
ENDBRANCH   1   8
BRANCH   3  13
ATOM     13  C   LIG    1       25.842 -25.852   6.195  0.00  0.00    +0.193 C 
ATOM     14  O   LIG    1       26.958 -25.719   5.703  0.00  0.00    -0.287 OA
BRANCH  13  15
ATOM     15  C   LIG    1       25.339 -27.219   6.504  0.00  0.00    +0.022 A 
ATOM     16  C   LIG    1       25.751 -27.830   7.695  0.00  0.00    +0.012 A 
ATOM     17  C   LIG    1       25.285 -29.104   8.027  0.00  0.00    +0.001 A 
ATOM     18  C   LIG    1       24.410 -29.772   7.169  0.00  0.00    +0.000 A 
ATOM     19  C   LIG    1       24.016 -29.178   5.971  0.00  0.00    +0.001 A 
ATOM     20  C   LIG    1       24.491 -27.911   5.630  0.00  0.00    +0.012 A 
ENDBRANCH  13  15
ENDBRANCH   3  13
TORSDOF 5
ENDMDL
MODEL 6
REMARK VINA RESULT:      -8.7      2.122      2.808
REMARK  Name = *****
REMARK                            x       y       z     vdW  Elec       q    Type
REMARK                         _______ _______ _______ _____ _____    ______ ____
ROOT
ATOM      1  C   LIG    1       29.811 -19.120   8.386  0.00  0.00    -0.033 A 
ATOM      2  C   LIG    1       28.420 -19.264   8.542  0.00  0.00    +0.016 A 
ATOM      3  C   LIG    1       27.759 -20.415   8.083  0.00  0.00    +0.022 A 
ATOM      4  C   LIG    1       28.499 -21.452   7.506  0.00  0.00    +0.012 A 
ATOM      5  C   LIG    1       29.880 -21.330   7.365  0.00  0.00    +0.001 A 
ATOM      6  C   LIG    1       30.529 -20.176   7.805  0.00  0.00    +0.004 A 
ENDROOT
BRANCH   1   8
ATOM      7  C   LIG    1       31.993 -17.823   8.492  0.00  0.00    +0.024 C 
ATOM      8  C   LIG    1       30.506 -17.852   8.874  0.00  0.00    +0.124 C 
BRANCH   8   9
ATOM      9  C   LIG    1       30.384 -17.560  10.370  0.00  0.00    +0.312 C 
ATOM     10  O   LIG    1       30.109 -16.451  10.802  0.00  0.00    -0.250 OA
BRANCH   9  11
ATOM     11  O   LIG    1       30.585 -18.599  11.210  0.00  0.00    -0.480 OA
ATOM     12  H   LIG    1       31.512 -18.863  11.352  0.00  0.00    +0.295 HD
ENDBRANCH   9  11
ENDBRANCH   8   9
ENDBRANCH   1   8
BRANCH   3  13
ATOM     13  C   LIG    1       26.288 -20.594   8.237  0.00  0.00    +0.193 C 
ATOM     14  O   LIG    1       25.823 -20.729   9.365  0.00  0.00    -0.287 OA
BRANCH  13  15
ATOM     15  C   LIG    1       25.372 -20.592   7.064  0.00  0.00    +0.022 A 
ATOM     16  C   LIG    1       24.005 -20.807   7.282  0.00  0.00    +0.012 A 
ATOM     17  C   LIG    1       23.114 -20.793   6.207  0.00  0.00    +0.001 A 
ATOM     18  C   LIG    1       23.584 -20.570   4.913  0.00  0.00    +0.000 A 
ATOM     19  C   LIG    1       24.947 -20.380   4.688  0.00  0.00    +0.001 A 
ATOM     20  C   LIG    1       25.842 -20.407   5.759  0.00  0.00    +0.012 A 
ENDBRANCH  13  15
ENDBRANCH   3  13
TORSDOF 5
ENDMDL
MODEL 7
REMARK VINA RESULT:      -8.6      1.806      6.941
REMARK  Name = *****
REMARK                            x       y       z     vdW  Elec       q    Type
REMARK                         _______ _______ _______ _____ _____    ______ ____
ROOT
ATOM      1  C   LIG    1       27.586 -20.539   6.880  0.00  0.00    -0.033 A 
ATOM      2  C   LIG    1       28.678 -20.490   7.768  0.00  0.00    +0.016 A 
ATOM      3  C   LIG    1       29.803 -19.702   7.482  0.00  0.00    +0.022 A 
ATOM      4  C   LIG    1       29.820 -18.916   6.324  0.00  0.00    +0.012 A 
ATOM      5  C   LIG    1       28.737 -18.940   5.449  0.00  0.00    +0.001 A 
ATOM      6  C   LIG    1       27.629 -19.741   5.727  0.00  0.00    +0.004 A 
ENDROOT
BRANCH   1   8
ATOM      7  C   LIG    1       25.601 -21.815   5.938  0.00  0.00    +0.024 C 
ATOM      8  C   LIG    1       26.382 -21.421   7.200  0.00  0.00    +0.124 C 
BRANCH   8   9
ATOM      9  C   LIG    1       25.396 -20.855   8.222  0.00  0.00    +0.312 C 
ATOM     10  O   LIG    1       24.221 -20.652   7.958  0.00  0.00    -0.250 OA
BRANCH   9  11
ATOM     11  O   LIG    1       25.882 -20.596   9.456  0.00  0.00    -0.480 OA
ATOM     12  H   LIG    1       25.978 -21.364  10.050  0.00  0.00    +0.295 HD
ENDBRANCH   9  11
ENDBRANCH   8   9
ENDBRANCH   1   8
BRANCH   3  13
ATOM     13  C   LIG    1       30.970 -19.629   8.405  0.00  0.00    +0.193 C 
ATOM     14  O   LIG    1       31.727 -20.592   8.480  0.00  0.00    -0.287 OA
BRANCH  13  15
ATOM     15  C   LIG    1       31.251 -18.415   9.218  0.00  0.00    +0.022 A 
ATOM     16  C   LIG    1       30.476 -18.180  10.361  0.00  0.00    +0.012 A 
ATOM     17  C   LIG    1       30.724 -17.060  11.158  0.00  0.00    +0.001 A 
ATOM     18  C   LIG    1       31.742 -16.170  10.814  0.00  0.00    +0.000 A 
ATOM     19  C   LIG    1       32.499 -16.386   9.663  0.00  0.00    +0.001 A 
ATOM     20  C   LIG    1       32.245 -17.497   8.857  0.00  0.00    +0.012 A 
ENDBRANCH  13  15
ENDBRANCH   3  13
TORSDOF 5
ENDMDL
MODEL 8
REMARK VINA RESULT:      -8.5      2.667      6.857
REMARK  Name = *****
REMARK                            x       y       z     vdW  Elec       q    Type
REMARK                         _______ _______ _______ _____ _____    ______ ____
ROOT
ATOM      1  C   LIG    1       24.670 -21.721   5.290  0.00  0.00    -0.033 A 
ATOM      2  C   LIG    1       25.453 -20.911   6.134  0.00  0.00    +0.016 A 
ATOM      3  C   LIG    1       26.269 -21.481   7.124  0.00  0.00    +0.022 A 
ATOM      4  C   LIG    1       26.342 -22.873   7.242  0.00  0.00    +0.012 A 
ATOM      5  C   LIG    1       25.588 -23.685   6.398  0.00  0.00    +0.001 A 
ATOM      6  C   LIG    1       24.763 -23.114   5.429  0.00  0.00    +0.004 A 
ENDROOT
BRANCH   1   8
ATOM      7  C   LIG    1       24.472 -19.923   3.507  0.00  0.00    +0.024 C 
ATOM      8  C   LIG    1       23.773 -21.080   4.235  0.00  0.00    +0.124 C 
BRANCH   8   9
ATOM      9  C   LIG    1       22.411 -20.590   4.728  0.00  0.00    +0.312 C 
ATOM     10  O   LIG    1       22.203 -19.425   5.030  0.00  0.00    -0.250 OA
BRANCH   9  11
ATOM     11  O   LIG    1       21.425 -21.511   4.805  0.00  0.00    -0.480 OA
ATOM     12  H   LIG    1       20.775 -21.384   5.521  0.00  0.00    +0.295 HD
ENDBRANCH   9  11
ENDBRANCH   8   9
ENDBRANCH   1   8
BRANCH   3  13
ATOM     13  C   LIG    1       27.110 -20.648   8.028  0.00  0.00    +0.193 C 
ATOM     14  O   LIG    1       26.655 -20.311   9.117  0.00  0.00    -0.287 OA
BRANCH  13  15
ATOM     15  C   LIG    1       28.490 -20.234   7.654  0.00  0.00    +0.022 A 
ATOM     16  C   LIG    1       28.658 -19.377   6.559  0.00  0.00    +0.012 A 
ATOM     17  C   LIG    1       29.937 -18.954   6.191  0.00  0.00    +0.001 A 
ATOM     18  C   LIG    1       31.051 -19.389   6.911  0.00  0.00    +0.000 A 
ATOM     19  C   LIG    1       30.891 -20.262   7.986  0.00  0.00    +0.001 A 
ATOM     20  C   LIG    1       29.615 -20.697   8.348  0.00  0.00    +0.012 A 
ENDBRANCH  13  15
ENDBRANCH   3  13
TORSDOF 5
ENDMDL
MODEL 9
REMARK VINA RESULT:      -8.4      3.303      6.687
REMARK  Name = *****
REMARK                            x       y       z     vdW  Elec       q    Type
REMARK                         _______ _______ _______ _____ _____    ______ ____
ROOT
ATOM      1  C   LIG    1       24.537 -24.691   5.831  0.00  0.00    -0.033 A 
ATOM      2  C   LIG    1       25.181 -23.485   5.495  0.00  0.00    +0.016 A 
ATOM      3  C   LIG    1       24.614 -22.247   5.837  0.00  0.00    +0.022 A 
ATOM      4  C   LIG    1       23.418 -22.212   6.563  0.00  0.00    +0.012 A 
ATOM      5  C   LIG    1       22.783 -23.399   6.919  0.00  0.00    +0.001 A 
ATOM      6  C   LIG    1       23.340 -24.626   6.560  0.00  0.00    +0.004 A 
ENDROOT
BRANCH   1   8
ATOM      7  C   LIG    1       24.133 -27.165   5.421  0.00  0.00    +0.024 C 
ATOM      8  C   LIG    1       25.161 -26.025   5.431  0.00  0.00    +0.124 C 
BRANCH   8   9
ATOM      9  C   LIG    1       26.369 -26.469   6.256  0.00  0.00    +0.312 C 
ATOM     10  O   LIG    1       26.315 -26.628   7.466  0.00  0.00    -0.250 OA
BRANCH   9  11
ATOM     11  O   LIG    1       27.517 -26.695   5.579  0.00  0.00    -0.480 OA
ATOM     12  H   LIG    1       27.438 -26.762   4.610  0.00  0.00    +0.295 HD
ENDBRANCH   9  11
ENDBRANCH   8   9
ENDBRANCH   1   8
BRANCH   3  13
ATOM     13  C   LIG    1       25.274 -20.956   5.497  0.00  0.00    +0.193 C 
ATOM     14  O   LIG    1       24.760 -20.232   4.649  0.00  0.00    -0.287 OA
BRANCH  13  15
ATOM     15  C   LIG    1       26.525 -20.515   6.172  0.00  0.00    +0.022 A 
ATOM     16  C   LIG    1       26.629 -20.673   7.559  0.00  0.00    +0.012 A 
ATOM     17  C   LIG    1       27.796 -20.287   8.223  0.00  0.00    +0.001 A 
ATOM     18  C   LIG    1       28.859 -19.738   7.505  0.00  0.00    +0.000 A 
ATOM     19  C   LIG    1       28.750 -19.555   6.128  0.00  0.00    +0.001 A 
ATOM     20  C   LIG    1       27.581 -19.928   5.463  0.00  0.00    +0.012 A 
ENDBRANCH  13  15
ENDBRANCH   3  13
TORSDOF 5
ENDMDL
