MODEL 1
REMARK VINA RESULT:      -6.0      0.000      0.000
REMARK  Name = *****
REMARK                            x       y       z     vdW  Elec       q    Type
REMARK                         _______ _______ _______ _____ _____    ______ ____
ROOT
ATOM      1  O   LIG    1       25.729 -18.613   3.410  0.00  0.00    -0.486 OA
ENDROOT
BRANCH   1   3
ATOM      2  C   LIG    1       25.079 -20.157   5.167  0.00  0.00    +0.162 A 
ATOM      3  C   LIG    1       24.731 -19.192   4.177  0.00  0.00    +0.162 A 
ATOM      4  C   LIG    1       23.367 -18.921   3.992  0.00  0.00    +0.049 A 
ATOM      5  C   LIG    1       22.372 -19.615   4.686  0.00  0.00    +0.004 A 
ATOM      6  C   LIG    1       22.715 -20.578   5.619  0.00  0.00    +0.004 A 
ATOM      7  C   LIG    1       24.059 -20.837   5.864  0.00  0.00    +0.049 A 
BRANCH   2   8
ATOM      8  O   LIG    1       26.411 -20.447   5.379  0.00  0.00    -0.484 OA
BRANCH   8   9
ATOM      9  C   LIG    1       26.888 -20.526   6.728  0.00  0.00    +0.256 C 
BRANCH   9  11
ATOM     10  C   LIG    1       29.102 -19.385   6.435  0.00  0.00    +0.007 C 
ATOM     11  C   LIG    1       28.397 -20.438   6.770  0.00  0.00    +0.006 C 
ENDBRANCH   9  11
ENDBRANCH   8   9
ENDBRANCH   2   8
ENDBRANCH   1   3
BRANCH   1  12
ATOM     12  C   LIG    1       25.689 -17.205   3.088  0.00  0.00    +0.261 C 
BRANCH  12  13
ATOM     13  C   LIG    1       26.745 -16.317   3.798  0.00  0.00    +0.166 C 
BRANCH  13  14
ATOM     14  O   LIG    1       27.969 -17.098   3.905  0.00  0.00    -0.387 OA
ATOM     15  H   LIG    1       28.664 -16.668   3.372  0.00  0.00    +0.210 HD
ENDBRANCH  13  14
BRANCH  13  16
ATOM     16  C   LIG    1       27.128 -14.925   3.204  0.00  0.00    +0.115 C 
BRANCH  16  17
ATOM     17  N   LIG    1       26.201 -14.260   2.282  0.00  0.00    -0.311 NA
ATOM     18  H   LIG    1       25.612 -14.969   1.840  0.00  0.00    +0.122 HD
BRANCH  17  19
ATOM     19  C   LIG    1       25.338 -13.244   2.927  0.00  0.00    +0.048 C 
ATOM     20  C   LIG    1       24.195 -13.908   3.713  0.00  0.00    +0.024 C 
ATOM     21  C   LIG    1       24.685 -12.277   1.933  0.00  0.00    +0.024 C 
ENDBRANCH  17  19
ENDBRANCH  16  17
ENDBRANCH  13  16
ENDBRANCH  12  13
ENDBRANCH   1  12
TORSDOF 10
ENDMDL
MODEL 2
REMARK VINA RESULT:      -5.6      1.331      1.697
REMARK  Name = *****
REMARK                            x       y       z     vdW  Elec       q    Type
REMARK                         _______ _______ _______ _____ _____    ______ ____
ROOT
ATOM      1  O   LIG    1       25.722 -19.330   3.763  0.00  0.00    -0.486 OA
ENDROOT
BRANCH   1   3
ATOM      2  C   LIG    1       25.361 -20.379   5.921  0.00  0.00    +0.162 A 
ATOM      3  C   LIG    1       24.847 -19.857   4.698  0.00  0.00    +0.162 A 
ATOM      4  C   LIG    1       23.465 -19.962   4.482  0.00  0.00    +0.049 A 
ATOM      5  C   LIG    1       22.621 -20.618   5.383  0.00  0.00    +0.004 A 
ATOM      6  C   LIG    1       23.131 -21.156   6.551  0.00  0.00    +0.004 A 
ATOM      7  C   LIG    1       24.489 -21.027   6.821  0.00  0.00    +0.049 A 
BRANCH   2   8
ATOM      8  O   LIG    1       26.715 -20.291   6.170  0.00  0.00    -0.484 OA
BRANCH   8   9
ATOM      9  C   LIG    1       27.336 -21.322   6.947  0.00  0.00    +0.256 C 
BRANCH   9  11
ATOM     10  C   LIG    1       29.459 -20.030   6.612  0.00  0.00    +0.007 C 
ATOM     11  C   LIG    1       28.826 -21.086   7.061  0.00  0.00    +0.006 C 
ENDBRANCH   9  11
ENDBRANCH   8   9
ENDBRANCH   2   8
ENDBRANCH   1   3
BRANCH   1  12
ATOM     12  C   LIG    1       25.505 -18.012   3.210  0.00  0.00    +0.261 C 
BRANCH  12  13
ATOM     13  C   LIG    1       26.415 -16.885   3.768  0.00  0.00    +0.166 C 
BRANCH  13  14
ATOM     14  O   LIG    1       27.756 -17.436   3.903  0.00  0.00    -0.387 OA
ATOM     15  H   LIG    1       27.947 -17.571   4.850  0.00  0.00    +0.210 HD
ENDBRANCH  13  14
BRANCH  13  16
ATOM     16  C   LIG    1       26.541 -15.528   3.005  0.00  0.00    +0.115 C 
BRANCH  16  17
ATOM     17  N   LIG    1       25.854 -14.344   3.532  0.00  0.00    -0.311 NA
ATOM     18  H   LIG    1       25.129 -14.649   4.187  0.00  0.00    +0.122 HD
BRANCH  17  19
ATOM     19  C   LIG    1       26.750 -13.382   4.213  0.00  0.00    +0.048 C 
ATOM     20  C   LIG    1       28.181 -13.467   3.654  0.00  0.00    +0.024 C 
ATOM     21  C   LIG    1       26.855 -13.609   5.726  0.00  0.00    +0.024 C 
ENDBRANCH  17  19
ENDBRANCH  16  17
ENDBRANCH  13  16
ENDBRANCH  12  13
ENDBRANCH   1  12
TORSDOF 10
ENDMDL
MODEL 3
REMARK VINA RESULT:      -5.5      1.404      1.596
REMARK  Name = *****
REMARK                            x       y       z     vdW  Elec       q    Type
REMARK                         _______ _______ _______ _____ _____    ______ ____
ROOT
ATOM      1  O   LIG    1       25.833 -17.794   3.180  0.00  0.00    -0.486 OA
ENDROOT
BRANCH   1   3
ATOM      2  C   LIG    1       25.776 -19.735   4.635  0.00  0.00    +0.162 A 
ATOM      3  C   LIG    1       25.101 -18.781   3.819  0.00  0.00    +0.162 A 
ATOM      4  C   LIG    1       23.716 -18.933   3.661  0.00  0.00    +0.049 A 
ATOM      5  C   LIG    1       23.020 -20.015   4.208  0.00  0.00    +0.004 A 
ATOM      6  C   LIG    1       23.687 -20.959   4.969  0.00  0.00    +0.004 A 
ATOM      7  C   LIG    1       25.053 -20.812   5.188  0.00  0.00    +0.049 A 
BRANCH   2   8
ATOM      8  O   LIG    1       27.138 -19.616   4.817  0.00  0.00    -0.484 OA
BRANCH   8   9
ATOM      9  C   LIG    1       27.724 -20.188   5.993  0.00  0.00    +0.256 C 
BRANCH   9  11
ATOM     10  C   LIG    1       29.473 -18.405   5.767  0.00  0.00    +0.007 C 
ATOM     11  C   LIG    1       29.027 -19.499   6.334  0.00  0.00    +0.006 C 
ENDBRANCH   9  11
ENDBRANCH   8   9
ENDBRANCH   2   8
ENDBRANCH   1   3
BRANCH   1  12
ATOM     12  C   LIG    1       25.435 -16.407   3.266  0.00  0.00    +0.261 C 
BRANCH  12  13
ATOM     13  C   LIG    1       26.590 -15.377   3.384  0.00  0.00    +0.166 C 
BRANCH  13  14
ATOM     14  O   LIG    1       26.682 -14.679   2.109  0.00  0.00    -0.387 OA
ATOM     15  H   LIG    1       26.325 -15.256   1.408  0.00  0.00    +0.210 HD
ENDBRANCH  13  14
BRANCH  13  16
ATOM     16  C   LIG    1       26.564 -14.294   4.508  0.00  0.00    +0.115 C 
BRANCH  16  17
ATOM     17  N   LIG    1       26.051 -12.955   4.201  0.00  0.00    -0.311 NA
ATOM     18  H   LIG    1       26.427 -12.658   3.298  0.00  0.00    +0.122 HD
BRANCH  17  19
ATOM     19  C   LIG    1       24.572 -12.872   4.162  0.00  0.00    +0.048 C 
ATOM     20  C   LIG    1       24.075 -12.503   2.754  0.00  0.00    +0.024 C 
ATOM     21  C   LIG    1       23.993 -11.826   5.122  0.00  0.00    +0.024 C 
ENDBRANCH  17  19
ENDBRANCH  16  17
ENDBRANCH  13  16
ENDBRANCH  12  13
ENDBRANCH   1  12
TORSDOF 10
ENDMDL
MODEL 4
REMARK VINA RESULT:      -5.4      1.266      3.274
REMARK  Name = *****
REMARK                            x       y       z     vdW  Elec       q    Type
REMARK                         _______ _______ _______ _____ _____    ______ ____
ROOT
ATOM      1  O   LIG    1       25.919 -19.217   3.364  0.00  0.00    -0.486 OA
ENDROOT
BRANCH   1   3
ATOM      2  C   LIG    1       24.990 -20.768   4.985  0.00  0.00    +0.162 A 
ATOM      3  C   LIG    1       26.057 -19.931   4.543  0.00  0.00    +0.162 A 
ATOM      4  C   LIG    1       27.183 -19.831   5.373  0.00  0.00    +0.049 A 
ATOM      5  C   LIG    1       27.244 -20.457   6.622  0.00  0.00    +0.004 A 
ATOM      6  C   LIG    1       26.189 -21.237   7.061  0.00  0.00    +0.004 A 
ATOM      7  C   LIG    1       25.077 -21.399   6.243  0.00  0.00    +0.049 A 
BRANCH   2   8
ATOM      8  O   LIG    1       23.867 -20.893   4.194  0.00  0.00    -0.484 OA
BRANCH   8   9
ATOM      9  C   LIG    1       22.580 -20.729   4.802  0.00  0.00    +0.256 C 
BRANCH   9  11
ATOM     10  C   LIG    1       22.032 -18.329   4.329  0.00  0.00    +0.007 C 
ATOM     11  C   LIG    1       22.341 -19.283   5.172  0.00  0.00    +0.006 C 
ENDBRANCH   9  11
ENDBRANCH   8   9
ENDBRANCH   2   8
ENDBRANCH   1   3
BRANCH   1  12
ATOM     12  C   LIG    1       25.330 -17.897   3.366  0.00  0.00    +0.261 C 
BRANCH  12  13
ATOM     13  C   LIG    1       26.282 -16.731   3.743  0.00  0.00    +0.166 C 
BRANCH  13  14
ATOM     14  O   LIG    1       27.625 -17.113   3.325  0.00  0.00    -0.387 OA
ATOM     15  H   LIG    1       28.245 -16.400   3.568  0.00  0.00    +0.210 HD
ENDBRANCH  13  14
BRANCH  13  16
ATOM     16  C   LIG    1       26.016 -15.292   3.199  0.00  0.00    +0.115 C 
BRANCH  16  17
ATOM     17  N   LIG    1       25.907 -14.177   4.147  0.00  0.00    -0.311 NA
ATOM     18  H   LIG    1       26.552 -13.438   3.859  0.00  0.00    +0.122 HD
BRANCH  17  19
ATOM     19  C   LIG    1       24.541 -13.615   4.258  0.00  0.00    +0.048 C 
ATOM     20  C   LIG    1       23.486 -14.731   4.321  0.00  0.00    +0.024 C 
ATOM     21  C   LIG    1       24.155 -12.709   3.083  0.00  0.00    +0.024 C 
ENDBRANCH  17  19
ENDBRANCH  16  17
ENDBRANCH  13  16
ENDBRANCH  12  13
ENDBRANCH   1  12
TORSDOF 10
ENDMDL
MODEL 5
REMARK VINA RESULT:      -5.1      2.519      6.186
REMARK  Name = *****
REMARK                            x       y       z     vdW  Elec       q    Type
REMARK                         _______ _______ _______ _____ _____    ______ ____
ROOT
ATOM      1  O   LIG    1       25.981 -17.205   3.337  0.00  0.00    -0.486 OA
ENDROOT
BRANCH   1   3
ATOM      2  C   LIG    1       25.890 -14.789   3.546  0.00  0.00    +0.162 A 
ATOM      3  C   LIG    1       25.253 -16.062   3.621  0.00  0.00    +0.162 A 
ATOM      4  C   LIG    1       23.915 -16.088   4.043  0.00  0.00    +0.049 A 
ATOM      5  C   LIG    1       23.242 -14.934   4.452  0.00  0.00    +0.004 A 
ATOM      6  C   LIG    1       23.878 -13.706   4.412  0.00  0.00    +0.004 A 
ATOM      7  C   LIG    1       25.188 -13.635   3.952  0.00  0.00    +0.049 A 
BRANCH   2   8
ATOM      8  O   LIG    1       27.204 -14.722   3.132  0.00  0.00    -0.484 OA
BRANCH   8   9
ATOM      9  C   LIG    1       27.771 -13.435   2.857  0.00  0.00    +0.256 C 
BRANCH   9  11
ATOM     10  C   LIG    1       28.758 -12.214   4.812  0.00  0.00    +0.007 C 
ATOM     11  C   LIG    1       28.858 -13.102   3.854  0.00  0.00    +0.006 C 
ENDBRANCH   9  11
ENDBRANCH   8   9
ENDBRANCH   2   8
ENDBRANCH   1   3
BRANCH   1  12
ATOM     12  C   LIG    1       25.336 -18.498   3.293  0.00  0.00    +0.261 C 
BRANCH  12  13
ATOM     13  C   LIG    1       26.087 -19.655   4.004  0.00  0.00    +0.166 C 
BRANCH  13  14
ATOM     14  O   LIG    1       27.266 -19.082   4.640  0.00  0.00    -0.387 OA
ATOM     15  H   LIG    1       27.200 -19.216   5.604  0.00  0.00    +0.210 HD
ENDBRANCH  13  14
BRANCH  13  16
ATOM     16  C   LIG    1       25.356 -20.526   5.073  0.00  0.00    +0.115 C 
BRANCH  16  17
ATOM     17  N   LIG    1       24.113 -21.214   4.708  0.00  0.00    -0.311 NA
ATOM     18  H   LIG    1       24.273 -22.223   4.742  0.00  0.00    +0.122 HD
BRANCH  17  19
ATOM     19  C   LIG    1       22.961 -20.875   5.575  0.00  0.00    +0.048 C 
ATOM     20  C   LIG    1       22.350 -19.520   5.181  0.00  0.00    +0.024 C 
ATOM     21  C   LIG    1       23.324 -20.779   7.062  0.00  0.00    +0.024 C 
ENDBRANCH  17  19
ENDBRANCH  16  17
ENDBRANCH  13  16
ENDBRANCH  12  13
ENDBRANCH   1  12
TORSDOF 10
ENDMDL
MODEL 6
REMARK VINA RESULT:      -4.9      1.511      3.782
REMARK  Name = *****
REMARK                            x       y       z     vdW  Elec       q    Type
REMARK                         _______ _______ _______ _____ _____    ______ ____
ROOT
ATOM      1  O   LIG    1       27.320 -16.751   3.563  0.00  0.00    -0.486 OA
ENDROOT
BRANCH   1   3
ATOM      2  C   LIG    1       26.452 -18.899   4.287  0.00  0.00    +0.162 A 
ATOM      3  C   LIG    1       27.491 -17.922   4.282  0.00  0.00    +0.162 A 
ATOM      4  C   LIG    1       28.623 -18.183   5.068  0.00  0.00    +0.049 A 
ATOM      5  C   LIG    1       28.713 -19.310   5.890  0.00  0.00    +0.004 A 
ATOM      6  C   LIG    1       27.685 -20.235   5.919  0.00  0.00    +0.004 A 
ATOM      7  C   LIG    1       26.569 -20.035   5.114  0.00  0.00    +0.049 A 
BRANCH   2   8
ATOM      8  O   LIG    1       25.324 -18.679   3.524  0.00  0.00    -0.484 OA
BRANCH   8   9
ATOM      9  C   LIG    1       24.284 -19.664   3.540  0.00  0.00    +0.256 C 
BRANCH   9  11
ATOM     10  C   LIG    1       22.539 -19.591   5.340  0.00  0.00    +0.007 C 
ATOM     11  C   LIG    1       23.046 -19.128   4.224  0.00  0.00    +0.006 C 
ENDBRANCH   9  11
ENDBRANCH   8   9
ENDBRANCH   2   8
ENDBRANCH   1   3
BRANCH   1  12
ATOM     12  C   LIG    1       27.598 -15.467   4.166  0.00  0.00    +0.261 C 
BRANCH  12  13
ATOM     13  C   LIG    1       27.372 -14.229   3.259  0.00  0.00    +0.166 C 
BRANCH  13  14
ATOM     14  O   LIG    1       26.645 -14.679   2.081  0.00  0.00    -0.387 OA
ATOM     15  H   LIG    1       27.069 -14.304   1.286  0.00  0.00    +0.210 HD
ENDBRANCH  13  14
BRANCH  13  16
ATOM     16  C   LIG    1       26.630 -12.973   3.815  0.00  0.00    +0.115 C 
BRANCH  16  17
ATOM     17  N   LIG    1       25.616 -13.145   4.862  0.00  0.00    -0.311 NA
ATOM     18  H   LIG    1       25.716 -12.390   5.544  0.00  0.00    +0.122 HD
BRANCH  17  19
ATOM     19  C   LIG    1       24.225 -13.159   4.354  0.00  0.00    +0.048 C 
ATOM     20  C   LIG    1       23.720 -14.599   4.160  0.00  0.00    +0.024 C 
ATOM     21  C   LIG    1       24.059 -12.449   3.005  0.00  0.00    +0.024 C 
ENDBRANCH  17  19
ENDBRANCH  16  17
ENDBRANCH  13  16
ENDBRANCH  12  13
ENDBRANCH   1  12
TORSDOF 10
ENDMDL
MODEL 7
REMARK VINA RESULT:      -4.9      2.214      5.956
REMARK  Name = *****
REMARK                            x       y       z     vdW  Elec       q    Type
REMARK                         _______ _______ _______ _____ _____    ______ ____
ROOT
ATOM      1  O   LIG    1       25.662 -17.951   3.419  0.00  0.00    -0.486 OA
ENDROOT
BRANCH   1   3
ATOM      2  C   LIG    1       25.493 -15.532   3.505  0.00  0.00    +0.162 A 
ATOM      3  C   LIG    1       24.900 -16.819   3.656  0.00  0.00    +0.162 A 
ATOM      4  C   LIG    1       23.571 -16.868   4.100  0.00  0.00    +0.049 A 
ATOM      5  C   LIG    1       22.865 -15.716   4.460  0.00  0.00    +0.004 A 
ATOM      6  C   LIG    1       23.459 -14.472   4.347  0.00  0.00    +0.004 A 
ATOM      7  C   LIG    1       24.759 -14.382   3.863  0.00  0.00    +0.049 A 
BRANCH   2   8
ATOM      8  O   LIG    1       26.798 -15.444   3.067  0.00  0.00    -0.484 OA
BRANCH   8   9
ATOM      9  C   LIG    1       27.781 -14.890   3.951  0.00  0.00    +0.256 C 
BRANCH   9  11
ATOM     10  C   LIG    1       28.734 -12.588   4.235  0.00  0.00    +0.007 C 
ATOM     11  C   LIG    1       28.224 -13.525   3.474  0.00  0.00    +0.006 C 
ENDBRANCH   9  11
ENDBRANCH   8   9
ENDBRANCH   2   8
ENDBRANCH   1   3
BRANCH   1  12
ATOM     12  C   LIG    1       25.032 -19.241   3.243  0.00  0.00    +0.261 C 
BRANCH  12  13
ATOM     13  C   LIG    1       24.869 -20.096   4.528  0.00  0.00    +0.166 C 
BRANCH  13  14
ATOM     14  O   LIG    1       24.343 -21.393   4.123  0.00  0.00    -0.387 OA
ATOM     15  H   LIG    1       23.939 -21.824   4.899  0.00  0.00    +0.210 HD
ENDBRANCH  13  14
BRANCH  13  16
ATOM     16  C   LIG    1       26.094 -20.358   5.459  0.00  0.00    +0.115 C 
BRANCH  16  17
ATOM     17  N   LIG    1       27.434 -19.968   5.005  0.00  0.00    -0.311 NA
ATOM     18  H   LIG    1       27.345 -19.185   4.354  0.00  0.00    +0.122 HD
BRANCH  17  19
ATOM     19  C   LIG    1       28.352 -19.585   6.103  0.00  0.00    +0.048 C 
ATOM     20  C   LIG    1       29.366 -18.528   5.633  0.00  0.00    +0.024 C 
ATOM     21  C   LIG    1       29.165 -20.760   6.658  0.00  0.00    +0.024 C 
ENDBRANCH  17  19
ENDBRANCH  16  17
ENDBRANCH  13  16
ENDBRANCH  12  13
ENDBRANCH   1  12
TORSDOF 10
ENDMDL
MODEL 8
REMARK VINA RESULT:      -4.7      2.630      7.112
REMARK  Name = *****
REMARK                            x       y       z     vdW  Elec       q    Type
REMARK                         _______ _______ _______ _____ _____    ______ ____
ROOT
ATOM      1  O   LIG    1       25.776 -16.237   2.796  0.00  0.00    -0.486 OA
ENDROOT
BRANCH   1   3
ATOM      2  C   LIG    1       26.367 -13.884   2.732  0.00  0.00    +0.162 A 
ATOM      3  C   LIG    1       26.560 -15.194   3.260  0.00  0.00    +0.162 A 
ATOM      4  C   LIG    1       27.592 -15.366   4.194  0.00  0.00    +0.049 A 
ATOM      5  C   LIG    1       28.456 -14.325   4.547  0.00  0.00    +0.004 A 
ATOM      6  C   LIG    1       28.286 -13.064   4.002  0.00  0.00    +0.004 A 
ATOM      7  C   LIG    1       27.243 -12.845   3.110  0.00  0.00    +0.049 A 
BRANCH   2   8
ATOM      8  O   LIG    1       25.360 -13.675   1.812  0.00  0.00    -0.484 OA
BRANCH   8   9
ATOM      9  C   LIG    1       24.404 -12.639   2.068  0.00  0.00    +0.256 C 
BRANCH   9  11
ATOM     10  C   LIG    1       23.812 -11.870   4.380  0.00  0.00    +0.007 C 
ATOM     11  C   LIG    1       23.803 -12.791   3.448  0.00  0.00    +0.006 C 
ENDBRANCH   9  11
ENDBRANCH   8   9
ENDBRANCH   2   8
ENDBRANCH   1   3
BRANCH   1  12
ATOM     12  C   LIG    1       25.240 -17.220   3.710  0.00  0.00    +0.261 C 
BRANCH  12  13
ATOM     13  C   LIG    1       25.511 -18.704   3.347  0.00  0.00    +0.166 C 
BRANCH  13  14
ATOM     14  O   LIG    1       26.531 -19.196   4.264  0.00  0.00    -0.387 OA
ATOM     15  H   LIG    1       26.376 -20.146   4.425  0.00  0.00    +0.210 HD
ENDBRANCH  13  14
BRANCH  13  16
ATOM     16  C   LIG    1       24.343 -19.739   3.346  0.00  0.00    +0.115 C 
BRANCH  16  17
ATOM     17  N   LIG    1       24.323 -20.797   4.363  0.00  0.00    -0.311 NA
ATOM     18  H   LIG    1       25.215 -20.788   4.864  0.00  0.00    +0.122 HD
BRANCH  17  19
ATOM     19  C   LIG    1       23.217 -20.672   5.339  0.00  0.00    +0.048 C 
ATOM     20  C   LIG    1       22.426 -19.371   5.117  0.00  0.00    +0.024 C 
ATOM     21  C   LIG    1       23.687 -20.657   6.798  0.00  0.00    +0.024 C 
ENDBRANCH  17  19
ENDBRANCH  16  17
ENDBRANCH  13  16
ENDBRANCH  12  13
ENDBRANCH   1  12
TORSDOF 10
ENDMDL
MODEL 9
REMARK VINA RESULT:      -4.3      2.179      5.652
REMARK  Name = *****
REMARK                            x       y       z     vdW  Elec       q    Type
REMARK                         _______ _______ _______ _____ _____    ______ ____
ROOT
ATOM      1  O   LIG    1       25.626 -20.103   4.716  0.00  0.00    -0.486 OA
ENDROOT
BRANCH   1   3
ATOM      2  C   LIG    1       27.539 -18.611   4.776  0.00  0.00    +0.162 A 
ATOM      3  C   LIG    1       26.844 -19.752   5.274  0.00  0.00    +0.162 A 
ATOM      4  C   LIG    1       27.472 -20.500   6.281  0.00  0.00    +0.049 A 
ATOM      5  C   LIG    1       28.760 -20.201   6.735  0.00  0.00    +0.004 A 
ATOM      6  C   LIG    1       29.445 -19.115   6.220  0.00  0.00    +0.004 A 
ATOM      7  C   LIG    1       28.833 -18.321   5.256  0.00  0.00    +0.049 A 
BRANCH   2   8
ATOM      8  O   LIG    1       26.952 -17.848   3.788  0.00  0.00    -0.484 OA
BRANCH   8   9
ATOM      9  C   LIG    1       27.244 -16.446   3.740  0.00  0.00    +0.256 C 
BRANCH   9  11
ATOM     10  C   LIG    1       25.782 -14.410   3.773  0.00  0.00    +0.007 C 
ATOM     11  C   LIG    1       26.002 -15.649   3.411  0.00  0.00    +0.006 C 
ENDBRANCH   9  11
ENDBRANCH   8   9
ENDBRANCH   2   8
ENDBRANCH   1   3
BRANCH   1  12
ATOM     12  C   LIG    1       25.104 -21.443   4.869  0.00  0.00    +0.261 C 
BRANCH  12  13
ATOM     13  C   LIG    1       23.787 -21.568   5.679  0.00  0.00    +0.166 C 
BRANCH  13  14
ATOM     14  O   LIG    1       24.092 -21.226   7.062  0.00  0.00    -0.387 OA
ATOM     15  H   LIG    1       24.279 -22.046   7.555  0.00  0.00    +0.210 HD
ENDBRANCH  13  14
BRANCH  13  16
ATOM     16  C   LIG    1       22.526 -20.747   5.261  0.00  0.00    +0.115 C 
BRANCH  16  17
ATOM     17  N   LIG    1       22.494 -19.303   5.520  0.00  0.00    -0.311 NA
ATOM     18  H   LIG    1       23.372 -19.030   5.969  0.00  0.00    +0.122 HD
BRANCH  17  19
ATOM     19  C   LIG    1       22.293 -18.480   4.305  0.00  0.00    +0.048 C 
ATOM     20  C   LIG    1       22.340 -16.979   4.639  0.00  0.00    +0.024 C 
ATOM     21  C   LIG    1       20.951 -18.734   3.609  0.00  0.00    +0.024 C 
ENDBRANCH  17  19
ENDBRANCH  16  17
ENDBRANCH  13  16
ENDBRANCH  12  13
ENDBRANCH   1  12
TORSDOF 10
ENDMDL
