MODEL 1
REMARK VINA RESULT:      -3.6      0.000      0.000
REMARK  Name = *****
REMARK                            x       y       z     vdW  Elec       q    Type
REMARK                         _______ _______ _______ _____ _____    ______ ____
ROOT
ATOM      1  C   LIG    1       25.937 -17.799   2.954  0.00  0.00    +0.399 C 
ENDROOT
BRANCH   1   2
ATOM      2  C   LIG    1       25.128 -18.713   3.819  0.00  0.00    +0.075 A 
ATOM      3  C   LIG    1       25.681 -19.720   4.575  0.00  0.00    +0.129 A 
ATOM      4  N   LIG    1       24.952 -20.636   5.220  0.00  0.00    -0.218 NA
ATOM      5  C   LIG    1       23.613 -20.521   5.147  0.00  0.00    +0.128 A 
ATOM      6  C   LIG    1       22.778 -21.572   5.813  0.00  0.00    +0.088 C 
ATOM      7  N   LIG    1       22.979 -19.550   4.478  0.00  0.00    -0.240 NA
ATOM      8  C   LIG    1       23.748 -18.659   3.829  0.00  0.00    +0.126 A 
BRANCH   3   9
ATOM      9  N   LIG    1       27.064 -19.864   4.719  0.00  0.00    -0.343 N 
ATOM     10  H   LIG    1       27.485 -20.203   3.856  0.00  0.00    +0.144 HD
ATOM     11  H   LIG    1       27.421 -18.915   4.864  0.00  0.00    +0.144 HD
ENDBRANCH   3   9
ENDBRANCH   1   2
BRANCH   1  14
ATOM     12  C   LIG    1       28.219 -16.526   4.439  0.00  0.00    +0.122 C 
ATOM     13  C   LIG    1       26.972 -15.782   4.122  0.00  0.00    +0.192 A 
ATOM     14  N   LIG    1       25.907 -16.422   3.488  0.00  0.00    -0.190 N 
ATOM     15  C   LIG    1       24.826 -15.669   3.336  0.00  0.00    +0.357 A 
ATOM     16  S   LIG    1       25.079 -14.086   3.922  0.00  0.00    -0.027 S 
ATOM     17  C   LIG    1       26.697 -14.445   4.375  0.00  0.00    +0.064 A 
BRANCH  17  18
ATOM     18  C   LIG    1       27.564 -13.376   4.995  0.00  0.00    +0.076 C 
BRANCH  18  19
ATOM     19  C   LIG    1       28.667 -12.870   4.059  0.00  0.00    +0.161 C 
BRANCH  19  20
ATOM     20  O   LIG    1       29.411 -11.822   4.671  0.00  0.00    -0.395 OA
ATOM     21  H   LIG    1       28.771 -11.137   4.943  0.00  0.00    +0.209 HD
ENDBRANCH  19  20
ENDBRANCH  18  19
ENDBRANCH  17  18
ENDBRANCH   1  14
TORSDOF 6
ENDMDL
MODEL 2
REMARK VINA RESULT:      -3.1      3.473      6.156
REMARK  Name = *****
REMARK                            x       y       z     vdW  Elec       q    Type
REMARK                         _______ _______ _______ _____ _____    ______ ____
ROOT
ATOM      1  C   LIG    1       27.128 -17.052   3.551  0.00  0.00    +0.399 C 
ENDROOT
BRANCH   1   2
ATOM      2  C   LIG    1       26.329 -15.791   3.653  0.00  0.00    +0.075 A 
ATOM      3  C   LIG    1       26.899 -14.549   3.806  0.00  0.00    +0.129 A 
ATOM      4  N   LIG    1       26.190 -13.444   4.057  0.00  0.00    -0.218 NA
ATOM      5  C   LIG    1       24.852 -13.571   4.115  0.00  0.00    +0.128 A 
ATOM      6  C   LIG    1       24.042 -12.357   4.454  0.00  0.00    +0.088 C 
ATOM      7  N   LIG    1       24.198 -14.726   3.932  0.00  0.00    -0.240 NA
ATOM      8  C   LIG    1       24.949 -15.816   3.699  0.00  0.00    +0.126 A 
BRANCH   3   9
ATOM      9  N   LIG    1       28.280 -14.351   3.717  0.00  0.00    -0.343 N 
ATOM     10  H   LIG    1       28.745 -15.188   3.373  0.00  0.00    +0.144 HD
ATOM     11  H   LIG    1       28.405 -13.633   2.997  0.00  0.00    +0.144 HD
ENDBRANCH   3   9
ENDBRANCH   1   2
BRANCH   1  14
ATOM     12  C   LIG    1       27.809 -19.309   5.415  0.00  0.00    +0.122 C 
ATOM     13  C   LIG    1       26.521 -19.259   4.675  0.00  0.00    +0.192 A 
ATOM     14  N   LIG    1       26.264 -18.230   3.769  0.00  0.00    -0.190 N 
ATOM     15  C   LIG    1       25.116 -18.346   3.117  0.00  0.00    +0.357 A 
ATOM     16  S   LIG    1       24.242 -19.721   3.629  0.00  0.00    -0.027 S 
ATOM     17  C   LIG    1       25.457 -20.146   4.767  0.00  0.00    +0.064 A 
BRANCH  17  18
ATOM     18  C   LIG    1       25.281 -21.364   5.642  0.00  0.00    +0.076 C 
BRANCH  18  19
ATOM     19  C   LIG    1       24.801 -21.031   7.058  0.00  0.00    +0.161 C 
BRANCH  19  20
ATOM     20  O   LIG    1       23.413 -20.712   7.061  0.00  0.00    -0.395 OA
ATOM     21  H   LIG    1       23.126 -20.690   7.994  0.00  0.00    +0.209 HD
ENDBRANCH  19  20
ENDBRANCH  18  19
ENDBRANCH  17  18
ENDBRANCH   1  14
TORSDOF 6
ENDMDL
MODEL 3
REMARK VINA RESULT:      -2.8      3.350      6.066
REMARK  Name = *****
REMARK                            x       y       z     vdW  Elec       q    Type
REMARK                         _______ _______ _______ _____ _____    ______ ____
ROOT
ATOM      1  C   LIG    1       23.209 -18.646   3.664  0.00  0.00    +0.399 C 
ENDROOT
BRANCH   1   2
ATOM      2  C   LIG    1       23.872 -17.313   3.813  0.00  0.00    +0.075 A 
ATOM      3  C   LIG    1       23.241 -16.214   4.347  0.00  0.00    +0.129 A 
ATOM      4  N   LIG    1       23.771 -14.987   4.335  0.00  0.00    -0.218 NA
ATOM      5  C   LIG    1       25.003 -14.853   3.809  0.00  0.00    +0.128 A 
ATOM      6  C   LIG    1       25.591 -13.478   3.731  0.00  0.00    +0.088 C 
ATOM      7  N   LIG    1       25.719 -15.868   3.309  0.00  0.00    -0.240 NA
ATOM      8  C   LIG    1       25.143 -17.082   3.324  0.00  0.00    +0.126 A 
BRANCH   3   9
ATOM      9  N   LIG    1       21.978 -16.300   4.941  0.00  0.00    -0.343 N 
ATOM     10  H   LIG    1       21.932 -17.089   5.583  0.00  0.00    +0.144 HD
ATOM     11  H   LIG    1       21.890 -15.454   5.512  0.00  0.00    +0.144 HD
ENDBRANCH   3   9
ENDBRANCH   1   2
BRANCH   1  14
ATOM     12  C   LIG    1       25.856 -20.057   3.846  0.00  0.00    +0.122 C 
ATOM     13  C   LIG    1       24.835 -20.156   4.921  0.00  0.00    +0.192 A 
ATOM     14  N   LIG    1       23.592 -19.540   4.776  0.00  0.00    -0.190 N 
ATOM     15  C   LIG    1       22.744 -19.771   5.769  0.00  0.00    +0.357 A 
ATOM     16  S   LIG    1       23.458 -20.729   6.989  0.00  0.00    -0.027 S 
ATOM     17  C   LIG    1       24.949 -20.810   6.140  0.00  0.00    +0.064 A 
BRANCH  17  18
ATOM     18  C   LIG    1       26.117 -21.562   6.733  0.00  0.00    +0.076 C 
BRANCH  18  19
ATOM     19  C   LIG    1       27.314 -20.664   7.062  0.00  0.00    +0.161 C 
BRANCH  19  20
ATOM     20  O   LIG    1       28.379 -20.882   6.143  0.00  0.00    -0.395 OA
ATOM     21  H   LIG    1       29.052 -20.197   6.317  0.00  0.00    +0.209 HD
ENDBRANCH  19  20
ENDBRANCH  18  19
ENDBRANCH  17  18
ENDBRANCH   1  14
TORSDOF 6
ENDMDL
MODEL 4
REMARK VINA RESULT:      -2.8      2.269      3.316
REMARK  Name = *****
REMARK                            x       y       z     vdW  Elec       q    Type
REMARK                         _______ _______ _______ _____ _____    ______ ____
ROOT
ATOM      1  C   LIG    1       24.106 -18.344   3.557  0.00  0.00    +0.399 C 
ENDROOT
BRANCH   1   2
ATOM      2  C   LIG    1       24.899 -19.299   4.393  0.00  0.00    +0.075 A 
ATOM      3  C   LIG    1       24.335 -20.114   5.347  0.00  0.00    +0.129 A 
ATOM      4  N   LIG    1       25.054 -20.846   6.202  0.00  0.00    -0.218 NA
ATOM      5  C   LIG    1       26.393 -20.803   6.076  0.00  0.00    +0.128 A 
ATOM      6  C   LIG    1       27.220 -21.570   7.062  0.00  0.00    +0.088 C 
ATOM      7  N   LIG    1       27.037 -20.080   5.150  0.00  0.00    -0.240 NA
ATOM      8  C   LIG    1       26.278 -19.344   4.321  0.00  0.00    +0.126 A 
BRANCH   3   9
ATOM      9  N   LIG    1       22.950 -20.228   5.498  0.00  0.00    -0.343 N 
ATOM     10  H   LIG    1       22.504 -20.441   4.608  0.00  0.00    +0.144 HD
ATOM     11  H   LIG    1       22.810 -21.047   6.097  0.00  0.00    +0.144 HD
ENDBRANCH   3   9
ENDBRANCH   1   2
BRANCH   1  14
ATOM     12  C   LIG    1       22.702 -15.859   4.495  0.00  0.00    +0.122 C 
ATOM     13  C   LIG    1       24.124 -15.845   4.064  0.00  0.00    +0.192 A 
ATOM     14  N   LIG    1       24.726 -17.004   3.574  0.00  0.00    -0.190 N 
ATOM     15  C   LIG    1       25.972 -16.839   3.149  0.00  0.00    +0.357 A 
ATOM     16  S   LIG    1       26.504 -15.234   3.384  0.00  0.00    -0.027 S 
ATOM     17  C   LIG    1       25.006 -14.774   4.089  0.00  0.00    +0.064 A 
BRANCH  17  18
ATOM     18  C   LIG    1       24.802 -13.359   4.576  0.00  0.00    +0.076 C 
BRANCH  18  19
ATOM     19  C   LIG    1       24.203 -12.432   3.513  0.00  0.00    +0.161 C 
BRANCH  19  20
ATOM     20  O   LIG    1       23.731 -13.178   2.397  0.00  0.00    -0.395 OA
ATOM     21  H   LIG    1       22.909 -12.750   2.093  0.00  0.00    +0.209 HD
ENDBRANCH  19  20
ENDBRANCH  18  19
ENDBRANCH  17  18
ENDBRANCH   1  14
TORSDOF 6
ENDMDL
MODEL 5
REMARK VINA RESULT:      -2.7      3.309      6.790
REMARK  Name = *****
REMARK                            x       y       z     vdW  Elec       q    Type
REMARK                         _______ _______ _______ _____ _____    ______ ____
ROOT
ATOM      1  C   LIG    1       24.084 -16.307   3.306  0.00  0.00    +0.399 C 
ENDROOT
BRANCH   1   2
ATOM      2  C   LIG    1       25.248 -15.444   3.680  0.00  0.00    +0.075 A 
ATOM      3  C   LIG    1       25.113 -14.155   4.141  0.00  0.00    +0.129 A 
ATOM      4  N   LIG    1       26.148 -13.330   4.323  0.00  0.00    -0.218 NA
ATOM      5  C   LIG    1       27.377 -13.821   4.080  0.00  0.00    +0.128 A 
ATOM      6  C   LIG    1       28.547 -12.895   4.220  0.00  0.00    +0.088 C 
ATOM      7  N   LIG    1       27.618 -15.075   3.676  0.00  0.00    -0.240 NA
ATOM      8  C   LIG    1       26.548 -15.867   3.487  0.00  0.00    +0.126 A 
BRANCH   3   9
ATOM      9  N   LIG    1       23.864 -13.605   4.447  0.00  0.00    -0.343 N 
ATOM     10  H   LIG    1       23.272 -14.288   4.915  0.00  0.00    +0.144 HD
ATOM     11  H   LIG    1       24.054 -12.867   5.132  0.00  0.00    +0.144 HD
ENDBRANCH   3   9
ENDBRANCH   1   2
BRANCH   1  14
ATOM     12  C   LIG    1       21.979 -18.122   4.447  0.00  0.00    +0.122 C 
ATOM     13  C   LIG    1       23.361 -18.594   4.173  0.00  0.00    +0.192 A 
ATOM     14  N   LIG    1       24.331 -17.708   3.703  0.00  0.00    -0.190 N 
ATOM     15  C   LIG    1       25.541 -18.235   3.575  0.00  0.00    +0.357 A 
ATOM     16  S   LIG    1       25.546 -19.894   3.978  0.00  0.00    -0.027 S 
ATOM     17  C   LIG    1       23.861 -19.880   4.317  0.00  0.00    +0.064 A 
BRANCH  17  18
ATOM     18  C   LIG    1       23.166 -21.150   4.748  0.00  0.00    +0.076 C 
BRANCH  18  19
ATOM     19  C   LIG    1       23.508 -21.572   6.181  0.00  0.00    +0.161 C 
BRANCH  19  20
ATOM     20  O   LIG    1       23.473 -20.454   7.061  0.00  0.00    -0.395 OA
ATOM     21  H   LIG    1       24.150 -20.607   7.747  0.00  0.00    +0.209 HD
ENDBRANCH  19  20
ENDBRANCH  18  19
ENDBRANCH  17  18
ENDBRANCH   1  14
TORSDOF 6
ENDMDL
MODEL 6
REMARK VINA RESULT:      -2.7      1.866      2.349
REMARK  Name = *****
REMARK                            x       y       z     vdW  Elec       q    Type
REMARK                         _______ _______ _______ _____ _____    ______ ____
ROOT
ATOM      1  C   LIG    1       25.195 -18.223   2.904  0.00  0.00    +0.399 C 
ENDROOT
BRANCH   1   2
ATOM      2  C   LIG    1       24.715 -19.005   4.087  0.00  0.00    +0.075 A 
ATOM      3  C   LIG    1       25.535 -19.811   4.840  0.00  0.00    +0.129 A 
ATOM      4  N   LIG    1       25.082 -20.631   5.793  0.00  0.00    -0.218 NA
ATOM      5  C   LIG    1       23.759 -20.617   6.039  0.00  0.00    +0.128 A 
ATOM      6  C   LIG    1       23.221 -21.571   7.061  0.00  0.00    +0.088 C 
ATOM      7  N   LIG    1       22.883 -19.834   5.395  0.00  0.00    -0.240 NA
ATOM      8  C   LIG    1       23.378 -19.037   4.432  0.00  0.00    +0.126 A 
BRANCH   3   9
ATOM      9  N   LIG    1       26.920 -19.837   4.656  0.00  0.00    -0.343 N 
ATOM     10  H   LIG    1       27.232 -19.026   4.126  0.00  0.00    +0.144 HD
ATOM     11  H   LIG    1       27.321 -19.743   5.594  0.00  0.00    +0.144 HD
ENDBRANCH   3   9
ENDBRANCH   1   2
BRANCH   1  14
ATOM     12  C   LIG    1       23.343 -16.007   3.737  0.00  0.00    +0.122 C 
ATOM     13  C   LIG    1       24.822 -15.856   3.776  0.00  0.00    +0.192 A 
ATOM     14  N   LIG    1       25.651 -16.882   3.322  0.00  0.00    -0.190 N 
ATOM     15  C   LIG    1       26.944 -16.590   3.336  0.00  0.00    +0.357 A 
ATOM     16  S   LIG    1       27.226 -15.031   3.973  0.00  0.00    -0.027 S 
ATOM     17  C   LIG    1       25.549 -14.769   4.241  0.00  0.00    +0.064 A 
BRANCH  17  18
ATOM     18  C   LIG    1       25.074 -13.474   4.855  0.00  0.00    +0.076 C 
BRANCH  18  19
ATOM     19  C   LIG    1       24.236 -12.620   3.899  0.00  0.00    +0.161 C 
BRANCH  19  20
ATOM     20  O   LIG    1       24.832 -12.572   2.607  0.00  0.00    -0.395 OA
ATOM     21  H   LIG    1       25.053 -11.638   2.427  0.00  0.00    +0.209 HD
ENDBRANCH  19  20
ENDBRANCH  18  19
ENDBRANCH  17  18
ENDBRANCH   1  14
TORSDOF 6
ENDMDL
MODEL 7
REMARK VINA RESULT:      -2.7      2.430      3.674
REMARK  Name = *****
REMARK                            x       y       z     vdW  Elec       q    Type
REMARK                         _______ _______ _______ _____ _____    ______ ____
ROOT
ATOM      1  C   LIG    1       25.644 -17.398   3.206  0.00  0.00    +0.399 C 
ENDROOT
BRANCH   1   2
ATOM      2  C   LIG    1       26.627 -18.185   4.015  0.00  0.00    +0.075 A 
ATOM      3  C   LIG    1       26.347 -19.422   4.547  0.00  0.00    +0.129 A 
ATOM      4  N   LIG    1       27.159 -20.054   5.398  0.00  0.00    -0.218 NA
ATOM      5  C   LIG    1       28.324 -19.452   5.701  0.00  0.00    +0.128 A 
ATOM      6  C   LIG    1       29.223 -20.115   6.699  0.00  0.00    +0.088 C 
ATOM      7  N   LIG    1       28.712 -18.272   5.198  0.00  0.00    -0.240 NA
ATOM      8  C   LIG    1       27.858 -17.661   4.359  0.00  0.00    +0.126 A 
BRANCH   3   9
ATOM      9  N   LIG    1       25.171 -20.112   4.238  0.00  0.00    -0.343 N 
ATOM     10  H   LIG    1       24.849 -20.656   5.035  0.00  0.00    +0.144 HD
ATOM     11  H   LIG    1       24.466 -19.386   4.077  0.00  0.00    +0.144 HD
ENDBRANCH   3   9
ENDBRANCH   1   2
BRANCH   1  14
ATOM     12  C   LIG    1       23.443 -15.597   4.177  0.00  0.00    +0.122 C 
ATOM     13  C   LIG    1       24.830 -15.104   3.967  0.00  0.00    +0.192 A 
ATOM     14  N   LIG    1       25.812 -15.951   3.454  0.00  0.00    -0.190 N 
ATOM     15  C   LIG    1       26.983 -15.368   3.240  0.00  0.00    +0.357 A 
ATOM     16  S   LIG    1       26.962 -13.729   3.716  0.00  0.00    -0.027 S 
ATOM     17  C   LIG    1       25.327 -13.836   4.234  0.00  0.00    +0.064 A 
BRANCH  17  18
ATOM     18  C   LIG    1       24.642 -12.629   4.829  0.00  0.00    +0.076 C 
BRANCH  18  19
ATOM     19  C   LIG    1       23.843 -11.818   3.804  0.00  0.00    +0.161 C 
BRANCH  19  20
ATOM     20  O   LIG    1       23.855 -12.456   2.531  0.00  0.00    -0.395 OA
ATOM     21  H   LIG    1       24.747 -12.332   2.157  0.00  0.00    +0.209 HD
ENDBRANCH  19  20
ENDBRANCH  18  19
ENDBRANCH  17  18
ENDBRANCH   1  14
TORSDOF 6
ENDMDL
MODEL 8
REMARK VINA RESULT:      -2.6      2.372      3.024
REMARK  Name = *****
REMARK                            x       y       z     vdW  Elec       q    Type
REMARK                         _______ _______ _______ _____ _____    ______ ____
ROOT
ATOM      1  C   LIG    1       26.035 -17.792   3.114  0.00  0.00    +0.399 C 
ENDROOT
BRANCH   1   2
ATOM      2  C   LIG    1       26.423 -18.689   4.247  0.00  0.00    +0.075 A 
ATOM      3  C   LIG    1       27.664 -18.662   4.839  0.00  0.00    +0.129 A 
ATOM      4  N   LIG    1       28.067 -19.565   5.738  0.00  0.00    -0.218 NA
ATOM      5  C   LIG    1       27.182 -20.512   6.099  0.00  0.00    +0.128 A 
ATOM      6  C   LIG    1       27.632 -21.569   7.061  0.00  0.00    +0.088 C 
ATOM      7  N   LIG    1       25.934 -20.596   5.618  0.00  0.00    -0.240 NA
ATOM      8  C   LIG    1       25.575 -19.679   4.703  0.00  0.00    +0.126 A 
BRANCH   3   9
ATOM      9  N   LIG    1       28.610 -17.679   4.532  0.00  0.00    -0.343 N 
ATOM     10  H   LIG    1       29.424 -17.757   5.138  0.00  0.00    +0.144 HD
ATOM     11  H   LIG    1       28.930 -17.899   3.584  0.00  0.00    +0.144 HD
ENDBRANCH   3   9
ENDBRANCH   1   2
BRANCH   1  14
ATOM     12  C   LIG    1       27.179 -15.028   3.399  0.00  0.00    +0.122 C 
ATOM     13  C   LIG    1       25.753 -15.325   3.694  0.00  0.00    +0.192 A 
ATOM     14  N   LIG    1       25.270 -16.631   3.613  0.00  0.00    -0.190 N 
ATOM     15  C   LIG    1       24.004 -16.773   3.979  0.00  0.00    +0.357 A 
ATOM     16  S   LIG    1       23.303 -15.273   4.396  0.00  0.00    -0.027 S 
ATOM     17  C   LIG    1       24.758 -14.427   4.055  0.00  0.00    +0.064 A 
BRANCH  17  18
ATOM     18  C   LIG    1       24.817 -12.926   4.218  0.00  0.00    +0.076 C 
BRANCH  18  19
ATOM     19  C   LIG    1       23.942 -12.172   3.211  0.00  0.00    +0.161 C 
BRANCH  19  20
ATOM     20  O   LIG    1       24.285 -12.527   1.875  0.00  0.00    -0.395 OA
ATOM     21  H   LIG    1       24.393 -13.496   1.855  0.00  0.00    +0.209 HD
ENDBRANCH  19  20
ENDBRANCH  18  19
ENDBRANCH  17  18
ENDBRANCH   1  14
TORSDOF 6
ENDMDL
MODEL 9
REMARK VINA RESULT:      -2.6      3.556      6.256
REMARK  Name = *****
REMARK                            x       y       z     vdW  Elec       q    Type
REMARK                         _______ _______ _______ _____ _____    ______ ____
ROOT
ATOM      1  C   LIG    1       27.868 -15.634   3.950  0.00  0.00    +0.399 C 
ENDROOT
BRANCH   1   2
ATOM      2  C   LIG    1       26.928 -14.517   3.618  0.00  0.00    +0.075 A 
ATOM      3  C   LIG    1       26.373 -13.692   4.568  0.00  0.00    +0.129 A 
ATOM      4  N   LIG    1       25.414 -12.802   4.295  0.00  0.00    -0.218 NA
ATOM      5  C   LIG    1       25.021 -12.694   3.013  0.00  0.00    +0.128 A 
ATOM      6  C   LIG    1       23.907 -11.745   2.694  0.00  0.00    +0.088 C 
ATOM      7  N   LIG    1       25.534 -13.415   2.007  0.00  0.00    -0.240 NA
ATOM      8  C   LIG    1       26.483 -14.312   2.327  0.00  0.00    +0.126 A 
BRANCH   3   9
ATOM      9  N   LIG    1       26.769 -13.733   5.908  0.00  0.00    -0.343 N 
ATOM     10  H   LIG    1       26.176 -13.136   6.481  0.00  0.00    +0.144 HD
ATOM     11  H   LIG    1       26.594 -14.695   6.213  0.00  0.00    +0.144 HD
ENDBRANCH   3   9
ENDBRANCH   1   2
BRANCH   1  14
ATOM     12  C   LIG    1       28.917 -18.141   5.232  0.00  0.00    +0.122 C 
ATOM     13  C   LIG    1       27.587 -18.092   4.568  0.00  0.00    +0.192 A 
ATOM     14  N   LIG    1       27.159 -16.929   3.928  0.00  0.00    -0.190 N 
ATOM     15  C   LIG    1       25.992 -17.042   3.308  0.00  0.00    +0.357 A 
ATOM     16  S   LIG    1       25.314 -18.593   3.528  0.00  0.00    -0.027 S 
ATOM     17  C   LIG    1       26.639 -19.102   4.497  0.00  0.00    +0.064 A 
BRANCH  17  18
ATOM     18  C   LIG    1       26.658 -20.495   5.080  0.00  0.00    +0.076 C 
BRANCH  18  19
ATOM     19  C   LIG    1       26.252 -20.541   6.557  0.00  0.00    +0.161 C 
BRANCH  19  20
ATOM     20  O   LIG    1       24.836 -20.592   6.692  0.00  0.00    -0.395 OA
ATOM     21  H   LIG    1       24.645 -20.839   7.616  0.00  0.00    +0.209 HD
ENDBRANCH  19  20
ENDBRANCH  18  19
ENDBRANCH  17  18
ENDBRANCH   1  14
TORSDOF 6
ENDMDL
