MODEL 1
REMARK VINA RESULT:     -10.2      0.000      0.000
REMARK  Name = *****
REMARK                            x       y       z     vdW  Elec       q    Type
REMARK                         _______ _______ _______ _____ _____    ______ ____
ROOT
ATOM      1  N   LIG    1       26.343 -21.421   5.662  0.00  0.00    -0.230 N 
ATOM      2  H   LIG    1       27.061 -21.854   5.090  0.00  0.00    +0.173 HD
ATOM      3  C   LIG    1       26.657 -20.726   6.821  0.00  0.00    +0.260 C 
ATOM      4  O   LIG    1       25.869 -20.398   7.702  0.00  0.00    -0.269 OA
ENDROOT
BRANCH   1   7
ATOM      5  C   LIG    1       24.141 -23.915   6.634  0.00  0.00    +0.030 C 
ATOM      6  C   LIG    1       24.323 -22.400   6.680  0.00  0.00    +0.096 C 
ATOM      7  N   LIG    1       25.025 -21.920   5.443  0.00  0.00    -0.247 N 
ATOM      8  C   LIG    1       24.170 -20.885   4.951  0.00  0.00    +0.051 A 
ATOM      9  C   LIG    1       22.996 -20.722   5.683  0.00  0.00    -0.023 A 
ATOM     10  C   LIG    1       22.061 -19.747   5.370  0.00  0.00    +0.005 A 
ATOM     11  C   LIG    1       22.317 -18.913   4.284  0.00  0.00    +0.000 A 
ATOM     12  C   LIG    1       23.489 -19.072   3.530  0.00  0.00    +0.002 A 
ATOM     13  C   LIG    1       24.421 -20.064   3.859  0.00  0.00    +0.025 A 
ATOM     14  C   LIG    1       22.941 -21.709   6.787  0.00  0.00    +0.061 C 
ENDBRANCH   1   7
BRANCH   3  15
ATOM     15  C   LIG    1       28.109 -20.341   6.965  0.00  0.00    +0.040 A 
ATOM     16  C   LIG    1       28.941 -21.023   7.869  0.00  0.00    +0.043 A 
ATOM     17  C   LIG    1       30.285 -20.628   8.053  0.00  0.00    +0.124 A 
ATOM     18  C   LIG    1       30.809 -19.562   7.320  0.00  0.00    +0.067 A 
ATOM     19 CL   LIG    1       32.440 -19.009   7.443  0.00  0.00    -0.082 Cl
ATOM     20  C   LIG    1       29.979 -18.885   6.418  0.00  0.00    +0.022 A 
ATOM     21  C   LIG    1       28.640 -19.262   6.251  0.00  0.00    +0.014 A 
BRANCH  17  22
ATOM     22  S   LIG    1       31.296 -21.471   9.232  0.00  0.00    +0.057 S 
ATOM     23  O   LIG    1       30.437 -22.174  10.168  0.00  0.00    -0.153 OA
ATOM     24  O   LIG    1       32.367 -20.599   9.641  0.00  0.00    -0.153 OA
BRANCH  22  25
ATOM     25  N   LIG    1       32.039 -22.685   8.337  0.00  0.00    -0.203 NA
ATOM     26  H   LIG    1       32.103 -22.418   7.354  0.00  0.00    +0.144 HD
ATOM     27  H   LIG    1       31.576 -23.580   8.500  0.00  0.00    +0.144 HD
ENDBRANCH  22  25
ENDBRANCH  17  22
ENDBRANCH   3  15
TORSDOF 4
ENDMDL
MODEL 2
REMARK VINA RESULT:      -9.9      2.078      2.116
REMARK  Name = *****
REMARK                            x       y       z     vdW  Elec       q    Type
REMARK                         _______ _______ _______ _____ _____    ______ ____
ROOT
ATOM      1  N   LIG    1       26.838 -20.977   6.053  0.00  0.00    -0.230 N 
ATOM      2  H   LIG    1       27.602 -21.236   5.438  0.00  0.00    +0.173 HD
ATOM      3  C   LIG    1       27.067 -20.394   7.292  0.00  0.00    +0.260 C 
ATOM      4  O   LIG    1       26.250 -20.285   8.201  0.00  0.00    -0.269 OA
ENDROOT
BRANCH   1   7
ATOM      5  C   LIG    1       24.850 -23.669   6.955  0.00  0.00    +0.030 C 
ATOM      6  C   LIG    1       24.869 -22.143   6.968  0.00  0.00    +0.096 C 
ATOM      7  N   LIG    1       25.597 -21.618   5.765  0.00  0.00    -0.247 N 
ATOM      8  C   LIG    1       24.674 -20.692   5.189  0.00  0.00    +0.051 A 
ATOM      9  C   LIG    1       23.443 -20.638   5.839  0.00  0.00    -0.023 A 
ATOM     10  C   LIG    1       22.434 -19.776   5.438  0.00  0.00    +0.005 A 
ATOM     11  C   LIG    1       22.673 -18.944   4.347  0.00  0.00    +0.000 A 
ATOM     12  C   LIG    1       23.903 -18.995   3.675  0.00  0.00    +0.002 A 
ATOM     13  C   LIG    1       24.909 -19.874   4.092  0.00  0.00    +0.025 A 
ATOM     14  C   LIG    1       23.418 -21.600   6.967  0.00  0.00    +0.061 C 
ENDBRANCH   1   7
BRANCH   3  15
ATOM     15  C   LIG    1       28.455 -19.837   7.492  0.00  0.00    +0.040 A 
ATOM     16  C   LIG    1       28.762 -19.083   8.637  0.00  0.00    +0.043 A 
ATOM     17  C   LIG    1       30.042 -18.508   8.802  0.00  0.00    +0.124 A 
ATOM     18  C   LIG    1       31.028 -18.701   7.833  0.00  0.00    +0.067 A 
ATOM     19 CL   LIG    1       32.631 -18.069   7.940  0.00  0.00    -0.082 Cl
ATOM     20  C   LIG    1       30.721 -19.455   6.694  0.00  0.00    +0.022 A 
ATOM     21  C   LIG    1       29.445 -20.007   6.519  0.00  0.00    +0.014 A 
BRANCH  17  22
ATOM     22  S   LIG    1       30.387 -17.522  10.228  0.00  0.00    +0.057 S 
ATOM     23  O   LIG    1       29.512 -17.939  11.309  0.00  0.00    -0.153 OA
ATOM     24  O   LIG    1       30.546 -16.149   9.822  0.00  0.00    -0.153 OA
BRANCH  22  25
ATOM     25  N   LIG    1       31.922 -18.018  10.703  0.00  0.00    -0.203 NA
ATOM     26  H   LIG    1       31.985 -18.065  11.720  0.00  0.00    +0.144 HD
ATOM     27  H   LIG    1       32.635 -17.434  10.264  0.00  0.00    +0.144 HD
ENDBRANCH  22  25
ENDBRANCH  17  22
ENDBRANCH   3  15
TORSDOF 4
ENDMDL
MODEL 3
REMARK VINA RESULT:      -9.3      2.073      3.752
REMARK  Name = *****
REMARK                            x       y       z     vdW  Elec       q    Type
REMARK                         _______ _______ _______ _____ _____    ______ ____
ROOT
ATOM      1  N   LIG    1       26.175 -22.833   7.099  0.00  0.00    -0.230 N 
ATOM      2  H   LIG    1       26.953 -23.406   6.791  0.00  0.00    +0.173 HD
ATOM      3  C   LIG    1       26.372 -21.590   7.685  0.00  0.00    +0.260 C 
ATOM      4  O   LIG    1       25.538 -20.948   8.315  0.00  0.00    -0.269 OA
ENDROOT
BRANCH   1   7
ATOM      5  C   LIG    1       22.745 -22.392   7.330  0.00  0.00    +0.030 C 
ATOM      6  C   LIG    1       23.807 -23.038   6.445  0.00  0.00    +0.096 C 
ATOM      7  N   LIG    1       24.949 -23.540   7.280  0.00  0.00    -0.247 N 
ATOM      8  C   LIG    1       25.089 -24.904   6.877  0.00  0.00    +0.051 A 
ATOM      9  C   LIG    1       24.131 -25.325   5.958  0.00  0.00    -0.023 A 
ATOM     10  C   LIG    1       24.127 -26.608   5.431  0.00  0.00    +0.005 A 
ATOM     11  C   LIG    1       25.120 -27.493   5.847  0.00  0.00    +0.000 A 
ATOM     12  C   LIG    1       26.085 -27.087   6.780  0.00  0.00    +0.002 A 
ATOM     13  C   LIG    1       26.071 -25.789   7.302  0.00  0.00    +0.025 A 
ATOM     14  C   LIG    1       23.187 -24.222   5.661  0.00  0.00    +0.061 C 
ENDBRANCH   1   7
BRANCH   3  15
ATOM     15  C   LIG    1       27.748 -21.001   7.491  0.00  0.00    +0.040 A 
ATOM     16  C   LIG    1       28.814 -21.392   8.317  0.00  0.00    +0.043 A 
ATOM     17  C   LIG    1       30.090 -20.800   8.181  0.00  0.00    +0.124 A 
ATOM     18  C   LIG    1       30.310 -19.828   7.203  0.00  0.00    +0.067 A 
ATOM     19 CL   LIG    1       31.830 -19.056   6.928  0.00  0.00    -0.082 Cl
ATOM     20  C   LIG    1       29.247 -19.441   6.378  0.00  0.00    +0.022 A 
ATOM     21  C   LIG    1       27.976 -20.013   6.528  0.00  0.00    +0.014 A 
BRANCH  17  22
ATOM     22  S   LIG    1       31.401 -21.273   9.267  0.00  0.00    +0.057 S 
ATOM     23  O   LIG    1       30.833 -21.946  10.421  0.00  0.00    -0.153 OA
ATOM     24  O   LIG    1       32.343 -20.188   9.366  0.00  0.00    -0.153 OA
BRANCH  22  25
ATOM     25  N   LIG    1       32.212 -22.480   8.423  0.00  0.00    -0.203 NA
ATOM     26  H   LIG    1       32.935 -22.077   7.827  0.00  0.00    +0.144 HD
ATOM     27  H   LIG    1       31.546 -23.078   7.931  0.00  0.00    +0.144 HD
ENDBRANCH  22  25
ENDBRANCH  17  22
ENDBRANCH   3  15
TORSDOF 4
ENDMDL
MODEL 4
REMARK VINA RESULT:      -9.1      5.504      7.342
REMARK  Name = *****
REMARK                            x       y       z     vdW  Elec       q    Type
REMARK                         _______ _______ _______ _____ _____    ______ ____
ROOT
ATOM      1  N   LIG    1       25.364 -23.775   6.450  0.00  0.00    -0.230 N 
ATOM      2  H   LIG    1       26.215 -23.946   5.925  0.00  0.00    +0.173 HD
ATOM      3  C   LIG    1       24.330 -24.701   6.481  0.00  0.00    +0.260 C 
ATOM      4  O   LIG    1       23.182 -24.489   6.858  0.00  0.00    -0.269 OA
ENDROOT
BRANCH   1   7
ATOM      5  C   LIG    1       25.836 -21.419   8.947  0.00  0.00    +0.030 C 
ATOM      6  C   LIG    1       26.253 -21.738   7.514  0.00  0.00    +0.096 C 
ATOM      7  N   LIG    1       25.129 -22.407   6.778  0.00  0.00    -0.247 N 
ATOM      8  C   LIG    1       24.986 -21.622   5.593  0.00  0.00    +0.051 A 
ATOM      9  C   LIG    1       25.826 -20.511   5.543  0.00  0.00    -0.023 A 
ATOM     10  C   LIG    1       25.848 -19.650   4.456  0.00  0.00    +0.005 A 
ATOM     11  C   LIG    1       24.994 -19.917   3.388  0.00  0.00    +0.000 A 
ATOM     12  C   LIG    1       24.135 -21.025   3.428  0.00  0.00    +0.002 A 
ATOM     13  C   LIG    1       24.125 -21.881   4.535  0.00  0.00    +0.025 A 
ATOM     14  C   LIG    1       26.642 -20.431   6.778  0.00  0.00    +0.061 C 
ENDBRANCH   1   7
BRANCH   3  15
ATOM     15  C   LIG    1       24.698 -26.090   6.018  0.00  0.00    +0.040 A 
ATOM     16  C   LIG    1       24.354 -27.212   6.789  0.00  0.00    +0.043 A 
ATOM     17  C   LIG    1       24.748 -28.510   6.393  0.00  0.00    +0.124 A 
ATOM     18  C   LIG    1       25.471 -28.693   5.213  0.00  0.00    +0.067 A 
ATOM     19 CL   LIG    1       25.983 -30.231   4.618  0.00  0.00    -0.082 Cl
ATOM     20  C   LIG    1       25.810 -27.573   4.444  0.00  0.00    +0.022 A 
ATOM     21  C   LIG    1       25.439 -26.284   4.848  0.00  0.00    +0.014 A 
BRANCH  17  22
ATOM     22  S   LIG    1       24.346 -29.900   7.407  0.00  0.00    +0.057 S 
ATOM     23  O   LIG    1       23.596 -30.857   6.613  0.00  0.00    -0.153 OA
ATOM     24  O   LIG    1       23.915 -29.431   8.699  0.00  0.00    -0.153 OA
BRANCH  22  25
ATOM     25  N   LIG    1       25.829 -30.643   7.685  0.00  0.00    -0.203 NA
ATOM     26  H   LIG    1       25.782 -31.635   7.453  0.00  0.00    +0.144 HD
ATOM     27  H   LIG    1       26.152 -30.448   8.634  0.00  0.00    +0.144 HD
ENDBRANCH  22  25
ENDBRANCH  17  22
ENDBRANCH   3  15
TORSDOF 4
ENDMDL
MODEL 5
REMARK VINA RESULT:      -8.9      5.017      6.744
REMARK  Name = *****
REMARK                            x       y       z     vdW  Elec       q    Type
REMARK                         _______ _______ _______ _____ _____    ______ ____
ROOT
ATOM      1  N   LIG    1       25.326 -23.085   5.743  0.00  0.00    -0.230 N 
ATOM      2  H   LIG    1       24.766 -23.324   4.932  0.00  0.00    +0.173 HD
ATOM      3  C   LIG    1       25.673 -24.036   6.693  0.00  0.00    +0.260 C 
ATOM      4  O   LIG    1       26.113 -23.809   7.815  0.00  0.00    -0.269 OA
ENDROOT
BRANCH   1   7
ATOM      5  C   LIG    1       27.477 -20.514   6.623  0.00  0.00    +0.030 C 
ATOM      6  C   LIG    1       26.549 -20.960   5.497  0.00  0.00    +0.096 C 
ATOM      7  N   LIG    1       25.365 -21.694   6.054  0.00  0.00    -0.247 N 
ATOM      8  C   LIG    1       24.245 -21.018   5.478  0.00  0.00    +0.051 A 
ATOM      9  C   LIG    1       24.588 -19.915   4.700  0.00  0.00    -0.023 A 
ATOM     10  C   LIG    1       23.636 -19.154   4.037  0.00  0.00    +0.005 A 
ATOM     11  C   LIG    1       22.297 -19.518   4.167  0.00  0.00    +0.000 A 
ATOM     12  C   LIG    1       21.935 -20.619   4.956  0.00  0.00    +0.002 A 
ATOM     13  C   LIG    1       22.910 -21.373   5.619  0.00  0.00    +0.025 A 
ATOM     14  C   LIG    1       26.057 -19.723   4.702  0.00  0.00    +0.061 C 
ENDBRANCH   1   7
BRANCH   3  15
ATOM     15  C   LIG    1       25.496 -25.471   6.260  0.00  0.00    +0.040 A 
ATOM     16  C   LIG    1       25.392 -26.496   7.214  0.00  0.00    +0.043 A 
ATOM     17  C   LIG    1       25.286 -27.848   6.816  0.00  0.00    +0.124 A 
ATOM     18  C   LIG    1       25.264 -28.179   5.459  0.00  0.00    +0.067 A 
ATOM     19 CL   LIG    1       25.112 -29.789   4.856  0.00  0.00    -0.082 Cl
ATOM     20  C   LIG    1       25.364 -27.155   4.509  0.00  0.00    +0.022 A 
ATOM     21  C   LIG    1       25.491 -25.817   4.905  0.00  0.00    +0.014 A 
BRANCH  17  22
ATOM     22  S   LIG    1       25.208 -29.123   8.037  0.00  0.00    +0.057 S 
ATOM     23  O   LIG    1       23.853 -29.643   8.083  0.00  0.00    -0.153 OA
ATOM     24  O   LIG    1       25.935 -28.699   9.206  0.00  0.00    -0.153 OA
BRANCH  22  25
ATOM     25  N   LIG    1       26.124 -30.371   7.381  0.00  0.00    -0.203 NA
ATOM     26  H   LIG    1       27.067 -30.367   7.771  0.00  0.00    +0.144 HD
ATOM     27  H   LIG    1       26.090 -30.338   6.361  0.00  0.00    +0.144 HD
ENDBRANCH  22  25
ENDBRANCH  17  22
ENDBRANCH   3  15
TORSDOF 4
ENDMDL
MODEL 6
REMARK VINA RESULT:      -8.8      2.337      3.690
REMARK  Name = *****
REMARK                            x       y       z     vdW  Elec       q    Type
REMARK                         _______ _______ _______ _____ _____    ______ ____
ROOT
ATOM      1  N   LIG    1       26.470 -20.701   6.540  0.00  0.00    -0.230 N 
ATOM      2  H   LIG    1       27.071 -20.759   5.724  0.00  0.00    +0.173 HD
ATOM      3  C   LIG    1       26.982 -20.438   7.803  0.00  0.00    +0.260 C 
ATOM      4  O   LIG    1       26.396 -20.601   8.868  0.00  0.00    -0.269 OA
ENDROOT
BRANCH   1   7
ATOM      5  C   LIG    1       23.224 -20.061   5.510  0.00  0.00    +0.030 C 
ATOM      6  C   LIG    1       24.448 -20.896   5.144  0.00  0.00    +0.096 C 
ATOM      7  N   LIG    1       25.189 -21.308   6.383  0.00  0.00    -0.247 N 
ATOM      8  C   LIG    1       25.316 -22.724   6.245  0.00  0.00    +0.051 A 
ATOM      9  C   LIG    1       24.681 -23.244   5.119  0.00  0.00    -0.023 A 
ATOM     10  C   LIG    1       24.722 -24.595   4.806  0.00  0.00    +0.005 A 
ATOM     11  C   LIG    1       25.424 -25.446   5.656  0.00  0.00    +0.000 A 
ATOM     12  C   LIG    1       26.059 -24.940   6.799  0.00  0.00    +0.002 A 
ATOM     13  C   LIG    1       26.005 -23.574   7.101  0.00  0.00    +0.025 A 
ATOM     14  C   LIG    1       24.007 -22.160   4.365  0.00  0.00    +0.061 C 
ENDBRANCH   1   7
BRANCH   3  15
ATOM     15  C   LIG    1       28.386 -19.883   7.824  0.00  0.00    +0.040 A 
ATOM     16  C   LIG    1       28.867 -19.203   8.954  0.00  0.00    +0.043 A 
ATOM     17  C   LIG    1       30.158 -18.628   8.958  0.00  0.00    +0.124 A 
ATOM     18  C   LIG    1       30.982 -18.750   7.838  0.00  0.00    +0.067 A 
ATOM     19 CL   LIG    1       32.584 -18.113   7.738  0.00  0.00    -0.082 Cl
ATOM     20  C   LIG    1       30.502 -19.431   6.713  0.00  0.00    +0.022 A 
ATOM     21  C   LIG    1       29.214 -19.982   6.701  0.00  0.00    +0.014 A 
BRANCH  17  22
ATOM     22  S   LIG    1       30.719 -17.734  10.375  0.00  0.00    +0.057 S 
ATOM     23  O   LIG    1       32.116 -18.054  10.607  0.00  0.00    -0.153 OA
ATOM     24  O   LIG    1       29.711 -17.797  11.401  0.00  0.00    -0.153 OA
BRANCH  22  25
ATOM     25  N   LIG    1       30.726 -16.130   9.867  0.00  0.00    -0.203 NA
ATOM     26  H   LIG    1       30.805 -16.076   8.852  0.00  0.00    +0.144 HD
ATOM     27  H   LIG    1       31.438 -15.601  10.373  0.00  0.00    +0.144 HD
ENDBRANCH  22  25
ENDBRANCH  17  22
ENDBRANCH   3  15
TORSDOF 4
ENDMDL
MODEL 7
REMARK VINA RESULT:      -8.8      5.408      7.490
REMARK  Name = *****
REMARK                            x       y       z     vdW  Elec       q    Type
REMARK                         _______ _______ _______ _____ _____    ______ ____
ROOT
ATOM      1  N   LIG    1       24.177 -24.593   6.461  0.00  0.00    -0.230 N 
ATOM      2  H   LIG    1       24.062 -24.818   7.443  0.00  0.00    +0.173 HD
ATOM      3  C   LIG    1       24.705 -25.509   5.561  0.00  0.00    +0.260 C 
ATOM      4  O   LIG    1       25.120 -25.257   4.435  0.00  0.00    -0.269 OA
ENDROOT
BRANCH   1   7
ATOM      5  C   LIG    1       22.130 -22.018   5.369  0.00  0.00    +0.030 C 
ATOM      6  C   LIG    1       22.925 -22.474   6.590  0.00  0.00    +0.096 C 
ATOM      7  N   LIG    1       24.169 -23.198   6.163  0.00  0.00    -0.247 N 
ATOM      8  C   LIG    1       25.211 -22.526   6.872  0.00  0.00    +0.051 A 
ATOM      9  C   LIG    1       24.777 -21.433   7.619  0.00  0.00    -0.023 A 
ATOM     10  C   LIG    1       25.643 -20.677   8.395  0.00  0.00    +0.005 A 
ATOM     11  C   LIG    1       26.989 -21.035   8.416  0.00  0.00    +0.000 A 
ATOM     12  C   LIG    1       27.444 -22.126   7.661  0.00  0.00    +0.002 A 
ATOM     13  C   LIG    1       26.556 -22.875   6.882  0.00  0.00    +0.025 A 
ATOM     14  C   LIG    1       23.316 -21.245   7.449  0.00  0.00    +0.061 C 
ENDBRANCH   1   7
BRANCH   3  15
ATOM     15  C   LIG    1       24.736 -26.938   6.045  0.00  0.00    +0.040 A 
ATOM     16  C   LIG    1       25.248 -27.250   7.316  0.00  0.00    +0.043 A 
ATOM     17  C   LIG    1       25.337 -28.591   7.751  0.00  0.00    +0.124 A 
ATOM     18  C   LIG    1       24.896 -29.626   6.925  0.00  0.00    +0.067 A 
ATOM     19 CL   LIG    1       24.931 -31.297   7.360  0.00  0.00    -0.082 Cl
ATOM     20  C   LIG    1       24.384 -29.314   5.659  0.00  0.00    +0.022 A 
ATOM     21  C   LIG    1       24.316 -27.985   5.219  0.00  0.00    +0.014 A 
BRANCH  17  22
ATOM     22  S   LIG    1       26.030 -28.959   9.334  0.00  0.00    +0.057 S 
ATOM     23  O   LIG    1       25.031 -29.642  10.135  0.00  0.00    -0.153 OA
ATOM     24  O   LIG    1       26.773 -27.816   9.799  0.00  0.00    -0.153 OA
BRANCH  22  25
ATOM     25  N   LIG    1       27.191 -30.130   9.007  0.00  0.00    -0.203 NA
ATOM     26  H   LIG    1       28.054 -29.932   9.514  0.00  0.00    +0.144 HD
ATOM     27  H   LIG    1       27.312 -30.239   7.999  0.00  0.00    +0.144 HD
ENDBRANCH  22  25
ENDBRANCH  17  22
ENDBRANCH   3  15
TORSDOF 4
ENDMDL
MODEL 8
REMARK VINA RESULT:      -8.6      2.032      2.220
REMARK  Name = *****
REMARK                            x       y       z     vdW  Elec       q    Type
REMARK                         _______ _______ _______ _____ _____    ______ ____
ROOT
ATOM      1  N   LIG    1       26.305 -21.707   6.173  0.00  0.00    -0.230 N 
ATOM      2  H   LIG    1       26.992 -22.390   5.871  0.00  0.00    +0.173 HD
ATOM      3  C   LIG    1       26.534 -20.877   7.262  0.00  0.00    +0.260 C 
ATOM      4  O   LIG    1       25.688 -20.216   7.856  0.00  0.00    -0.269 OA
ENDROOT
BRANCH   1   7
ATOM      5  C   LIG    1       23.497 -23.670   6.700  0.00  0.00    +0.030 C 
ATOM      6  C   LIG    1       23.971 -22.221   6.776  0.00  0.00    +0.096 C 
ATOM      7  N   LIG    1       24.980 -21.943   5.700  0.00  0.00    -0.247 N 
ATOM      8  C   LIG    1       24.465 -20.782   5.045  0.00  0.00    +0.051 A 
ATOM      9  C   LIG    1       23.230 -20.358   5.530  0.00  0.00    -0.023 A 
ATOM     10  C   LIG    1       22.590 -19.231   5.035  0.00  0.00    +0.005 A 
ATOM     11  C   LIG    1       23.215 -18.513   4.018  0.00  0.00    +0.000 A 
ATOM     12  C   LIG    1       24.452 -18.934   3.511  0.00  0.00    +0.002 A 
ATOM     13  C   LIG    1       25.082 -20.075   4.021  0.00  0.00    +0.025 A 
ATOM     14  C   LIG    1       22.764 -21.265   6.605  0.00  0.00    +0.061 C 
ENDBRANCH   1   7
BRANCH   3  15
ATOM     15  C   LIG    1       27.971 -20.793   7.713  0.00  0.00    +0.040 A 
ATOM     16  C   LIG    1       28.529 -19.560   8.089  0.00  0.00    +0.043 A 
ATOM     17  C   LIG    1       29.890 -19.463   8.454  0.00  0.00    +0.124 A 
ATOM     18  C   LIG    1       30.696 -20.603   8.466  0.00  0.00    +0.067 A 
ATOM     19 CL   LIG    1       32.362 -20.610   8.918  0.00  0.00    -0.082 Cl
ATOM     20  C   LIG    1       30.137 -21.832   8.094  0.00  0.00    +0.022 A 
ATOM     21  C   LIG    1       28.793 -21.924   7.710  0.00  0.00    +0.014 A 
BRANCH  17  22
ATOM     22  S   LIG    1       30.580 -17.891   8.875  0.00  0.00    +0.057 S 
ATOM     23  O   LIG    1       29.499 -16.942   9.069  0.00  0.00    -0.153 OA
ATOM     24  O   LIG    1       31.716 -17.635   8.027  0.00  0.00    -0.153 OA
BRANCH  22  25
ATOM     25  N   LIG    1       31.225 -18.127  10.410  0.00  0.00    -0.203 NA
ATOM     26  H   LIG    1       30.571 -17.813  11.126  0.00  0.00    +0.144 HD
ATOM     27  H   LIG    1       32.153 -17.706  10.474  0.00  0.00    +0.144 HD
ENDBRANCH  22  25
ENDBRANCH  17  22
ENDBRANCH   3  15
TORSDOF 4
ENDMDL
MODEL 9
REMARK VINA RESULT:      -8.6      5.992      8.006
REMARK  Name = *****
REMARK                            x       y       z     vdW  Elec       q    Type
REMARK                         _______ _______ _______ _____ _____    ______ ____
ROOT
ATOM      1  N   LIG    1       24.752 -24.637   7.047  0.00  0.00    -0.230 N 
ATOM      2  H   LIG    1       24.699 -24.713   8.057  0.00  0.00    +0.173 HD
ATOM      3  C   LIG    1       25.361 -25.616   6.275  0.00  0.00    +0.260 C 
ATOM      4  O   LIG    1       25.704 -25.502   5.102  0.00  0.00    -0.269 OA
ENDROOT
BRANCH   1   7
ATOM      5  C   LIG    1       22.355 -22.529   5.696  0.00  0.00    +0.030 C 
ATOM      6  C   LIG    1       23.252 -22.685   6.921  0.00  0.00    +0.096 C 
ATOM      7  N   LIG    1       24.557 -23.320   6.536  0.00  0.00    -0.247 N 
ATOM      8  C   LIG    1       25.538 -22.425   7.065  0.00  0.00    +0.051 A 
ATOM      9  C   LIG    1       25.003 -21.282   7.657  0.00  0.00    -0.023 A 
ATOM     10  C   LIG    1       25.801 -20.315   8.250  0.00  0.00    +0.005 A 
ATOM     11  C   LIG    1       27.181 -20.506   8.243  0.00  0.00    +0.000 A 
ATOM     12  C   LIG    1       27.735 -21.645   7.641  0.00  0.00    +0.002 A 
ATOM     13  C   LIG    1       26.914 -22.609   7.045  0.00  0.00    +0.025 A 
ATOM     14  C   LIG    1       23.524 -21.296   7.552  0.00  0.00    +0.061 C 
ENDBRANCH   1   7
BRANCH   3  15
ATOM     15  C   LIG    1       25.589 -26.935   6.973  0.00  0.00    +0.040 A 
ATOM     16  C   LIG    1       24.947 -28.100   6.523  0.00  0.00    +0.043 A 
ATOM     17  C   LIG    1       25.108 -29.325   7.209  0.00  0.00    +0.124 A 
ATOM     18  C   LIG    1       25.929 -29.395   8.335  0.00  0.00    +0.067 A 
ATOM     19 CL   LIG    1       26.221 -30.839   9.235  0.00  0.00    -0.082 Cl
ATOM     20  C   LIG    1       26.572 -28.233   8.780  0.00  0.00    +0.022 A 
ATOM     21  C   LIG    1       26.394 -27.013   8.114  0.00  0.00    +0.014 A 
BRANCH  17  22
ATOM     22  S   LIG    1       24.249 -30.765   6.652  0.00  0.00    +0.057 S 
ATOM     23  O   LIG    1       23.389 -31.240   7.722  0.00  0.00    -0.153 OA
ATOM     24  O   LIG    1       25.167 -31.614   5.938  0.00  0.00    -0.153 OA
BRANCH  22  25
ATOM     25  N   LIG    1       23.193 -30.182   5.480  0.00  0.00    -0.203 NA
ATOM     26  H   LIG    1       22.242 -30.135   5.846  0.00  0.00    +0.144 HD
ATOM     27  H   LIG    1       23.286 -30.721   4.618  0.00  0.00    +0.144 HD
ENDBRANCH  22  25
ENDBRANCH  17  22
ENDBRANCH   3  15
TORSDOF 4
ENDMDL
