MODEL 1
REMARK VINA RESULT:      -5.0      0.000      0.000
REMARK  Name = *****
REMARK                            x       y       z     vdW  Elec       q    Type
REMARK                         _______ _______ _______ _____ _____    ______ ____
ROOT
ATOM      1  C   LIG    1       23.719 -20.505   5.418  0.00  0.00    -0.004 A 
ATOM      2  C   LIG    1       24.843 -19.983   4.751  0.00  0.00    +0.048 A 
ATOM      3 CL   LIG    1       24.687 -19.065   3.293  0.00  0.00    -0.083 Cl
ATOM      4  C   LIG    1       26.134 -20.199   5.240  0.00  0.00    +0.040 A 
ATOM      5  C   LIG    1       26.318 -20.954   6.394  0.00  0.00    +0.042 A 
ATOM      6 CL   LIG    1       27.908 -21.222   6.997  0.00  0.00    -0.084 Cl
ATOM      7  C   LIG    1       25.225 -21.500   7.060  0.00  0.00    +0.020 A 
ATOM      8  C   LIG    1       23.936 -21.279   6.571  0.00  0.00    +0.009 A 
ENDROOT
BRANCH   1   9
ATOM      9  C   LIG    1       22.322 -20.293   4.885  0.00  0.00    +0.192 C 
BRANCH   9  10
ATOM     10  O   LIG    1       21.567 -21.500   4.905  0.00  0.00    -0.390 OA
ATOM     11  H   LIG    1       22.135 -22.175   5.315  0.00  0.00    +0.210 HD
ENDBRANCH   9  10
ENDBRANCH   1   9
TORSDOF 2
ENDMDL
MODEL 2
REMARK VINA RESULT:      -4.6      2.850      3.860
REMARK  Name = *****
REMARK                            x       y       z     vdW  Elec       q    Type
REMARK                         _______ _______ _______ _____ _____    ______ ____
ROOT
ATOM      1  C   LIG    1       26.116 -20.115   5.232  0.00  0.00    -0.004 A 
ATOM      2  C   LIG    1       25.292 -19.441   4.312  0.00  0.00    +0.048 A 
ATOM      3 CL   LIG    1       25.904 -18.180   3.299  0.00  0.00    -0.083 Cl
ATOM      4  C   LIG    1       23.936 -19.761   4.192  0.00  0.00    +0.040 A 
ATOM      5  C   LIG    1       23.385 -20.748   5.002  0.00  0.00    +0.042 A 
ATOM      6 CL   LIG    1       21.717 -21.143   4.856  0.00  0.00    -0.084 Cl
ATOM      7  C   LIG    1       24.174 -21.415   5.935  0.00  0.00    +0.020 A 
ATOM      8  C   LIG    1       25.528 -21.095   6.051  0.00  0.00    +0.009 A 
ENDROOT
BRANCH   1   9
ATOM      9  C   LIG    1       27.576 -19.762   5.383  0.00  0.00    +0.192 C 
BRANCH   9  10
ATOM     10  O   LIG    1       28.282 -20.759   6.114  0.00  0.00    -0.390 OA
ATOM     11  H   LIG    1       29.014 -21.053   5.544  0.00  0.00    +0.210 HD
ENDBRANCH   9  10
ENDBRANCH   1   9
TORSDOF 2
ENDMDL
MODEL 3
REMARK VINA RESULT:      -4.5      1.992      2.555
REMARK  Name = *****
REMARK                            x       y       z     vdW  Elec       q    Type
REMARK                         _______ _______ _______ _____ _____    ______ ____
ROOT
ATOM      1  C   LIG    1       23.782 -19.867   4.771  0.00  0.00    -0.004 A 
ATOM      2  C   LIG    1       24.175 -20.532   5.947  0.00  0.00    +0.048 A 
ATOM      3 CL   LIG    1       23.013 -21.173   7.058  0.00  0.00    -0.083 Cl
ATOM      4  C   LIG    1       25.526 -20.690   6.269  0.00  0.00    +0.040 A 
ATOM      5  C   LIG    1       26.501 -20.169   5.424  0.00  0.00    +0.042 A 
ATOM      6 CL   LIG    1       28.165 -20.362   5.818  0.00  0.00    -0.084 Cl
ATOM      7  C   LIG    1       26.139 -19.488   4.266  0.00  0.00    +0.020 A 
ATOM      8  C   LIG    1       24.789 -19.336   3.946  0.00  0.00    +0.009 A 
ENDROOT
BRANCH   1   9
ATOM      9  C   LIG    1       22.324 -19.676   4.428  0.00  0.00    +0.192 C 
BRANCH   9  10
ATOM     10  O   LIG    1       21.980 -18.296   4.365  0.00  0.00    -0.390 OA
ATOM     11  H   LIG    1       21.909 -17.986   5.285  0.00  0.00    +0.210 HD
ENDBRANCH   9  10
ENDBRANCH   1   9
TORSDOF 2
ENDMDL
MODEL 4
REMARK VINA RESULT:      -4.3      6.292      7.515
REMARK  Name = *****
REMARK                            x       y       z     vdW  Elec       q    Type
REMARK                         _______ _______ _______ _____ _____    ______ ____
ROOT
ATOM      1  C   LIG    1       26.030 -15.131   3.681  0.00  0.00    -0.004 A 
ATOM      2  C   LIG    1       26.618 -13.857   3.795  0.00  0.00    +0.048 A 
ATOM      3 CL   LIG    1       28.330 -13.635   3.685  0.00  0.00    -0.083 Cl
ATOM      4  C   LIG    1       25.835 -12.720   4.013  0.00  0.00    +0.040 A 
ATOM      5  C   LIG    1       24.455 -12.845   4.137  0.00  0.00    +0.042 A 
ATOM      6 CL   LIG    1       23.490 -11.447   4.407  0.00  0.00    -0.084 Cl
ATOM      7  C   LIG    1       23.851 -14.096   4.051  0.00  0.00    +0.020 A 
ATOM      8  C   LIG    1       24.636 -15.230   3.829  0.00  0.00    +0.009 A 
ENDROOT
BRANCH   1   9
ATOM      9  C   LIG    1       26.871 -16.366   3.466  0.00  0.00    +0.192 C 
BRANCH   9  10
ATOM     10  O   LIG    1       26.096 -17.440   2.942  0.00  0.00    -0.390 OA
ATOM     11  H   LIG    1       25.167 -17.156   2.983  0.00  0.00    +0.210 HD
ENDBRANCH   9  10
ENDBRANCH   1   9
TORSDOF 2
ENDMDL
MODEL 5
REMARK VINA RESULT:      -4.2      2.932      3.733
REMARK  Name = *****
REMARK                            x       y       z     vdW  Elec       q    Type
REMARK                         _______ _______ _______ _____ _____    ______ ____
ROOT
ATOM      1  C   LIG    1       25.041 -19.176   3.951  0.00  0.00    -0.004 A 
ATOM      2  C   LIG    1       25.720 -19.869   4.970  0.00  0.00    +0.048 A 
ATOM      3 CL   LIG    1       27.447 -19.862   5.077  0.00  0.00    -0.083 Cl
ATOM      4  C   LIG    1       25.020 -20.601   5.933  0.00  0.00    +0.040 A 
ATOM      5  C   LIG    1       23.631 -20.662   5.878  0.00  0.00    +0.042 A 
ATOM      6 CL   LIG    1       22.766 -21.563   7.062  0.00  0.00    -0.084 Cl
ATOM      7  C   LIG    1       22.937 -20.005   4.867  0.00  0.00    +0.020 A 
ATOM      8  C   LIG    1       23.639 -19.272   3.909  0.00  0.00    +0.009 A 
ENDROOT
BRANCH   1   9
ATOM      9  C   LIG    1       25.792 -18.400   2.895  0.00  0.00    +0.192 C 
BRANCH   9  10
ATOM     10  O   LIG    1       26.062 -17.069   3.320  0.00  0.00    -0.390 OA
ATOM     11  H   LIG    1       25.208 -16.681   3.574  0.00  0.00    +0.210 HD
ENDBRANCH   9  10
ENDBRANCH   1   9
TORSDOF 2
ENDMDL
MODEL 6
REMARK VINA RESULT:      -4.2      2.819      4.572
REMARK  Name = *****
REMARK                            x       y       z     vdW  Elec       q    Type
REMARK                         _______ _______ _______ _____ _____    ______ ____
ROOT
ATOM      1  C   LIG    1       26.570 -19.800   4.981  0.00  0.00    -0.004 A 
ATOM      2  C   LIG    1       25.930 -20.684   5.869  0.00  0.00    +0.048 A 
ATOM      3 CL   LIG    1       26.816 -21.571   7.062  0.00  0.00    -0.083 Cl
ATOM      4  C   LIG    1       24.548 -20.889   5.812  0.00  0.00    +0.040 A 
ATOM      5  C   LIG    1       23.792 -20.222   4.853  0.00  0.00    +0.042 A 
ATOM      6 CL   LIG    1       22.090 -20.472   4.780  0.00  0.00    -0.084 Cl
ATOM      7  C   LIG    1       24.402 -19.359   3.949  0.00  0.00    +0.020 A 
ATOM      8  C   LIG    1       25.782 -19.155   4.011  0.00  0.00    +0.009 A 
ENDROOT
BRANCH   1   9
ATOM      9  C   LIG    1       28.064 -19.590   5.023  0.00  0.00    +0.192 C 
BRANCH   9  10
ATOM     10  O   LIG    1       28.417 -18.269   4.628  0.00  0.00    -0.390 OA
ATOM     11  H   LIG    1       28.282 -18.223   3.666  0.00  0.00    +0.210 HD
ENDBRANCH   9  10
ENDBRANCH   1   9
TORSDOF 2
ENDMDL
MODEL 7
REMARK VINA RESULT:      -3.9      2.426      3.082
REMARK  Name = *****
REMARK                            x       y       z     vdW  Elec       q    Type
REMARK                         _______ _______ _______ _____ _____    ______ ____
ROOT
ATOM      1  C   LIG    1       23.673 -20.507   5.006  0.00  0.00    -0.004 A 
ATOM      2  C   LIG    1       23.124 -19.380   4.368  0.00  0.00    +0.048 A 
ATOM      3 CL   LIG    1       21.414 -19.136   4.271  0.00  0.00    -0.083 Cl
ATOM      4  C   LIG    1       23.945 -18.416   3.776  0.00  0.00    +0.040 A 
ATOM      5  C   LIG    1       25.326 -18.577   3.801  0.00  0.00    +0.042 A 
ATOM      6 CL   LIG    1       26.340 -17.391   3.074  0.00  0.00    -0.084 Cl
ATOM      7  C   LIG    1       25.894 -19.694   4.406  0.00  0.00    +0.020 A 
ATOM      8  C   LIG    1       25.071 -20.653   4.999  0.00  0.00    +0.009 A 
ENDROOT
BRANCH   1   9
ATOM      9  C   LIG    1       22.792 -21.563   5.629  0.00  0.00    +0.192 C 
BRANCH   9  10
ATOM     10  O   LIG    1       22.910 -21.571   7.048  0.00  0.00    -0.390 OA
ATOM     11  H   LIG    1       23.446 -20.795   7.285  0.00  0.00    +0.210 HD
ENDBRANCH   9  10
ENDBRANCH   1   9
TORSDOF 2
ENDMDL
MODEL 8
REMARK VINA RESULT:      -3.8      6.401      7.055
REMARK  Name = *****
REMARK                            x       y       z     vdW  Elec       q    Type
REMARK                         _______ _______ _______ _____ _____    ______ ____
ROOT
ATOM      1  C   LIG    1       24.687 -14.480   4.044  0.00  0.00    -0.004 A 
ATOM      2  C   LIG    1       25.100 -13.180   4.392  0.00  0.00    +0.048 A 
ATOM      3 CL   LIG    1       23.978 -11.994   4.963  0.00  0.00    -0.083 Cl
ATOM      4  C   LIG    1       26.439 -12.795   4.277  0.00  0.00    +0.040 A 
ATOM      5  C   LIG    1       27.379 -13.701   3.797  0.00  0.00    +0.042 A 
ATOM      6 CL   LIG    1       29.028 -13.229   3.654  0.00  0.00    -0.084 Cl
ATOM      7  C   LIG    1       26.993 -14.985   3.425  0.00  0.00    +0.020 A 
ATOM      8  C   LIG    1       25.656 -15.368   3.544  0.00  0.00    +0.009 A 
ENDROOT
BRANCH   1   9
ATOM      9  C   LIG    1       23.240 -14.897   4.146  0.00  0.00    +0.192 C 
BRANCH   9  10
ATOM     10  O   LIG    1       23.115 -16.297   4.369  0.00  0.00    -0.390 OA
ATOM     11  H   LIG    1       24.019 -16.651   4.419  0.00  0.00    +0.210 HD
ENDBRANCH   9  10
ENDBRANCH   1   9
TORSDOF 2
ENDMDL
MODEL 9
REMARK VINA RESULT:      -3.8      5.881      6.704
REMARK  Name = *****
REMARK                            x       y       z     vdW  Elec       q    Type
REMARK                         _______ _______ _______ _____ _____    ______ ____
ROOT
ATOM      1  C   LIG    1       24.734 -14.798   3.970  0.00  0.00    -0.004 A 
ATOM      2  C   LIG    1       25.847 -15.574   3.596  0.00  0.00    +0.048 A 
ATOM      3 CL   LIG    1       25.692 -17.250   3.199  0.00  0.00    -0.083 Cl
ATOM      4  C   LIG    1       27.127 -15.017   3.542  0.00  0.00    +0.040 A 
ATOM      5  C   LIG    1       27.313 -13.679   3.878  0.00  0.00    +0.042 A 
ATOM      6 CL   LIG    1       28.889 -12.991   3.814  0.00  0.00    -0.084 Cl
ATOM      7  C   LIG    1       26.232 -12.896   4.273  0.00  0.00    +0.020 A 
ATOM      8  C   LIG    1       24.954 -13.455   4.322  0.00  0.00    +0.009 A 
ENDROOT
BRANCH   1   9
ATOM      9  C   LIG    1       23.351 -15.398   4.050  0.00  0.00    +0.192 C 
BRANCH   9  10
ATOM     10  O   LIG    1       22.742 -15.141   5.311  0.00  0.00    -0.390 OA
ATOM     11  H   LIG    1       22.473 -14.207   5.302  0.00  0.00    +0.210 HD
ENDBRANCH   9  10
ENDBRANCH   1   9
TORSDOF 2
ENDMDL
