MODEL 1
REMARK VINA RESULT:      -5.7      0.000      0.000
REMARK  Name = *****
REMARK                            x       y       z     vdW  Elec       q    Type
REMARK                         _______ _______ _______ _____ _____    ______ ____
ROOT
ATOM      1  C   LIG    1       31.833 -18.079   9.273  0.00  0.00    +0.226 C 
ATOM      2  N   LIG    1       31.477 -19.361   9.650  0.00  0.00    -0.304 N 
ATOM      3  H   LIG    1       31.492 -19.609  10.636  0.00  0.00    +0.149 HD
ATOM      4  O   LIG    1       31.933 -17.751   8.096  0.00  0.00    -0.275 OA
ENDROOT
BRANCH   1   6
ATOM      5  C   LIG    1       30.805 -16.704  11.112  0.00  0.00    +0.028 C 
ATOM      6  C   LIG    1       32.102 -17.134  10.444  0.00  0.00    +0.126 C 
BRANCH   6   7
ATOM      7  S   LIG    1       33.025 -15.676   9.826  0.00  0.00    -0.166 S 
ATOM      8  H   LIG    1       33.562 -16.272   8.749  0.00  0.00    +0.102 HD
ENDBRANCH   6   7
ENDBRANCH   1   6
BRANCH   2   9
ATOM      9  C   LIG    1       31.150 -20.374   8.651  0.00  0.00    +0.224 C 
BRANCH   9  10
ATOM     10  C   LIG    1       31.326 -21.791   9.179  0.00  0.00    +0.322 C 
ATOM     11  O   LIG    1       30.732 -22.226  10.161  0.00  0.00    -0.249 OA
BRANCH  10  12
ATOM     12  O   LIG    1       32.244 -22.528   8.512  0.00  0.00    -0.479 OA
ATOM     13  H   LIG    1       32.235 -23.455   8.820  0.00  0.00    +0.295 HD
ENDBRANCH  10  12
ENDBRANCH   9  10
ENDBRANCH   2   9
TORSDOF 5
ENDMDL
MODEL 2
REMARK VINA RESULT:      -5.5      3.175      4.558
REMARK  Name = *****
REMARK                            x       y       z     vdW  Elec       q    Type
REMARK                         _______ _______ _______ _____ _____    ______ ____
ROOT
ATOM      1  C   LIG    1       31.279 -19.241   8.335  0.00  0.00    +0.226 C 
ATOM      2  N   LIG    1       31.142 -17.880   8.535  0.00  0.00    -0.304 N 
ATOM      3  H   LIG    1       30.634 -17.328   7.848  0.00  0.00    +0.149 HD
ATOM      4  O   LIG    1       31.965 -19.941   9.072  0.00  0.00    -0.275 OA
ENDROOT
BRANCH   1   6
ATOM      5  C   LIG    1       29.846 -18.651   6.354  0.00  0.00    +0.028 C 
ATOM      6  C   LIG    1       30.523 -19.776   7.120  0.00  0.00    +0.126 C 
BRANCH   6   7
ATOM      7  S   LIG    1       29.288 -21.006   7.687  0.00  0.00    -0.166 S 
ATOM      8  H   LIG    1       29.534 -21.927   6.742  0.00  0.00    +0.102 HD
ENDBRANCH   6   7
ENDBRANCH   1   6
BRANCH   2   9
ATOM      9  C   LIG    1       31.770 -17.220   9.675  0.00  0.00    +0.224 C 
BRANCH   9  10
ATOM     10  C   LIG    1       30.883 -17.227  10.913  0.00  0.00    +0.322 C 
ATOM     11  O   LIG    1       30.347 -16.221  11.367  0.00  0.00    -0.249 OA
BRANCH  10  12
ATOM     12  O   LIG    1       30.777 -18.432  11.520  0.00  0.00    -0.479 OA
ATOM     13  H   LIG    1       30.925 -19.156  10.882  0.00  0.00    +0.295 HD
ENDBRANCH  10  12
ENDBRANCH   9  10
ENDBRANCH   2   9
TORSDOF 5
ENDMDL
MODEL 3
REMARK VINA RESULT:      -5.3      3.723      4.391
REMARK  Name = *****
REMARK                            x       y       z     vdW  Elec       q    Type
REMARK                         _______ _______ _______ _____ _____    ______ ____
ROOT
ATOM      1  C   LIG    1       29.174 -20.089   7.384  0.00  0.00    +0.226 C 
ATOM      2  N   LIG    1       30.535 -20.317   7.463  0.00  0.00    -0.304 N 
ATOM      3  H   LIG    1       31.065 -20.454   6.607  0.00  0.00    +0.149 HD
ATOM      4  O   LIG    1       28.466 -20.018   8.382  0.00  0.00    -0.275 OA
ENDROOT
BRANCH   1   6
ATOM      5  C   LIG    1       28.931 -18.574   5.390  0.00  0.00    +0.028 C 
ATOM      6  C   LIG    1       28.643 -19.955   5.957  0.00  0.00    +0.126 C 
BRANCH   6   7
ATOM      7  S   LIG    1       26.841 -20.288   5.963  0.00  0.00    -0.166 S 
ATOM      8  H   LIG    1       26.451 -19.062   5.576  0.00  0.00    +0.102 HD
ENDBRANCH   6   7
ENDBRANCH   1   6
BRANCH   2   9
ATOM      9  C   LIG    1       31.204 -20.430   8.756  0.00  0.00    +0.224 C 
BRANCH   9  10
ATOM     10  C   LIG    1       31.332 -21.874   9.222  0.00  0.00    +0.322 C 
ATOM     11  O   LIG    1       30.729 -22.330  10.188  0.00  0.00    -0.249 OA
BRANCH  10  12
ATOM     12  O   LIG    1       32.220 -22.613   8.517  0.00  0.00    -0.479 OA
ATOM     13  H   LIG    1       32.904 -22.987   9.105  0.00  0.00    +0.295 HD
ENDBRANCH  10  12
ENDBRANCH   9  10
ENDBRANCH   2   9
TORSDOF 5
ENDMDL
MODEL 4
REMARK VINA RESULT:      -5.3      4.334      5.206
REMARK  Name = *****
REMARK                            x       y       z     vdW  Elec       q    Type
REMARK                         _______ _______ _______ _____ _____    ______ ____
ROOT
ATOM      1  C   LIG    1       28.122 -20.759   7.728  0.00  0.00    +0.226 C 
ATOM      2  N   LIG    1       29.378 -21.285   7.492  0.00  0.00    -0.304 N 
ATOM      3  H   LIG    1       29.476 -22.059   6.839  0.00  0.00    +0.149 HD
ATOM      4  O   LIG    1       27.926 -19.897   8.577  0.00  0.00    -0.275 OA
ENDROOT
BRANCH   1   6
ATOM      5  C   LIG    1       26.474 -20.333   5.875  0.00  0.00    +0.028 C 
ATOM      6  C   LIG    1       27.018 -21.359   6.857  0.00  0.00    +0.126 C 
BRANCH   6   7
ATOM      7  S   LIG    1       25.681 -21.983   7.945  0.00  0.00    -0.166 S 
ATOM      8  H   LIG    1       24.993 -22.635   6.994  0.00  0.00    +0.102 HD
ENDBRANCH   6   7
ENDBRANCH   1   6
BRANCH   2   9
ATOM      9  C   LIG    1       30.547 -20.792   8.214  0.00  0.00    +0.224 C 
BRANCH   9  10
ATOM     10  C   LIG    1       31.158 -21.848   9.124  0.00  0.00    +0.322 C 
ATOM     11  O   LIG    1       30.765 -22.068  10.266  0.00  0.00    -0.249 OA
BRANCH  10  12
ATOM     12  O   LIG    1       32.223 -22.495   8.596  0.00  0.00    -0.479 OA
ATOM     13  H   LIG    1       31.955 -23.358   8.225  0.00  0.00    +0.295 HD
ENDBRANCH  10  12
ENDBRANCH   9  10
ENDBRANCH   2   9
TORSDOF 5
ENDMDL
MODEL 5
REMARK VINA RESULT:      -5.2      2.200      2.312
REMARK  Name = *****
REMARK                            x       y       z     vdW  Elec       q    Type
REMARK                         _______ _______ _______ _____ _____    ______ ____
ROOT
ATOM      1  C   LIG    1       31.532 -18.622   9.226  0.00  0.00    +0.226 C 
ATOM      2  N   LIG    1       30.608 -18.249   8.268  0.00  0.00    -0.304 N 
ATOM      3  H   LIG    1       30.086 -17.385   8.393  0.00  0.00    +0.149 HD
ATOM      4  O   LIG    1       32.116 -19.699   9.182  0.00  0.00    -0.275 OA
ENDROOT
BRANCH   1   6
ATOM      5  C   LIG    1       30.420 -17.220  10.995  0.00  0.00    +0.028 C 
ATOM      6  C   LIG    1       31.738 -17.589  10.333  0.00  0.00    +0.126 C 
BRANCH   6   7
ATOM      7  S   LIG    1       32.538 -16.105   9.614  0.00  0.00    -0.166 S 
ATOM      8  H   LIG    1       31.576 -15.821   8.722  0.00  0.00    +0.102 HD
ENDBRANCH   6   7
ENDBRANCH   1   6
BRANCH   2   9
ATOM      9  C   LIG    1       30.324 -19.108   7.122  0.00  0.00    +0.224 C 
BRANCH   9  10
ATOM     10  C   LIG    1       29.223 -20.119   7.410  0.00  0.00    +0.322 C 
ATOM     11  O   LIG    1       28.316 -19.922   8.213  0.00  0.00    -0.249 OA
BRANCH  10  12
ATOM     12  O   LIG    1       29.354 -21.293   6.750  0.00  0.00    -0.479 OA
ATOM     13  H   LIG    1       30.241 -21.675   6.894  0.00  0.00    +0.295 HD
ENDBRANCH  10  12
ENDBRANCH   9  10
ENDBRANCH   2   9
TORSDOF 5
ENDMDL
MODEL 6
REMARK VINA RESULT:      -5.0      3.650      4.773
REMARK  Name = *****
REMARK                            x       y       z     vdW  Elec       q    Type
REMARK                         _______ _______ _______ _____ _____    ______ ____
ROOT
ATOM      1  C   LIG    1       29.480 -19.120   6.614  0.00  0.00    +0.226 C 
ATOM      2  N   LIG    1       29.725 -19.070   7.973  0.00  0.00    -0.304 N 
ATOM      3  H   LIG    1       29.286 -19.756   8.581  0.00  0.00    +0.149 HD
ATOM      4  O   LIG    1       29.898 -18.261   5.845  0.00  0.00    -0.275 OA
ENDROOT
BRANCH   1   6
ATOM      5  C   LIG    1       27.341 -19.867   5.519  0.00  0.00    +0.028 C 
ATOM      6  C   LIG    1       28.639 -20.317   6.172  0.00  0.00    +0.126 C 
BRANCH   6   7
ATOM      7  S   LIG    1       28.296 -21.369   7.633  0.00  0.00    -0.166 S 
ATOM      8  H   LIG    1       29.520 -21.286   8.180  0.00  0.00    +0.102 HD
ENDBRANCH   6   7
ENDBRANCH   1   6
BRANCH   2   9
ATOM      9  C   LIG    1       30.546 -18.010   8.551  0.00  0.00    +0.224 C 
BRANCH   9  10
ATOM     10  C   LIG    1       31.672 -18.553   9.421  0.00  0.00    +0.322 C 
ATOM     11  O   LIG    1       32.234 -17.894  10.291  0.00  0.00    -0.249 OA
BRANCH  10  12
ATOM     12  O   LIG    1       32.054 -19.815   9.118  0.00  0.00    -0.479 OA
ATOM     13  H   LIG    1       32.421 -20.264   9.904  0.00  0.00    +0.295 HD
ENDBRANCH  10  12
ENDBRANCH   9  10
ENDBRANCH   2   9
TORSDOF 5
ENDMDL
MODEL 7
REMARK VINA RESULT:      -5.0      3.760      5.071
REMARK  Name = *****
REMARK                            x       y       z     vdW  Elec       q    Type
REMARK                         _______ _______ _______ _____ _____    ______ ____
ROOT
ATOM      1  C   LIG    1       28.938 -20.455   7.707  0.00  0.00    +0.226 C 
ATOM      2  N   LIG    1       29.631 -19.490   6.999  0.00  0.00    -0.304 N 
ATOM      3  H   LIG    1       29.113 -18.834   6.420  0.00  0.00    +0.149 HD
ATOM      4  O   LIG    1       29.511 -21.335   8.339  0.00  0.00    -0.275 OA
ENDROOT
BRANCH   1   6
ATOM      5  C   LIG    1       26.727 -21.497   8.301  0.00  0.00    +0.028 C 
ATOM      6  C   LIG    1       27.418 -20.331   7.613  0.00  0.00    +0.126 C 
BRANCH   6   7
ATOM      7  S   LIG    1       26.941 -20.249   5.845  0.00  0.00    -0.166 S 
ATOM      8  H   LIG    1       25.614 -20.335   6.034  0.00  0.00    +0.102 HD
ENDBRANCH   6   7
ENDBRANCH   1   6
BRANCH   2   9
ATOM      9  C   LIG    1       31.090 -19.447   7.018  0.00  0.00    +0.224 C 
BRANCH   9  10
ATOM     10  C   LIG    1       31.635 -18.732   8.247  0.00  0.00    +0.322 C 
ATOM     11  O   LIG    1       31.786 -17.515   8.312  0.00  0.00    -0.249 OA
BRANCH  10  12
ATOM     12  O   LIG    1       32.004 -19.554   9.257  0.00  0.00    -0.479 OA
ATOM     13  H   LIG    1       31.634 -20.449   9.128  0.00  0.00    +0.295 HD
ENDBRANCH  10  12
ENDBRANCH   9  10
ENDBRANCH   2   9
TORSDOF 5
ENDMDL
MODEL 8
REMARK VINA RESULT:      -5.0      3.326      4.619
REMARK  Name = *****
REMARK                            x       y       z     vdW  Elec       q    Type
REMARK                         _______ _______ _______ _____ _____    ______ ____
ROOT
ATOM      1  C   LIG    1       30.173 -19.046   7.670  0.00  0.00    +0.226 C 
ATOM      2  N   LIG    1       30.232 -18.584   8.971  0.00  0.00    -0.304 N 
ATOM      3  H   LIG    1       29.982 -19.211   9.731  0.00  0.00    +0.149 HD
ATOM      4  O   LIG    1       30.364 -18.310   6.708  0.00  0.00    -0.275 OA
ENDROOT
BRANCH   1   6
ATOM      5  C   LIG    1       28.343 -20.772   7.705  0.00  0.00    +0.028 C 
ATOM      6  C   LIG    1       29.836 -20.532   7.547  0.00  0.00    +0.126 C 
BRANCH   6   7
ATOM      7  S   LIG    1       30.778 -21.458   8.817  0.00  0.00    -0.166 S 
ATOM      8  H   LIG    1       31.531 -20.430   9.239  0.00  0.00    +0.102 HD
ENDBRANCH   6   7
ENDBRANCH   1   6
BRANCH   2   9
ATOM      9  C   LIG    1       30.581 -17.196   9.261  0.00  0.00    +0.224 C 
BRANCH   9  10
ATOM     10  C   LIG    1       32.064 -17.019   9.561  0.00  0.00    +0.322 C 
ATOM     11  O   LIG    1       32.653 -17.630  10.448  0.00  0.00    -0.249 OA
BRANCH  10  12
ATOM     12  O   LIG    1       32.680 -16.079   8.808  0.00  0.00    -0.479 OA
ATOM     13  H   LIG    1       33.357 -16.485   8.233  0.00  0.00    +0.295 HD
ENDBRANCH  10  12
ENDBRANCH   9  10
ENDBRANCH   2   9
TORSDOF 5
ENDMDL
MODEL 9
REMARK VINA RESULT:      -5.0      8.984      9.506
REMARK  Name = *****
REMARK                            x       y       z     vdW  Elec       q    Type
REMARK                         _______ _______ _______ _____ _____    ______ ____
ROOT
ATOM      1  C   LIG    1       24.354 -21.794   5.399  0.00  0.00    +0.226 C 
ATOM      2  N   LIG    1       24.691 -23.042   4.910  0.00  0.00    -0.304 N 
ATOM      3  H   LIG    1       24.603 -23.224   3.913  0.00  0.00    +0.149 HD
ATOM      4  O   LIG    1       24.342 -21.547   6.599  0.00  0.00    -0.275 OA
ENDROOT
BRANCH   1   6
ATOM      5  C   LIG    1       25.200 -19.965   3.893  0.00  0.00    +0.028 C 
ATOM      6  C   LIG    1       23.987 -20.776   4.319  0.00  0.00    +0.126 C 
BRANCH   6   7
ATOM      7  S   LIG    1       22.669 -19.679   4.965  0.00  0.00    -0.166 S 
ATOM      8  H   LIG    1       23.282 -19.354   6.115  0.00  0.00    +0.102 HD
ENDBRANCH   6   7
ENDBRANCH   1   6
BRANCH   2   9
ATOM      9  C   LIG    1       25.104 -24.115   5.810  0.00  0.00    +0.224 C 
BRANCH   9  10
ATOM     10  C   LIG    1       23.939 -24.996   6.241  0.00  0.00    +0.322 C 
ATOM     11  O   LIG    1       23.950 -26.220   6.162  0.00  0.00    -0.249 OA
BRANCH  10  12
ATOM     12  O   LIG    1       22.850 -24.315   6.667  0.00  0.00    -0.479 OA
ATOM     13  H   LIG    1       22.797 -24.321   7.642  0.00  0.00    +0.295 HD
ENDBRANCH  10  12
ENDBRANCH   9  10
ENDBRANCH   2   9
TORSDOF 5
ENDMDL
