MODEL 1
REMARK VINA RESULT:      -8.8      0.000      0.000
REMARK  Name = *****
REMARK                            x       y       z     vdW  Elec       q    Type
REMARK                         _______ _______ _______ _____ _____    ______ ____
ROOT
ATOM      1  C   UNK A  1       26.774 -21.965   7.358  0.00  0.00    +0.141 C 
ENDROOT
BRANCH   1   2
ATOM      2  C   UNK A  1       25.440 -21.079   7.519  0.00  0.00    +0.233 C 
ATOM      3  N   PRO A  2       24.612 -20.716   6.466  0.00  0.00    -0.287 N 
ATOM      4  CA  PRO A  2       24.751 -21.082   5.049  0.00  0.00    +0.184 C 
ATOM      5  CB  PRO A  2       23.320 -21.191   4.562  0.00  0.00    +0.035 C 
ATOM      6  CG  PRO A  2       22.608 -20.080   5.317  0.00  0.00    +0.021 C 
ATOM      7  CD  PRO A  2       23.352 -19.972   6.656  0.00  0.00    +0.109 C 
ATOM      8  O   UNK A  1       25.154 -20.650   8.663  0.00  0.00    -0.274 OA
BRANCH   4   9
ATOM      9  C   PRO A  2       25.514 -19.997   4.298  0.00  0.00    +0.326 C 
ATOM     10  O   PRO A  2       24.960 -19.200   3.485  0.00  0.00    -0.249 OA
BRANCH   9  11
ATOM     11  OXT PRO A  2       26.817 -19.865   4.580  0.00  0.00    -0.479 OA
ATOM     12  HXT PRO A  2       27.169 -20.712   4.922  0.00  0.00    +0.295 HD
ENDBRANCH   9  11
ENDBRANCH   4   9
ENDBRANCH   1   2
BRANCH   1  13
ATOM     13  N   UNK A  1       27.855 -21.467   8.223  0.00  0.00    -0.293 NA
ATOM     14  H   UNK A  1       27.896 -22.046   9.050  0.00  0.00    +0.123 HD
BRANCH  13  15
ATOM     15  C   UNK A  1       29.238 -21.068   7.857  0.00  0.00    +0.164 C 
BRANCH  15  16
ATOM     16  C   UNK A  1       30.409 -21.512   8.748  0.00  0.00    +0.322 C 
ATOM     17  O   UNK A  1       30.306 -22.121   9.746  0.00  0.00    -0.249 OA
BRANCH  16  18
ATOM     18  O   UNK A  1       31.622 -21.240   8.212  0.00  0.00    -0.479 OA
ATOM     19  H   UNK A  1       31.555 -21.644   7.327  0.00  0.00    +0.295 HD
ENDBRANCH  16  18
ENDBRANCH  15  16
BRANCH  15  20
ATOM     20  C   UNK A  1       29.566 -19.686   7.278  0.00  0.00    +0.035 C 
BRANCH  20  21
ATOM     21  C   UNK A  1       29.490 -18.412   8.126  0.00  0.00    +0.037 C 
BRANCH  21  22
ATOM     22  C   UNK A  1       30.487 -17.764   9.019  0.00  0.00    -0.047 A 
ATOM     23  C   UNK A  1       31.860 -17.449   8.705  0.00  0.00    +0.003 A 
ATOM     24  C   UNK A  1       32.693 -16.928   9.679  0.00  0.00    +0.000 A 
ATOM     25  C   UNK A  1       32.151 -16.735  10.942  0.00  0.00    +0.000 A 
ATOM     26  C   UNK A  1       30.811 -17.036  11.222  0.00  0.00    +0.000 A 
ATOM     27  C   UNK A  1       29.991 -17.568  10.269  0.00  0.00    +0.003 A 
ENDBRANCH  21  22
ENDBRANCH  20  21
ENDBRANCH  15  20
ENDBRANCH  13  15
ENDBRANCH   1  13
BRANCH   1  28
ATOM     28  C   UNK A  1       26.296 -23.447   7.749  0.00  0.00    +0.028 C 
BRANCH  28  29
ATOM     29  C   UNK A  1       25.879 -24.246   6.554  0.00  0.00    +0.003 C 
BRANCH  29  30
ATOM     30  C   UNK A  1       25.248 -25.676   6.225  0.00  0.00    +0.015 C 
BRANCH  30  31
ATOM     31  C   UNK A  1       25.787 -26.653   5.026  0.00  0.00    +0.077 C 
BRANCH  31  32
ATOM     32  N   UNK A  1       27.185 -27.095   5.089  0.00  0.00    -0.330 NA
ATOM     33  H   UNK A  1       27.689 -26.435   5.699  0.00  0.00    +0.118 HD
ATOM     34  H   UNK A  1       27.614 -26.946   4.176  0.00  0.00    +0.118 HD
ENDBRANCH  31  32
ENDBRANCH  30  31
ENDBRANCH  29  30
ENDBRANCH  28  29
ENDBRANCH   1  28
TORSDOF 15
ENDMDL
MODEL 2
REMARK VINA RESULT:      -8.6      2.145      2.818
REMARK  Name = *****
REMARK                            x       y       z     vdW  Elec       q    Type
REMARK                         _______ _______ _______ _____ _____    ______ ____
ROOT
ATOM      1  C   UNK A  1       24.757 -23.031   5.759  0.00  0.00    +0.141 C 
ENDROOT
BRANCH   1   2
ATOM      2  C   UNK A  1       23.747 -21.811   6.048  0.00  0.00    +0.233 C 
ATOM      3  N   PRO A  2       23.619 -20.695   5.234  0.00  0.00    -0.287 N 
ATOM      4  CA  PRO A  2       24.319 -20.422   3.971  0.00  0.00    +0.184 C 
ATOM      5  CB  PRO A  2       23.302 -19.648   3.155  0.00  0.00    +0.035 C 
ATOM      6  CG  PRO A  2       22.596 -18.794   4.194  0.00  0.00    +0.021 C 
ATOM      7  CD  PRO A  2       22.626 -19.632   5.481  0.00  0.00    +0.109 C 
ATOM      8  O   UNK A  1       23.065 -21.850   7.100  0.00  0.00    -0.274 OA
BRANCH   4   9
ATOM      9  C   PRO A  2       25.571 -19.591   4.232  0.00  0.00    +0.326 C 
ATOM     10  O   PRO A  2       26.385 -19.845   5.168  0.00  0.00    -0.249 OA
BRANCH   9  11
ATOM     11  OXT PRO A  2       25.826 -18.592   3.377  0.00  0.00    -0.479 OA
ATOM     12  HXT PRO A  2       26.740 -18.266   3.511  0.00  0.00    +0.295 HD
ENDBRANCH   9  11
ENDBRANCH   4   9
ENDBRANCH   1   2
BRANCH   1  13
ATOM     13  N   UNK A  1       26.145 -22.665   6.083  0.00  0.00    -0.293 NA
ATOM     14  H   UNK A  1       26.464 -21.987   5.404  0.00  0.00    +0.123 HD
BRANCH  13  15
ATOM     15  C   UNK A  1       26.741 -22.329   7.401  0.00  0.00    +0.164 C 
BRANCH  15  16
ATOM     16  C   UNK A  1       25.940 -21.468   8.390  0.00  0.00    +0.322 C 
ATOM     17  O   UNK A  1       25.620 -21.800   9.470  0.00  0.00    -0.249 OA
BRANCH  16  18
ATOM     18  O   UNK A  1       25.726 -20.205   7.951  0.00  0.00    -0.479 OA
ATOM     19  H   UNK A  1       26.145 -20.217   7.070  0.00  0.00    +0.295 HD
ENDBRANCH  16  18
ENDBRANCH  15  16
BRANCH  15  20
ATOM     20  C   UNK A  1       28.230 -21.999   7.567  0.00  0.00    +0.035 C 
BRANCH  20  21
ATOM     21  C   UNK A  1       28.862 -20.757   6.932  0.00  0.00    +0.037 C 
BRANCH  21  22
ATOM     22  C   UNK A  1       29.767 -19.717   7.492  0.00  0.00    -0.047 A 
ATOM     23  C   UNK A  1       31.150 -19.494   7.149  0.00  0.00    +0.003 A 
ATOM     24  C   UNK A  1       31.888 -18.542   7.829  0.00  0.00    +0.000 A 
ATOM     25  C   UNK A  1       31.243 -17.836   8.835  0.00  0.00    +0.000 A 
ATOM     26  C   UNK A  1       29.895 -18.061   9.143  0.00  0.00    +0.000 A 
ATOM     27  C   UNK A  1       29.168 -19.013   8.488  0.00  0.00    +0.003 A 
ENDBRANCH  21  22
ENDBRANCH  20  21
ENDBRANCH  15  20
ENDBRANCH  13  15
ENDBRANCH   1  13
BRANCH   1  28
ATOM     28  C   UNK A  1       24.195 -24.217   6.684  0.00  0.00    +0.028 C 
BRANCH  28  29
ATOM     29  C   UNK A  1       24.193 -25.538   5.979  0.00  0.00    +0.003 C 
BRANCH  29  30
ATOM     30  C   UNK A  1       24.562 -27.062   6.281  0.00  0.00    +0.015 C 
BRANCH  30  31
ATOM     31  C   UNK A  1       24.445 -28.262   5.172  0.00  0.00    +0.077 C 
BRANCH  31  32
ATOM     32  N   UNK A  1       23.407 -29.278   5.380  0.00  0.00    -0.330 NA
ATOM     33  H   UNK A  1       22.496 -28.799   5.346  0.00  0.00    +0.118 HD
ATOM     34  H   UNK A  1       23.463 -29.607   6.344  0.00  0.00    +0.118 HD
ENDBRANCH  31  32
ENDBRANCH  30  31
ENDBRANCH  29  30
ENDBRANCH  28  29
ENDBRANCH   1  28
TORSDOF 15
ENDMDL
MODEL 3
REMARK VINA RESULT:      -8.4      1.303      1.398
REMARK  Name = *****
REMARK                            x       y       z     vdW  Elec       q    Type
REMARK                         _______ _______ _______ _____ _____    ______ ____
ROOT
ATOM      1  C   UNK A  1       26.877 -21.807   7.340  0.00  0.00    +0.141 C 
ENDROOT
BRANCH   1   2
ATOM      2  C   UNK A  1       25.482 -21.015   7.470  0.00  0.00    +0.233 C 
ATOM      3  N   PRO A  2       24.676 -20.671   6.394  0.00  0.00    -0.287 N 
ATOM      4  CA  PRO A  2       24.898 -20.978   4.974  0.00  0.00    +0.184 C 
ATOM      5  CB  PRO A  2       23.499 -21.161   4.421  0.00  0.00    +0.035 C 
ATOM      6  CG  PRO A  2       22.685 -20.127   5.179  0.00  0.00    +0.021 C 
ATOM      7  CD  PRO A  2       23.363 -20.017   6.552  0.00  0.00    +0.109 C 
ATOM      8  O   UNK A  1       25.121 -20.646   8.613  0.00  0.00    -0.274 OA
BRANCH   4   9
ATOM      9  C   PRO A  2       25.618 -19.819   4.292  0.00  0.00    +0.326 C 
ATOM     10  O   PRO A  2       25.029 -18.983   3.546  0.00  0.00    -0.249 OA
BRANCH   9  11
ATOM     11  OXT PRO A  2       26.922 -19.670   4.565  0.00  0.00    -0.479 OA
ATOM     12  HXT PRO A  2       27.068 -19.738   5.530  0.00  0.00    +0.295 HD
ENDBRANCH   9  11
ENDBRANCH   4   9
ENDBRANCH   1   2
BRANCH   1  13
ATOM     13  N   UNK A  1       27.891 -21.259   8.255  0.00  0.00    -0.293 NA
ATOM     14  H   UNK A  1       28.024 -21.911   9.014  0.00  0.00    +0.123 HD
BRANCH  13  15
ATOM     15  C   UNK A  1       29.201 -20.634   7.934  0.00  0.00    +0.164 C 
BRANCH  15  16
ATOM     16  C   UNK A  1       30.468 -21.144   8.638  0.00  0.00    +0.322 C 
ATOM     17  O   UNK A  1       30.496 -21.649   9.697  0.00  0.00    -0.249 OA
BRANCH  16  18
ATOM     18  O   UNK A  1       31.576 -21.072   7.864  0.00  0.00    -0.479 OA
ATOM     19  H   UNK A  1       32.002 -21.935   8.028  0.00  0.00    +0.295 HD
ENDBRANCH  16  18
ENDBRANCH  15  16
BRANCH  15  20
ATOM     20  C   UNK A  1       29.353 -19.127   7.693  0.00  0.00    +0.035 C 
BRANCH  20  21
ATOM     21  C   UNK A  1       30.673 -18.394   7.948  0.00  0.00    +0.037 C 
BRANCH  21  22
ATOM     22  C   UNK A  1       31.124 -17.545   9.083  0.00  0.00    -0.047 A 
ATOM     23  C   UNK A  1       32.283 -16.686   9.119  0.00  0.00    +0.003 A 
ATOM     24  C   UNK A  1       32.623 -16.028  10.287  0.00  0.00    +0.000 A 
ATOM     25  C   UNK A  1       31.815 -16.240  11.395  0.00  0.00    +0.000 A 
ATOM     26  C   UNK A  1       30.687 -17.070  11.335  0.00  0.00    +0.000 A 
ATOM     27  C   UNK A  1       30.358 -17.736  10.189  0.00  0.00    +0.003 A 
ENDBRANCH  21  22
ENDBRANCH  20  21
ENDBRANCH  15  20
ENDBRANCH  13  15
ENDBRANCH   1  13
BRANCH   1  28
ATOM     28  C   UNK A  1       26.487 -23.326   7.682  0.00  0.00    +0.028 C 
BRANCH  28  29
ATOM     29  C   UNK A  1       26.078 -24.098   6.467  0.00  0.00    +0.003 C 
BRANCH  29  30
ATOM     30  C   UNK A  1       24.739 -24.606   5.759  0.00  0.00    +0.015 C 
BRANCH  30  31
ATOM     31  C   UNK A  1       23.324 -24.836   6.551  0.00  0.00    +0.077 C 
BRANCH  31  32
ATOM     32  N   UNK A  1       22.394 -23.702   6.619  0.00  0.00    -0.330 NA
ATOM     33  H   UNK A  1       21.548 -23.967   6.094  0.00  0.00    +0.118 HD
ATOM     34  H   UNK A  1       22.780 -22.933   6.070  0.00  0.00    +0.118 HD
ENDBRANCH  31  32
ENDBRANCH  30  31
ENDBRANCH  29  30
ENDBRANCH  28  29
ENDBRANCH   1  28
TORSDOF 15
ENDMDL
MODEL 4
REMARK VINA RESULT:      -7.9      2.988      6.561
REMARK  Name = *****
REMARK                            x       y       z     vdW  Elec       q    Type
REMARK                         _______ _______ _______ _____ _____    ______ ____
ROOT
ATOM      1  C   UNK A  1       25.809 -20.357   6.898  0.00  0.00    +0.141 C 
ENDROOT
BRANCH   1   2
ATOM      2  C   UNK A  1       27.111 -21.242   7.232  0.00  0.00    +0.233 C 
ATOM      3  N   PRO A  2       28.380 -20.718   7.434  0.00  0.00    -0.287 N 
ATOM      4  CA  PRO A  2       28.778 -19.303   7.425  0.00  0.00    +0.184 C 
ATOM      5  CB  PRO A  2       29.893 -19.236   8.448  0.00  0.00    +0.035 C 
ATOM      6  CG  PRO A  2       30.623 -20.554   8.259  0.00  0.00    +0.021 C 
ATOM      7  CD  PRO A  2       29.538 -21.547   7.819  0.00  0.00    +0.109 C 
ATOM      8  O   UNK A  1       26.980 -22.489   7.267  0.00  0.00    -0.274 OA
BRANCH   4   9
ATOM      9  C   PRO A  2       29.270 -18.904   6.038  0.00  0.00    +0.326 C 
ATOM     10  O   PRO A  2       30.400 -18.373   5.833  0.00  0.00    -0.249 OA
BRANCH   9  11
ATOM     11  OXT PRO A  2       28.471 -19.198   5.003  0.00  0.00    -0.479 OA
ATOM     12  HXT PRO A  2       28.891 -19.885   4.445  0.00  0.00    +0.295 HD
ENDBRANCH   9  11
ENDBRANCH   4   9
ENDBRANCH   1   2
BRANCH   1  13
ATOM     13  N   UNK A  1       25.388 -20.530   5.498  0.00  0.00    -0.293 NA
ATOM     14  H   UNK A  1       25.115 -21.493   5.363  0.00  0.00    +0.123 HD
BRANCH  13  15
ATOM     15  C   UNK A  1       24.503 -19.668   4.673  0.00  0.00    +0.164 C 
BRANCH  15  16
ATOM     16  C   UNK A  1       23.029 -20.061   4.493  0.00  0.00    +0.322 C 
ATOM     17  O   UNK A  1       22.114 -19.341   4.642  0.00  0.00    -0.249 OA
BRANCH  16  18
ATOM     18  O   UNK A  1       22.863 -21.316   4.014  0.00  0.00    -0.479 OA
ATOM     19  H   UNK A  1       22.842 -21.850   4.830  0.00  0.00    +0.295 HD
ENDBRANCH  16  18
ENDBRANCH  15  16
BRANCH  15  20
ATOM     20  C   UNK A  1       24.987 -18.993   3.384  0.00  0.00    +0.035 C 
BRANCH  20  21
ATOM     21  C   UNK A  1       25.909 -17.770   3.405  0.00  0.00    +0.037 C 
BRANCH  21  22
ATOM     22  C   UNK A  1       25.621 -16.323   3.588  0.00  0.00    -0.047 A 
ATOM     23  C   UNK A  1       24.343 -15.722   3.883  0.00  0.00    +0.003 A 
ATOM     24  C   UNK A  1       24.218 -14.345   3.931  0.00  0.00    +0.000 A 
ATOM     25  C   UNK A  1       25.358 -13.594   3.682  0.00  0.00    +0.000 A 
ATOM     26  C   UNK A  1       26.592 -14.198   3.409  0.00  0.00    +0.000 A 
ATOM     27  C   UNK A  1       26.716 -15.557   3.341  0.00  0.00    +0.003 A 
ENDBRANCH  21  22
ENDBRANCH  20  21
ENDBRANCH  15  20
ENDBRANCH  13  15
ENDBRANCH   1  13
BRANCH   1  28
ATOM     28  C   UNK A  1       24.713 -20.881   7.946  0.00  0.00    +0.028 C 
BRANCH  28  29
ATOM     29  C   UNK A  1       23.626 -21.672   7.288  0.00  0.00    +0.003 C 
BRANCH  29  30
ATOM     30  C   UNK A  1       23.270 -23.198   6.976  0.00  0.00    +0.015 C 
BRANCH  30  31
ATOM     31  C   UNK A  1       24.217 -24.186   6.077  0.00  0.00    +0.077 C 
BRANCH  31  32
ATOM     32  N   UNK A  1       24.933 -23.590   4.943  0.00  0.00    -0.330 NA
ATOM     33  H   UNK A  1       24.238 -23.100   4.363  0.00  0.00    +0.118 HD
ATOM     34  H   UNK A  1       25.260 -24.340   4.334  0.00  0.00    +0.118 HD
ENDBRANCH  31  32
ENDBRANCH  30  31
ENDBRANCH  29  30
ENDBRANCH  28  29
ENDBRANCH   1  28
TORSDOF 15
ENDMDL
MODEL 5
REMARK VINA RESULT:      -7.9      1.644      2.127
REMARK  Name = *****
REMARK                            x       y       z     vdW  Elec       q    Type
REMARK                         _______ _______ _______ _____ _____    ______ ____
ROOT
ATOM      1  C   UNK A  1       26.609 -21.288   7.338  0.00  0.00    +0.141 C 
ENDROOT
BRANCH   1   2
ATOM      2  C   UNK A  1       25.089 -20.759   7.328  0.00  0.00    +0.233 C 
ATOM      3  N   PRO A  2       24.282 -20.725   6.199  0.00  0.00    -0.287 N 
ATOM      4  CA  PRO A  2       24.618 -21.181   4.843  0.00  0.00    +0.184 C 
ATOM      5  CB  PRO A  2       23.301 -21.698   4.299  0.00  0.00    +0.035 C 
ATOM      6  CG  PRO A  2       22.280 -20.737   4.883  0.00  0.00    +0.021 C 
ATOM      7  CD  PRO A  2       22.867 -20.311   6.237  0.00  0.00    +0.109 C 
ATOM      8  O   UNK A  1       24.617 -20.307   8.399  0.00  0.00    -0.274 OA
BRANCH   4   9
ATOM      9  C   PRO A  2       25.145 -20.016   4.012  0.00  0.00    +0.326 C 
ATOM     10  O   PRO A  2       26.054 -19.234   4.417  0.00  0.00    -0.249 OA
BRANCH   9  11
ATOM     11  OXT PRO A  2       24.647 -19.879   2.775  0.00  0.00    -0.479 OA
ATOM     12  HXT PRO A  2       25.246 -20.303   2.127  0.00  0.00    +0.295 HD
ENDBRANCH   9  11
ENDBRANCH   4   9
ENDBRANCH   1   2
BRANCH   1  13
ATOM     13  N   UNK A  1       27.500 -20.343   8.031  0.00  0.00    -0.293 NA
ATOM     14  H   UNK A  1       27.525 -20.587   9.011  0.00  0.00    +0.123 HD
BRANCH  13  15
ATOM     15  C   UNK A  1       28.845 -19.859   7.630  0.00  0.00    +0.164 C 
BRANCH  15  16
ATOM     16  C   UNK A  1       29.044 -19.273   6.224  0.00  0.00    +0.322 C 
ATOM     17  O   UNK A  1       29.647 -18.296   5.977  0.00  0.00    -0.249 OA
BRANCH  16  18
ATOM     18  O   UNK A  1       28.553 -20.062   5.239  0.00  0.00    -0.479 OA
ATOM     19  H   UNK A  1       28.193 -19.410   4.609  0.00  0.00    +0.295 HD
ENDBRANCH  16  18
ENDBRANCH  15  16
BRANCH  15  20
ATOM     20  C   UNK A  1       30.133 -20.586   8.038  0.00  0.00    +0.035 C 
BRANCH  20  21
ATOM     21  C   UNK A  1       31.320 -19.845   8.662  0.00  0.00    +0.037 C 
BRANCH  21  22
ATOM     22  C   UNK A  1       31.395 -18.565   9.416  0.00  0.00    -0.047 A 
ATOM     23  C   UNK A  1       30.619 -18.191  10.573  0.00  0.00    +0.003 A 
ATOM     24  C   UNK A  1       30.738 -16.921  11.108  0.00  0.00    +0.000 A 
ATOM     25  C   UNK A  1       31.619 -16.048  10.485  0.00  0.00    +0.000 A 
ATOM     26  C   UNK A  1       32.372 -16.437   9.369  0.00  0.00    +0.000 A 
ATOM     27  C   UNK A  1       32.243 -17.683   8.825  0.00  0.00    +0.003 A 
ENDBRANCH  21  22
ENDBRANCH  20  21
ENDBRANCH  15  20
ENDBRANCH  13  15
ENDBRANCH   1  13
BRANCH   1  28
ATOM     28  C   UNK A  1       26.513 -22.709   8.078  0.00  0.00    +0.028 C 
BRANCH  28  29
ATOM     29  C   UNK A  1       25.889 -23.761   7.215  0.00  0.00    +0.003 C 
BRANCH  29  30
ATOM     30  C   UNK A  1       24.433 -24.293   6.832  0.00  0.00    +0.015 C 
BRANCH  30  31
ATOM     31  C   UNK A  1       24.146 -25.371   5.632  0.00  0.00    +0.077 C 
BRANCH  31  32
ATOM     32  N   UNK A  1       24.955 -25.257   4.412  0.00  0.00    -0.330 NA
ATOM     33  H   UNK A  1       24.806 -24.313   4.031  0.00  0.00    +0.118 HD
ATOM     34  H   UNK A  1       24.554 -25.865   3.698  0.00  0.00    +0.118 HD
ENDBRANCH  31  32
ENDBRANCH  30  31
ENDBRANCH  29  30
ENDBRANCH  28  29
ENDBRANCH   1  28
TORSDOF 15
ENDMDL
MODEL 6
REMARK VINA RESULT:      -7.8      3.116      7.691
REMARK  Name = *****
REMARK                            x       y       z     vdW  Elec       q    Type
REMARK                         _______ _______ _______ _____ _____    ______ ____
ROOT
ATOM      1  C   UNK A  1       25.807 -21.124   6.879  0.00  0.00    +0.141 C 
ENDROOT
BRANCH   1   2
ATOM      2  C   UNK A  1       25.797 -20.211   5.553  0.00  0.00    +0.233 C 
ATOM      3  N   PRO A  2       24.645 -19.754   4.929  0.00  0.00    -0.287 N 
ATOM      4  CA  PRO A  2       23.253 -19.964   5.350  0.00  0.00    +0.184 C 
ATOM      5  CB  PRO A  2       22.550 -18.692   4.924  0.00  0.00    +0.035 C 
ATOM      6  CG  PRO A  2       23.230 -18.339   3.612  0.00  0.00    +0.021 C 
ATOM      7  CD  PRO A  2       24.670 -18.851   3.762  0.00  0.00    +0.109 C 
ATOM      8  O   UNK A  1       26.900 -19.932   5.024  0.00  0.00    -0.274 OA
BRANCH   4   9
ATOM      9  C   PRO A  2       22.670 -21.185   4.647  0.00  0.00    +0.326 C 
ATOM     10  O   PRO A  2       21.484 -21.588   4.832  0.00  0.00    -0.249 OA
BRANCH   9  11
ATOM     11  OXT PRO A  2       23.454 -21.802   3.752  0.00  0.00    -0.479 OA
ATOM     12  HXT PRO A  2       24.260 -22.139   4.193  0.00  0.00    +0.295 HD
ENDBRANCH   9  11
ENDBRANCH   4   9
ENDBRANCH   1   2
BRANCH   1  13
ATOM     13  N   UNK A  1       26.042 -22.539   6.552  0.00  0.00    -0.293 NA
ATOM     14  H   UNK A  1       26.589 -22.953   7.294  0.00  0.00    +0.123 HD
BRANCH  13  15
ATOM     15  C   UNK A  1       25.081 -23.555   6.050  0.00  0.00    +0.164 C 
BRANCH  15  16
ATOM     16  C   UNK A  1       23.711 -23.694   6.731  0.00  0.00    +0.322 C 
ATOM     17  O   UNK A  1       23.222 -22.892   7.436  0.00  0.00    -0.249 OA
BRANCH  16  18
ATOM     18  O   UNK A  1       23.031 -24.800   6.347  0.00  0.00    -0.479 OA
ATOM     19  H   UNK A  1       22.378 -24.436   5.720  0.00  0.00    +0.295 HD
ENDBRANCH  16  18
ENDBRANCH  15  16
BRANCH  15  20
ATOM     20  C   UNK A  1       25.530 -24.943   5.577  0.00  0.00    +0.035 C 
BRANCH  20  21
ATOM     21  C   UNK A  1       26.128 -25.975   6.538  0.00  0.00    +0.037 C 
BRANCH  21  22
ATOM     22  C   UNK A  1       25.628 -27.298   6.999  0.00  0.00    -0.047 A 
ATOM     23  C   UNK A  1       26.072 -28.041   8.153  0.00  0.00    +0.003 A 
ATOM     24  C   UNK A  1       25.572 -29.307   8.398  0.00  0.00    +0.000 A 
ATOM     25  C   UNK A  1       24.648 -29.812   7.494  0.00  0.00    +0.000 A 
ATOM     26  C   UNK A  1       24.222 -29.068   6.386  0.00  0.00    +0.000 A 
ATOM     27  C   UNK A  1       24.727 -27.825   6.130  0.00  0.00    +0.003 A 
ENDBRANCH  21  22
ENDBRANCH  20  21
ENDBRANCH  15  20
ENDBRANCH  13  15
ENDBRANCH   1  13
BRANCH   1  28
ATOM     28  C   UNK A  1       26.981 -20.488   7.770  0.00  0.00    +0.028 C 
BRANCH  28  29
ATOM     29  C   UNK A  1       28.223 -21.324   7.759  0.00  0.00    +0.003 C 
BRANCH  29  30
ATOM     30  C   UNK A  1       29.807 -21.122   7.755  0.00  0.00    +0.015 C 
BRANCH  30  31
ATOM     31  C   UNK A  1       30.777 -21.526   9.011  0.00  0.00    +0.077 C 
BRANCH  31  32
ATOM     32  N   UNK A  1       31.910 -22.417   8.733  0.00  0.00    -0.330 NA
ATOM     33  H   UNK A  1       32.060 -22.414   7.714  0.00  0.00    +0.118 HD
ATOM     34  H   UNK A  1       31.624 -23.377   8.926  0.00  0.00    +0.118 HD
ENDBRANCH  31  32
ENDBRANCH  30  31
ENDBRANCH  29  30
ENDBRANCH  28  29
ENDBRANCH   1  28
TORSDOF 15
ENDMDL
MODEL 7
REMARK VINA RESULT:      -7.7      2.663      5.521
REMARK  Name = *****
REMARK                            x       y       z     vdW  Elec       q    Type
REMARK                         _______ _______ _______ _____ _____    ______ ____
ROOT
ATOM      1  C   UNK A  1       24.809 -23.949   6.508  0.00  0.00    +0.141 C 
ENDROOT
BRANCH   1   2
ATOM      2  C   UNK A  1       24.880 -25.072   5.357  0.00  0.00    +0.233 C 
ATOM      3  N   PRO A  2       24.888 -26.438   5.598  0.00  0.00    -0.287 N 
ATOM      4  CA  PRO A  2       24.798 -27.120   6.897  0.00  0.00    +0.184 C 
ATOM      5  CB  PRO A  2       24.038 -28.393   6.585  0.00  0.00    +0.035 C 
ATOM      6  CG  PRO A  2       24.549 -28.778   5.207  0.00  0.00    +0.021 C 
ATOM      7  CD  PRO A  2       24.872 -27.444   4.518  0.00  0.00    +0.109 C 
ATOM      8  O   UNK A  1       24.980 -24.687   4.167  0.00  0.00    -0.274 OA
BRANCH   4   9
ATOM      9  C   PRO A  2       26.194 -27.422   7.431  0.00  0.00    +0.326 C 
ATOM     10  O   PRO A  2       26.400 -28.064   8.502  0.00  0.00    -0.249 OA
BRANCH   9  11
ATOM     11  OXT PRO A  2       27.230 -27.030   6.676  0.00  0.00    -0.479 OA
ATOM     12  HXT PRO A  2       26.920 -26.818   5.772  0.00  0.00    +0.295 HD
ENDBRANCH   9  11
ENDBRANCH   4   9
ENDBRANCH   1   2
BRANCH   1  13
ATOM     13  N   UNK A  1       25.528 -22.728   6.110  0.00  0.00    -0.293 NA
ATOM     14  H   UNK A  1       24.926 -22.184   5.508  0.00  0.00    +0.123 HD
BRANCH  13  15
ATOM     15  C   UNK A  1       26.324 -21.796   6.949  0.00  0.00    +0.164 C 
BRANCH  15  16
ATOM     16  C   UNK A  1       26.021 -21.693   8.452  0.00  0.00    +0.322 C 
ATOM     17  O   UNK A  1       25.954 -22.602   9.192  0.00  0.00    -0.249 OA
BRANCH  16  18
ATOM     18  O   UNK A  1       25.953 -20.416   8.898  0.00  0.00    -0.479 OA
ATOM     19  H   UNK A  1       25.351 -20.495   9.663  0.00  0.00    +0.295 HD
ENDBRANCH  16  18
ENDBRANCH  15  16
BRANCH  15  20
ATOM     20  C   UNK A  1       26.766 -20.416   6.447  0.00  0.00    +0.035 C 
BRANCH  20  21
ATOM     21  C   UNK A  1       28.240 -20.072   6.209  0.00  0.00    +0.037 C 
BRANCH  21  22
ATOM     22  C   UNK A  1       29.348 -19.778   7.156  0.00  0.00    -0.047 A 
ATOM     23  C   UNK A  1       30.026 -18.517   7.335  0.00  0.00    +0.003 A 
ATOM     24  C   UNK A  1       31.106 -18.425   8.195  0.00  0.00    +0.000 A 
ATOM     25  C   UNK A  1       31.494 -19.583   8.854  0.00  0.00    +0.000 A 
ATOM     26  C   UNK A  1       30.813 -20.795   8.674  0.00  0.00    +0.000 A 
ATOM     27  C   UNK A  1       29.759 -20.895   7.812  0.00  0.00    +0.003 A 
ENDBRANCH  21  22
ENDBRANCH  20  21
ENDBRANCH  15  20
ENDBRANCH  13  15
ENDBRANCH   1  13
BRANCH   1  28
ATOM     28  C   UNK A  1       23.235 -23.707   6.707  0.00  0.00    +0.028 C 
BRANCH  28  29
ATOM     29  C   UNK A  1       22.871 -22.256   6.672  0.00  0.00    +0.003 C 
BRANCH  29  30
ATOM     30  C   UNK A  1       22.482 -21.140   5.597  0.00  0.00    +0.015 C 
BRANCH  30  31
ATOM     31  C   UNK A  1       23.478 -20.655   4.390  0.00  0.00    +0.077 C 
BRANCH  31  32
ATOM     32  N   UNK A  1       24.047 -21.692   3.522  0.00  0.00    -0.330 NA
ATOM     33  H   UNK A  1       24.166 -21.279   2.587  0.00  0.00    +0.118 HD
ATOM     34  H   UNK A  1       23.340 -22.414   3.373  0.00  0.00    +0.118 HD
ENDBRANCH  31  32
ENDBRANCH  30  31
ENDBRANCH  29  30
ENDBRANCH  28  29
ENDBRANCH   1  28
TORSDOF 15
ENDMDL
MODEL 8
REMARK VINA RESULT:      -7.7      2.823      7.920
REMARK  Name = *****
REMARK                            x       y       z     vdW  Elec       q    Type
REMARK                         _______ _______ _______ _____ _____    ______ ____
ROOT
ATOM      1  C   UNK A  1       25.282 -22.142   7.460  0.00  0.00    +0.141 C 
ENDROOT
BRANCH   1   2
ATOM      2  C   UNK A  1       24.116 -21.111   7.050  0.00  0.00    +0.233 C 
ATOM      3  N   PRO A  2       23.938 -20.602   5.772  0.00  0.00    -0.287 N 
ATOM      4  CA  PRO A  2       24.718 -20.914   4.566  0.00  0.00    +0.184 C 
ATOM      5  CB  PRO A  2       23.701 -20.827   3.446  0.00  0.00    +0.035 C 
ATOM      6  CG  PRO A  2       22.806 -19.677   3.874  0.00  0.00    +0.021 C 
ATOM      7  CD  PRO A  2       22.811 -19.722   5.409  0.00  0.00    +0.109 C 
ATOM      8  O   UNK A  1       23.346 -20.706   7.954  0.00  0.00    -0.274 OA
BRANCH   4   9
ATOM      9  C   PRO A  2       25.836 -19.893   4.384  0.00  0.00    +0.326 C 
ATOM     10  O   PRO A  2       25.659 -18.766   3.835  0.00  0.00    -0.249 OA
BRANCH   9  11
ATOM     11  OXT PRO A  2       27.034 -20.208   4.894  0.00  0.00    -0.479 OA
ATOM     12  HXT PRO A  2       27.167 -21.177   4.854  0.00  0.00    +0.295 HD
ENDBRANCH   9  11
ENDBRANCH   4   9
ENDBRANCH   1   2
BRANCH   1  13
ATOM     13  N   UNK A  1       25.715 -22.947   6.306  0.00  0.00    -0.293 NA
ATOM     14  H   UNK A  1       26.716 -22.853   6.208  0.00  0.00    +0.123 HD
BRANCH  13  15
ATOM     15  C   UNK A  1       25.331 -24.334   5.936  0.00  0.00    +0.164 C 
BRANCH  15  16
ATOM     16  C   UNK A  1       23.878 -24.790   6.137  0.00  0.00    +0.322 C 
ATOM     17  O   UNK A  1       23.120 -24.318   6.899  0.00  0.00    -0.249 OA
BRANCH  16  18
ATOM     18  O   UNK A  1       23.486 -25.735   5.251  0.00  0.00    -0.479 OA
ATOM     19  H   UNK A  1       24.333 -26.018   4.858  0.00  0.00    +0.295 HD
ENDBRANCH  16  18
ENDBRANCH  15  16
BRANCH  15  20
ATOM     20  C   UNK A  1       26.255 -25.533   6.183  0.00  0.00    +0.035 C 
BRANCH  20  21
ATOM     21  C   UNK A  1       25.891 -26.647   7.169  0.00  0.00    +0.037 C 
BRANCH  21  22
ATOM     22  C   UNK A  1       25.457 -28.053   6.949  0.00  0.00    -0.047 A 
ATOM     23  C   UNK A  1       25.184 -29.046   7.960  0.00  0.00    +0.003 A 
ATOM     24  C   UNK A  1       24.877 -30.344   7.593  0.00  0.00    +0.000 A 
ATOM     25  C   UNK A  1       24.853 -30.632   6.236  0.00  0.00    +0.000 A 
ATOM     26  C   UNK A  1       25.110 -29.649   5.270  0.00  0.00    +0.000 A 
ATOM     27  C   UNK A  1       25.432 -28.371   5.628  0.00  0.00    +0.003 A 
ENDBRANCH  21  22
ENDBRANCH  20  21
ENDBRANCH  15  20
ENDBRANCH  13  15
ENDBRANCH   1  13
BRANCH   1  28
ATOM     28  C   UNK A  1       26.446 -21.195   8.029  0.00  0.00    +0.028 C 
BRANCH  28  29
ATOM     29  C   UNK A  1       27.812 -21.684   7.660  0.00  0.00    +0.003 C 
BRANCH  29  30
ATOM     30  C   UNK A  1       29.338 -21.272   7.888  0.00  0.00    +0.015 C 
BRANCH  30  31
ATOM     31  C   UNK A  1       29.985 -19.860   7.368  0.00  0.00    +0.077 C 
BRANCH  31  32
ATOM     32  N   UNK A  1       31.434 -19.823   7.139  0.00  0.00    -0.330 NA
ATOM     33  H   UNK A  1       31.585 -19.822   6.120  0.00  0.00    +0.118 HD
ATOM     34  H   UNK A  1       31.833 -20.714   7.434  0.00  0.00    +0.118 HD
ENDBRANCH  31  32
ENDBRANCH  30  31
ENDBRANCH  29  30
ENDBRANCH  28  29
ENDBRANCH   1  28
TORSDOF 15
ENDMDL
MODEL 9
REMARK VINA RESULT:      -7.6      2.022      3.649
REMARK  Name = *****
REMARK                            x       y       z     vdW  Elec       q    Type
REMARK                         _______ _______ _______ _____ _____    ______ ____
ROOT
ATOM      1  C   UNK A  1       27.221 -20.365   7.414  0.00  0.00    +0.141 C 
ENDROOT
BRANCH   1   2
ATOM      2  C   UNK A  1       26.848 -21.877   7.820  0.00  0.00    +0.233 C 
ATOM      3  N   PRO A  2       25.878 -22.640   7.184  0.00  0.00    -0.287 N 
ATOM      4  CA  PRO A  2       25.052 -22.259   6.031  0.00  0.00    +0.184 C 
ATOM      5  CB  PRO A  2       24.858 -23.560   5.279  0.00  0.00    +0.035 C 
ATOM      6  CG  PRO A  2       24.738 -24.591   6.389  0.00  0.00    +0.021 C 
ATOM      7  CD  PRO A  2       25.615 -24.051   7.527  0.00  0.00    +0.109 C 
ATOM      8  O   UNK A  1       27.440 -22.384   8.804  0.00  0.00    -0.274 OA
BRANCH   4   9
ATOM      9  C   PRO A  2       23.720 -21.686   6.505  0.00  0.00    +0.326 C 
ATOM     10  O   PRO A  2       23.562 -21.158   7.644  0.00  0.00    -0.249 OA
BRANCH   9  11
ATOM     11  OXT PRO A  2       22.706 -21.702   5.628  0.00  0.00    -0.479 OA
ATOM     12  HXT PRO A  2       22.462 -22.627   5.421  0.00  0.00    +0.295 HD
ENDBRANCH   9  11
ENDBRANCH   4   9
ENDBRANCH   1   2
BRANCH   1  13
ATOM     13  N   UNK A  1       28.305 -19.836   8.257  0.00  0.00    -0.293 NA
ATOM     14  H   UNK A  1       28.195 -20.209   9.190  0.00  0.00    +0.123 HD
BRANCH  13  15
ATOM     15  C   UNK A  1       29.756 -19.730   7.958  0.00  0.00    +0.164 C 
BRANCH  15  16
ATOM     16  C   UNK A  1       30.749 -20.606   8.738  0.00  0.00    +0.322 C 
ATOM     17  O   UNK A  1       31.827 -20.276   9.068  0.00  0.00    -0.249 OA
BRANCH  16  18
ATOM     18  O   UNK A  1       30.224 -21.788   9.136  0.00  0.00    -0.479 OA
ATOM     19  H   UNK A  1       31.018 -22.349   9.226  0.00  0.00    +0.295 HD
ENDBRANCH  16  18
ENDBRANCH  15  16
BRANCH  15  20
ATOM     20  C   UNK A  1       30.433 -18.390   7.646  0.00  0.00    +0.035 C 
BRANCH  20  21
ATOM     21  C   UNK A  1       30.323 -17.187   8.588  0.00  0.00    +0.037 C 
BRANCH  21  22
ATOM     22  C   UNK A  1       31.125 -16.792   9.778  0.00  0.00    -0.047 A 
ATOM     23  C   UNK A  1       32.316 -15.978   9.791  0.00  0.00    +0.003 A 
ATOM     24  C   UNK A  1       33.005 -15.775  10.974  0.00  0.00    +0.000 A 
ATOM     25  C   UNK A  1       32.503 -16.386  12.114  0.00  0.00    +0.000 A 
ATOM     26  C   UNK A  1       31.338 -17.164  12.081  0.00  0.00    +0.000 A 
ATOM     27  C   UNK A  1       30.665 -17.382  10.912  0.00  0.00    +0.003 A 
ENDBRANCH  21  22
ENDBRANCH  20  21
ENDBRANCH  15  20
ENDBRANCH  13  15
ENDBRANCH   1  13
BRANCH   1  28
ATOM     28  C   UNK A  1       27.635 -20.478   5.867  0.00  0.00    +0.028 C 
BRANCH  28  29
ATOM     29  C   UNK A  1       27.209 -19.282   5.074  0.00  0.00    +0.003 C 
BRANCH  29  30
ATOM     30  C   UNK A  1       26.177 -18.915   3.912  0.00  0.00    +0.015 C 
BRANCH  30  31
ATOM     31  C   UNK A  1       24.882 -19.839   3.523  0.00  0.00    +0.077 C 
BRANCH  31  32
ATOM     32  N   UNK A  1       23.551 -19.310   3.845  0.00  0.00    -0.330 NA
ATOM     33  H   UNK A  1       22.858 -19.964   3.455  0.00  0.00    +0.118 HD
ATOM     34  H   UNK A  1       23.400 -18.458   3.305  0.00  0.00    +0.118 HD
ENDBRANCH  31  32
ENDBRANCH  30  31
ENDBRANCH  29  30
ENDBRANCH  28  29
ENDBRANCH   1  28
TORSDOF 15
ENDMDL
