MODEL 1
REMARK VINA RESULT:      -5.6      0.000      0.000
REMARK  Name = *****
REMARK                            x       y       z     vdW  Elec       q    Type
REMARK                         _______ _______ _______ _____ _____    ______ ____
ROOT
ATOM      1  C   LIG    1       31.688 -18.061   8.684  0.00  0.00    +0.176 C 
ENDROOT
BRANCH   1   2
ATOM      2  O   LIG    1       32.214 -19.192   9.388  0.00  0.00    -0.387 OA
ATOM      3  H   LIG    1       33.186 -19.162   9.335  0.00  0.00    +0.210 HD
ENDBRANCH   1   2
BRANCH   1   4
ATOM      4  C   LIG    1       30.280 -18.435   8.175  0.00  0.00    +0.181 C 
BRANCH   4   5
ATOM      5  O   LIG    1       29.433 -18.667   9.322  0.00  0.00    -0.386 OA
ATOM      6  H   LIG    1       28.509 -18.590   9.020  0.00  0.00    +0.210 HD
ENDBRANCH   4   5
BRANCH   4   7
ATOM      7  C   LIG    1       30.161 -19.623   7.194  0.00  0.00    +0.208 C 
BRANCH   7   9
ATOM      8  O   LIG    1       30.041 -21.458   8.791  0.00  0.00    -0.298 OA
ATOM      9  C   LIG    1       29.550 -20.872   7.813  0.00  0.00    +0.257 C 
ENDBRANCH   7   9
BRANCH   7  10
ATOM     10  O   LIG    1       31.477 -19.921   6.687  0.00  0.00    -0.382 OA
ATOM     11  H   LIG    1       31.860 -20.596   7.280  0.00  0.00    +0.210 HD
ENDBRANCH   7  10
ENDBRANCH   4   7
ENDBRANCH   1   4
BRANCH   1  12
ATOM     12  C   LIG    1       31.852 -16.765   9.520  0.00  0.00    +0.171 C 
BRANCH  12  13
ATOM     13  O   LIG    1       32.811 -15.893   8.914  0.00  0.00    -0.387 OA
ATOM     14  H   LIG    1       33.654 -16.023   9.397  0.00  0.00    +0.210 HD
ENDBRANCH  12  13
BRANCH  12  15
ATOM     15  C   LIG    1       32.196 -16.971  11.003  0.00  0.00    +0.190 C 
BRANCH  15  16
ATOM     16  O   LIG    1       31.216 -17.778  11.644  0.00  0.00    -0.392 OA
ATOM     17  H   LIG    1       30.703 -18.236  10.939  0.00  0.00    +0.209 HD
ENDBRANCH  15  16
ENDBRANCH  12  15
ENDBRANCH   1  12
TORSDOF 10
ENDMDL
MODEL 2
REMARK VINA RESULT:      -5.5      1.155      4.208
REMARK  Name = *****
REMARK                            x       y       z     vdW  Elec       q    Type
REMARK                         _______ _______ _______ _____ _____    ______ ____
ROOT
ATOM      1  C   LIG    1       30.405 -18.421   7.897  0.00  0.00    +0.176 C 
ENDROOT
BRANCH   1   2
ATOM      2  O   LIG    1       29.442 -18.918   8.835  0.00  0.00    -0.387 OA
ATOM      3  H   LIG    1       29.372 -18.282   9.570  0.00  0.00    +0.210 HD
ENDBRANCH   1   2
BRANCH   1   4
ATOM      4  C   LIG    1       31.798 -18.524   8.552  0.00  0.00    +0.181 C 
BRANCH   4   5
ATOM      5  O   LIG    1       31.902 -19.816   9.189  0.00  0.00    -0.386 OA
ATOM      6  H   LIG    1       32.571 -19.738   9.894  0.00  0.00    +0.210 HD
ENDBRANCH   4   5
BRANCH   4   7
ATOM      7  C   LIG    1       32.208 -17.418   9.550  0.00  0.00    +0.208 C 
BRANCH   7   9
ATOM      8  O   LIG    1       30.747 -18.135  11.362  0.00  0.00    -0.298 OA
ATOM      9  C   LIG    1       31.209 -17.208  10.679  0.00  0.00    +0.257 C 
ENDBRANCH   7   9
BRANCH   7  10
ATOM     10  O   LIG    1       32.383 -16.191   8.815  0.00  0.00    -0.382 OA
ATOM     11  H   LIG    1       33.342 -16.095   8.654  0.00  0.00    +0.210 HD
ENDBRANCH   7  10
ENDBRANCH   4   7
ENDBRANCH   1   4
BRANCH   1  12
ATOM     12  C   LIG    1       30.194 -19.059   6.500  0.00  0.00    +0.171 C 
BRANCH  12  13
ATOM     13  O   LIG    1       29.725 -18.082   5.564  0.00  0.00    -0.387 OA
ATOM     14  H   LIG    1       30.520 -17.687   5.149  0.00  0.00    +0.210 HD
ENDBRANCH  12  13
BRANCH  12  15
ATOM     15  C   LIG    1       29.284 -20.296   6.465  0.00  0.00    +0.190 C 
BRANCH  15  16
ATOM     16  O   LIG    1       29.758 -21.301   7.353  0.00  0.00    -0.392 OA
ATOM     17  H   LIG    1       29.054 -21.986   7.427  0.00  0.00    +0.209 HD
ENDBRANCH  15  16
ENDBRANCH  12  15
ENDBRANCH   1  12
TORSDOF 10
ENDMDL
MODEL 3
REMARK VINA RESULT:      -5.3      0.591      1.642
REMARK  Name = *****
REMARK                            x       y       z     vdW  Elec       q    Type
REMARK                         _______ _______ _______ _____ _____    ______ ____
ROOT
ATOM      1  C   LIG    1       31.700 -18.589   9.060  0.00  0.00    +0.176 C 
ENDROOT
BRANCH   1   2
ATOM      2  O   LIG    1       31.984 -19.961   9.357  0.00  0.00    -0.387 OA
ATOM      3  H   LIG    1       32.697 -20.262   8.765  0.00  0.00    +0.210 HD
ENDBRANCH   1   2
BRANCH   1   4
ATOM      4  C   LIG    1       30.364 -18.538   8.291  0.00  0.00    +0.181 C 
BRANCH   4   5
ATOM      5  O   LIG    1       29.295 -18.798   9.227  0.00  0.00    -0.386 OA
ATOM      6  H   LIG    1       29.696 -19.203  10.019  0.00  0.00    +0.210 HD
ENDBRANCH   4   5
BRANCH   4   7
ATOM      7  C   LIG    1       30.208 -19.456   7.058  0.00  0.00    +0.208 C 
BRANCH   7   9
ATOM      8  O   LIG    1       29.443 -21.381   8.340  0.00  0.00    -0.298 OA
ATOM      9  C   LIG    1       29.352 -20.689   7.313  0.00  0.00    +0.257 C 
ENDBRANCH   7   9
BRANCH   7  10
ATOM     10  O   LIG    1       31.524 -19.855   6.625  0.00  0.00    -0.382 OA
ATOM     11  H   LIG    1       32.020 -20.104   7.429  0.00  0.00    +0.210 HD
ENDBRANCH   7  10
ENDBRANCH   4   7
ENDBRANCH   1   4
BRANCH   1  12
ATOM     12  C   LIG    1       31.858 -17.706  10.326  0.00  0.00    +0.171 C 
BRANCH  12  13
ATOM     13  O   LIG    1       30.857 -18.031  11.296  0.00  0.00    -0.387 OA
ATOM     14  H   LIG    1       30.295 -17.235  11.397  0.00  0.00    +0.210 HD
ENDBRANCH  12  13
BRANCH  12  15
ATOM     15  C   LIG    1       31.876 -16.190  10.081  0.00  0.00    +0.190 C 
BRANCH  15  16
ATOM     16  O   LIG    1       32.625 -15.873   8.913  0.00  0.00    -0.392 OA
ATOM     17  H   LIG    1       32.212 -16.352   8.158  0.00  0.00    +0.209 HD
ENDBRANCH  15  16
ENDBRANCH  12  15
ENDBRANCH   1  12
TORSDOF 10
ENDMDL
MODEL 4
REMARK VINA RESULT:      -5.3      1.239      1.347
REMARK  Name = *****
REMARK                            x       y       z     vdW  Elec       q    Type
REMARK                         _______ _______ _______ _____ _____    ______ ____
ROOT
ATOM      1  C   LIG    1       31.510 -18.359   8.442  0.00  0.00    +0.176 C 
ENDROOT
BRANCH   1   2
ATOM      2  O   LIG    1       32.048 -19.492   9.136  0.00  0.00    -0.387 OA
ATOM      3  H   LIG    1       32.995 -19.562   8.922  0.00  0.00    +0.210 HD
ENDBRANCH   1   2
BRANCH   1   4
ATOM      4  C   LIG    1       30.113 -18.749   7.914  0.00  0.00    +0.181 C 
BRANCH   4   5
ATOM      5  O   LIG    1       29.253 -18.988   9.051  0.00  0.00    -0.386 OA
ATOM      6  H   LIG    1       29.822 -19.280   9.787  0.00  0.00    +0.210 HD
ENDBRANCH   4   5
BRANCH   4   7
ATOM      7  C   LIG    1       30.020 -19.938   6.933  0.00  0.00    +0.208 C 
BRANCH   7   9
ATOM      8  O   LIG    1       27.597 -20.125   6.779  0.00  0.00    -0.298 OA
ATOM      9  C   LIG    1       28.690 -20.027   6.199  0.00  0.00    +0.257 C 
ENDBRANCH   7   9
BRANCH   7  10
ATOM     10  O   LIG    1       30.252 -21.152   7.674  0.00  0.00    -0.382 OA
ATOM     11  H   LIG    1       30.618 -21.801   7.042  0.00  0.00    +0.210 HD
ENDBRANCH   7  10
ENDBRANCH   4   7
ENDBRANCH   1   4
BRANCH   1  12
ATOM     12  C   LIG    1       31.646 -17.072   9.297  0.00  0.00    +0.171 C 
BRANCH  12  13
ATOM     13  O   LIG    1       32.682 -16.231   8.782  0.00  0.00    -0.387 OA
ATOM     14  H   LIG    1       32.247 -15.414   8.460  0.00  0.00    +0.210 HD
ENDBRANCH  12  13
BRANCH  12  15
ATOM     15  C   LIG    1       31.853 -17.295  10.803  0.00  0.00    +0.190 C 
BRANCH  15  16
ATOM     16  O   LIG    1       30.844 -18.146  11.335  0.00  0.00    -0.392 OA
ATOM     17  H   LIG    1       30.049 -17.590  11.506  0.00  0.00    +0.209 HD
ENDBRANCH  15  16
ENDBRANCH  12  15
ENDBRANCH   1  12
TORSDOF 10
ENDMDL
MODEL 5
REMARK VINA RESULT:      -5.1      1.705      2.802
REMARK  Name = *****
REMARK                            x       y       z     vdW  Elec       q    Type
REMARK                         _______ _______ _______ _____ _____    ______ ____
ROOT
ATOM      1  C   LIG    1       30.415 -18.704   7.549  0.00  0.00    +0.176 C 
ENDROOT
BRANCH   1   2
ATOM      2  O   LIG    1       30.703 -18.749   6.146  0.00  0.00    -0.387 OA
ATOM      3  H   LIG    1       31.581 -18.353   6.000  0.00  0.00    +0.210 HD
ENDBRANCH   1   2
BRANCH   1   4
ATOM      4  C   LIG    1       29.472 -19.881   7.876  0.00  0.00    +0.181 C 
BRANCH   4   5
ATOM      5  O   LIG    1       30.200 -21.112   7.666  0.00  0.00    -0.386 OA
ATOM      6  H   LIG    1       31.048 -21.030   8.141  0.00  0.00    +0.210 HD
ENDBRANCH   4   5
BRANCH   4   7
ATOM      7  C   LIG    1       28.118 -19.946   7.135  0.00  0.00    +0.208 C 
BRANCH   7   9
ATOM      8  O   LIG    1       27.273 -21.576   8.736  0.00  0.00    -0.298 OA
ATOM      9  C   LIG    1       27.033 -20.688   7.902  0.00  0.00    +0.257 C 
ENDBRANCH   7   9
BRANCH   7  10
ATOM     10  O   LIG    1       28.334 -20.579   5.858  0.00  0.00    -0.382 OA
ATOM     11  H   LIG    1       27.455 -20.844   5.524  0.00  0.00    +0.210 HD
ENDBRANCH   7  10
ENDBRANCH   4   7
ENDBRANCH   1   4
BRANCH   1  12
ATOM     12  C   LIG    1       31.718 -18.548   8.376  0.00  0.00    +0.171 C 
BRANCH  12  13
ATOM     13  O   LIG    1       31.949 -19.711   9.177  0.00  0.00    -0.387 OA
ATOM     14  H   LIG    1       31.807 -20.486   8.595  0.00  0.00    +0.210 HD
ENDBRANCH  12  13
BRANCH  12  15
ATOM     15  C   LIG    1       31.803 -17.286   9.248  0.00  0.00    +0.190 C 
BRANCH  15  16
ATOM     16  O   LIG    1       32.649 -16.311   8.649  0.00  0.00    -0.392 OA
ATOM     17  H   LIG    1       33.569 -16.661   8.678  0.00  0.00    +0.209 HD
ENDBRANCH  15  16
ENDBRANCH  12  15
ENDBRANCH   1  12
TORSDOF 10
ENDMDL
MODEL 6
REMARK VINA RESULT:      -5.1      1.529      4.252
REMARK  Name = *****
REMARK                            x       y       z     vdW  Elec       q    Type
REMARK                         _______ _______ _______ _____ _____    ______ ____
ROOT
ATOM      1  C   LIG    1       31.020 -19.492   7.781  0.00  0.00    +0.176 C 
ENDROOT
BRANCH   1   2
ATOM      2  O   LIG    1       31.958 -19.125   6.762  0.00  0.00    -0.387 OA
ATOM      3  H   LIG    1       31.747 -19.629   5.955  0.00  0.00    +0.210 HD
ENDBRANCH   1   2
BRANCH   1   4
ATOM      4  C   LIG    1       31.632 -19.111   9.145  0.00  0.00    +0.181 C 
BRANCH   4   5
ATOM      5  O   LIG    1       30.830 -19.718  10.183  0.00  0.00    -0.386 OA
ATOM      6  H   LIG    1       30.437 -18.995  10.705  0.00  0.00    +0.210 HD
ENDBRANCH   4   5
BRANCH   4   7
ATOM      7  C   LIG    1       31.828 -17.610   9.453  0.00  0.00    +0.208 C 
BRANCH   7   9
ATOM      8  O   LIG    1       30.079 -16.849  10.968  0.00  0.00    -0.298 OA
ATOM      9  C   LIG    1       30.540 -16.883   9.816  0.00  0.00    +0.257 C 
ENDBRANCH   7   9
BRANCH   7  10
ATOM     10  O   LIG    1       32.432 -16.990   8.300  0.00  0.00    -0.382 OA
ATOM     11  H   LIG    1       31.794 -16.325   7.974  0.00  0.00    +0.210 HD
ENDBRANCH   7  10
ENDBRANCH   4   7
ENDBRANCH   1   4
BRANCH   1  12
ATOM     12  C   LIG    1       29.599 -18.973   7.436  0.00  0.00    +0.171 C 
BRANCH  12  13
ATOM     13  O   LIG    1       28.616 -19.611   8.257  0.00  0.00    -0.387 OA
ATOM     14  H   LIG    1       27.883 -18.970   8.367  0.00  0.00    +0.210 HD
ENDBRANCH  12  13
BRANCH  12  15
ATOM     15  C   LIG    1       29.195 -19.078   5.958  0.00  0.00    +0.190 C 
BRANCH  15  16
ATOM     16  O   LIG    1       29.756 -18.013   5.200  0.00  0.00    -0.392 OA
ATOM     17  H   LIG    1       29.013 -17.436   4.908  0.00  0.00    +0.209 HD
ENDBRANCH  15  16
ENDBRANCH  12  15
ENDBRANCH   1  12
TORSDOF 10
ENDMDL
MODEL 7
REMARK VINA RESULT:      -5.0      1.483      2.316
REMARK  Name = *****
REMARK                            x       y       z     vdW  Elec       q    Type
REMARK                         _______ _______ _______ _____ _____    ______ ____
ROOT
ATOM      1  C   LIG    1       30.956 -17.814   9.985  0.00  0.00    +0.176 C 
ENDROOT
BRANCH   1   2
ATOM      2  O   LIG    1       30.103 -16.896   9.290  0.00  0.00    -0.387 OA
ATOM      3  H   LIG    1       30.323 -15.993   9.579  0.00  0.00    +0.210 HD
ENDBRANCH   1   2
BRANCH   1   4
ATOM      4  C   LIG    1       31.698 -18.661   8.930  0.00  0.00    +0.181 C 
BRANCH   4   5
ATOM      5  O   LIG    1       32.172 -17.773   7.893  0.00  0.00    -0.386 OA
ATOM      6  H   LIG    1       32.114 -16.865   8.242  0.00  0.00    +0.210 HD
ENDBRANCH   4   5
BRANCH   4   7
ATOM      7  C   LIG    1       30.938 -19.845   8.293  0.00  0.00    +0.208 C 
BRANCH   7   9
ATOM      8  O   LIG    1       32.225 -21.514   9.514  0.00  0.00    -0.298 OA
ATOM      9  C   LIG    1       31.141 -21.168   9.019  0.00  0.00    +0.257 C 
ENDBRANCH   7   9
BRANCH   7  10
ATOM     10  O   LIG    1       31.365 -19.968   6.922  0.00  0.00    -0.382 OA
ATOM     11  H   LIG    1       30.555 -20.001   6.378  0.00  0.00    +0.210 HD
ENDBRANCH   7  10
ENDBRANCH   4   7
ENDBRANCH   1   4
BRANCH   1  12
ATOM     12  C   LIG    1       31.791 -17.080  11.066  0.00  0.00    +0.171 C 
BRANCH  12  13
ATOM     13  O   LIG    1       30.962 -16.201  11.834  0.00  0.00    -0.387 OA
ATOM     14  H   LIG    1       31.162 -15.291  11.531  0.00  0.00    +0.210 HD
ENDBRANCH  12  13
BRANCH  12  15
ATOM     15  C   LIG    1       33.023 -16.320  10.551  0.00  0.00    +0.190 C 
BRANCH  15  16
ATOM     16  O   LIG    1       32.698 -15.544   9.404  0.00  0.00    -0.392 OA
ATOM     17  H   LIG    1       33.540 -15.349   8.932  0.00  0.00    +0.209 HD
ENDBRANCH  15  16
ENDBRANCH  12  15
ENDBRANCH   1  12
TORSDOF 10
ENDMDL
MODEL 8
REMARK VINA RESULT:      -5.0      2.083      3.506
REMARK  Name = *****
REMARK                            x       y       z     vdW  Elec       q    Type
REMARK                         _______ _______ _______ _____ _____    ______ ____
ROOT
ATOM      1  C   LIG    1       29.563 -18.974   6.749  0.00  0.00    +0.176 C 
ENDROOT
BRANCH   1   2
ATOM      2  O   LIG    1       29.579 -18.133   5.590  0.00  0.00    -0.387 OA
ATOM      3  H   LIG    1       30.012 -18.617   4.864  0.00  0.00    +0.210 HD
ENDBRANCH   1   2
BRANCH   1   4
ATOM      4  C   LIG    1       28.957 -20.333   6.338  0.00  0.00    +0.181 C 
BRANCH   4   5
ATOM      5  O   LIG    1       28.138 -20.124   5.167  0.00  0.00    -0.386 OA
ATOM      6  H   LIG    1       27.620 -19.312   5.317  0.00  0.00    +0.210 HD
ENDBRANCH   4   5
BRANCH   4   7
ATOM      7  C   LIG    1       28.153 -21.113   7.401  0.00  0.00    +0.208 C 
BRANCH   7   9
ATOM      8  O   LIG    1       26.494 -20.490   9.072  0.00  0.00    -0.298 OA
ATOM      9  C   LIG    1       26.929 -20.369   7.915  0.00  0.00    +0.257 C 
ENDBRANCH   7   9
BRANCH   7  10
ATOM     10  O   LIG    1       29.036 -21.419   8.498  0.00  0.00    -0.382 OA
ATOM     11  H   LIG    1       28.498 -21.375   9.312  0.00  0.00    +0.210 HD
ENDBRANCH   7  10
ENDBRANCH   4   7
ENDBRANCH   1   4
BRANCH   1  12
ATOM     12  C   LIG    1       30.942 -18.963   7.459  0.00  0.00    +0.171 C 
BRANCH  12  13
ATOM     13  O   LIG    1       31.557 -20.253   7.387  0.00  0.00    -0.387 OA
ATOM     14  H   LIG    1       31.297 -20.734   8.201  0.00  0.00    +0.210 HD
ENDBRANCH  12  13
BRANCH  12  15
ATOM     15  C   LIG    1       30.936 -18.467   8.913  0.00  0.00    +0.190 C 
BRANCH  15  16
ATOM     16  O   LIG    1       30.925 -19.560   9.823  0.00  0.00    -0.392 OA
ATOM     17  H   LIG    1       31.862 -19.786  10.025  0.00  0.00    +0.209 HD
ENDBRANCH  15  16
ENDBRANCH  12  15
ENDBRANCH   1  12
TORSDOF 10
ENDMDL
MODEL 9
REMARK VINA RESULT:      -4.9      1.497      4.736
REMARK  Name = *****
REMARK                            x       y       z     vdW  Elec       q    Type
REMARK                         _______ _______ _______ _____ _____    ______ ____
ROOT
ATOM      1  C   LIG    1       30.665 -19.424   7.133  0.00  0.00    +0.176 C 
ENDROOT
BRANCH   1   2
ATOM      2  O   LIG    1       30.398 -18.439   6.128  0.00  0.00    -0.387 OA
ATOM      3  H   LIG    1       30.858 -18.701   5.310  0.00  0.00    +0.210 HD
ENDBRANCH   1   2
BRANCH   1   4
ATOM      4  C   LIG    1       31.562 -18.774   8.206  0.00  0.00    +0.181 C 
BRANCH   4   5
ATOM      5  O   LIG    1       32.060 -19.820   9.071  0.00  0.00    -0.386 OA
ATOM      6  H   LIG    1       32.753 -19.425   9.632  0.00  0.00    +0.210 HD
ENDBRANCH   4   5
BRANCH   4   7
ATOM      7  C   LIG    1       30.956 -17.639   9.061  0.00  0.00    +0.208 C 
BRANCH   7   9
ATOM      8  O   LIG    1       32.941 -17.150  10.384  0.00  0.00    -0.298 OA
ATOM      9  C   LIG    1       31.994 -16.729   9.701  0.00  0.00    +0.257 C 
ENDBRANCH   7   9
BRANCH   7  10
ATOM     10  O   LIG    1       30.132 -18.236  10.082  0.00  0.00    -0.382 OA
ATOM     11  H   LIG    1       30.434 -17.869  10.936  0.00  0.00    +0.210 HD
ENDBRANCH   7  10
ENDBRANCH   4   7
ENDBRANCH   1   4
BRANCH   1  12
ATOM     12  C   LIG    1       29.355 -20.120   7.586  0.00  0.00    +0.171 C 
BRANCH  12  13
ATOM     13  O   LIG    1       29.594 -20.954   8.725  0.00  0.00    -0.387 OA
ATOM     14  H   LIG    1       28.763 -21.448   8.890  0.00  0.00    +0.210 HD
ENDBRANCH  12  13
BRANCH  12  15
ATOM     15  C   LIG    1       28.617 -20.917   6.500  0.00  0.00    +0.190 C 
BRANCH  15  16
ATOM     16  O   LIG    1       28.255 -20.076   5.410  0.00  0.00    -0.392 OA
ATOM     17  H   LIG    1       27.274 -20.114   5.321  0.00  0.00    +0.209 HD
ENDBRANCH  15  16
ENDBRANCH  12  15
ENDBRANCH   1  12
TORSDOF 10
ENDMDL
