MODEL 1
REMARK VINA RESULT:      11.9      0.000      0.000
REMARK  Name = *****
REMARK                            x       y       z     vdW  Elec       q    Type
REMARK                         _______ _______ _______ _____ _____    ______ ____
ROOT
ATOM      1  C   LIG    1       25.311 -14.180   3.337  0.00  0.00    +0.133 C 
ATOM      2  C   LIG    1       24.760 -15.258   4.330  0.00  0.00    +0.013 C 
ATOM      3  C   LIG    1       25.194 -14.998   5.802  0.00  0.00    +0.015 C 
ATOM      4  C   LIG    1       25.487 -16.560   3.864  0.00  0.00    +0.002 C 
ATOM      5  C   LIG    1       24.727 -17.441   2.841  0.00  0.00    +0.004 C 
ATOM      6  C   LIG    1       23.235 -17.646   3.145  0.00  0.00    +0.069 C 
ATOM      7  C   LIG    1       22.587 -16.288   3.352  0.00  0.00    +0.138 C 
ATOM      8  O   LIG    1       21.489 -16.033   2.850  0.00  0.00    -0.297 OA
ATOM      9  C   LIG    1       22.834 -18.731   4.209  0.00  0.00    -0.001 C 
ATOM     10  C   LIG    1       21.339 -19.085   3.961  0.00  0.00    +0.016 C 
ATOM     11  C   LIG    1       23.719 -19.983   4.084  0.00  0.00    -0.060 C 
ATOM     12  C   LIG    1       23.410 -21.093   4.791  0.00  0.00    +0.046 C 
ATOM     13  C   LIG    1       23.469 -20.748   6.262  0.00  0.00    +0.156 C 
ATOM     14  O   LIG    1       23.905 -21.571   7.062  0.00  0.00    -0.293 OA
ATOM     15  C   LIG    1       22.833 -19.437   6.704  0.00  0.00    +0.080 C 
ATOM     16  C   LIG    1       25.187 -19.760   3.789  0.00  0.00    +0.032 C 
ATOM     17  C   LIG    1       22.993 -18.295   5.687  0.00  0.00    +0.019 C 
ATOM     18  C   LIG    1       25.396 -18.809   2.619  0.00  0.00    +0.009 C 
ATOM     19  C   LIG    1       26.838 -16.066   3.279  0.00  0.00    +0.007 C 
ATOM     20  C   LIG    1       23.222 -15.314   4.313  0.00  0.00    +0.084 C 
ATOM     21  C   LIG    1       26.794 -14.535   3.232  0.00  0.00    +0.043 C 
ENDROOT
BRANCH   1  22
ATOM     22  C   LIG    1       25.096 -12.713   3.812  0.00  0.00    +0.202 C 
ATOM     23  O   LIG    1       24.075 -12.080   3.535  0.00  0.00    -0.291 OA
BRANCH  22  24
ATOM     24  C   LIG    1       26.212 -12.098   4.663  0.00  0.00    +0.309 C 
BRANCH  24  25
ATOM     25  O   LIG    1       27.307 -12.964   4.949  0.00  0.00    -0.457 OA
BRANCH  25  27
ATOM     26  C   LIG    1       29.217 -12.789   3.597  0.00  0.00    +0.136 C 
ATOM     27  C   LIG    1       28.540 -12.402   4.877  0.00  0.00    +0.304 C 
ATOM     28  O   LIG    1       29.066 -11.730   5.758  0.00  0.00    -0.251 OA
ENDBRANCH  25  27
ENDBRANCH  24  25
ENDBRANCH  22  24
ENDBRANCH   1  22
BRANCH   1  29
ATOM     29  O   LIG    1       24.713 -14.411   2.059  0.00  0.00    -0.380 OA
ATOM     30  H   LIG    1       24.595 -13.557   1.604  0.00  0.00    +0.211 HD
ENDBRANCH   1  29
TORSDOF 5
ENDMDL
MODEL 2
REMARK VINA RESULT:      13.4      1.937      6.755
REMARK  Name = *****
REMARK                            x       y       z     vdW  Elec       q    Type
REMARK                         _______ _______ _______ _____ _____    ______ ____
ROOT
ATOM      1  C   LIG    1       22.781 -19.260   3.990  0.00  0.00    +0.133 C 
ATOM      2  C   LIG    1       23.494 -18.069   4.714  0.00  0.00    +0.013 C 
ATOM      3  C   LIG    1       23.231 -18.052   6.248  0.00  0.00    +0.015 C 
ATOM      4  C   LIG    1       22.772 -16.819   4.115  0.00  0.00    +0.002 C 
ATOM      5  C   LIG    1       23.440 -16.170   2.877  0.00  0.00    +0.004 C 
ATOM      6  C   LIG    1       24.965 -16.012   2.971  0.00  0.00    +0.069 C 
ATOM      7  C   LIG    1       25.574 -17.355   3.335  0.00  0.00    +0.138 C 
ATOM      8  O   LIG    1       26.591 -17.759   2.764  0.00  0.00    -0.297 OA
ATOM      9  C   LIG    1       25.539 -14.793   3.780  0.00  0.00    -0.001 C 
ATOM     10  C   LIG    1       27.007 -14.581   3.308  0.00  0.00    +0.016 C 
ATOM     11  C   LIG    1       24.700 -13.526   3.541  0.00  0.00    -0.060 C 
ATOM     12  C   LIG    1       25.141 -12.336   4.006  0.00  0.00    +0.046 C 
ATOM     13  C   LIG    1       25.246 -12.427   5.512  0.00  0.00    +0.156 C 
ATOM     14  O   LIG    1       24.947 -11.457   6.202  0.00  0.00    -0.293 OA
ATOM     15  C   LIG    1       25.874 -13.684   6.099  0.00  0.00    +0.080 C 
ATOM     16  C   LIG    1       23.199 -13.702   3.456  0.00  0.00    +0.032 C 
ATOM     17  C   LIG    1       25.542 -14.966   5.319  0.00  0.00    +0.019 C 
ATOM     18  C   LIG    1       22.808 -14.819   2.498  0.00  0.00    +0.009 C 
ATOM     19  C   LIG    1       21.340 -17.317   3.779  0.00  0.00    +0.007 C 
ATOM     20  C   LIG    1       25.019 -18.114   4.516  0.00  0.00    +0.084 C 
ATOM     21  C   LIG    1       21.312 -18.835   3.993  0.00  0.00    +0.043 C 
ENDROOT
BRANCH   1  22
ATOM     22  C   LIG    1       22.987 -20.639   4.684  0.00  0.00    +0.202 C 
ATOM     23  O   LIG    1       22.146 -21.117   5.448  0.00  0.00    -0.291 OA
BRANCH  22  24
ATOM     24  C   LIG    1       24.282 -21.386   4.350  0.00  0.00    +0.309 C 
BRANCH  24  25
ATOM     25  O   LIG    1       25.452 -20.899   5.001  0.00  0.00    -0.457 OA
BRANCH  25  27
ATOM     26  C   LIG    1       26.745 -20.457   6.909  0.00  0.00    +0.136 C 
ATOM     27  C   LIG    1       25.472 -21.019   6.352  0.00  0.00    +0.304 C 
ATOM     28  O   LIG    1       24.610 -21.571   7.028  0.00  0.00    -0.251 OA
ENDBRANCH  25  27
ENDBRANCH  24  25
ENDBRANCH  22  24
ENDBRANCH   1  22
BRANCH   1  29
ATOM     29  O   LIG    1       23.228 -19.283   2.633  0.00  0.00    -0.380 OA
ATOM     30  H   LIG    1       24.060 -18.779   2.563  0.00  0.00    +0.211 HD
ENDBRANCH   1  29
TORSDOF 5
ENDMDL
MODEL 3
REMARK VINA RESULT:      14.1      1.147      2.216
REMARK  Name = *****
REMARK                            x       y       z     vdW  Elec       q    Type
REMARK                         _______ _______ _______ _____ _____    ______ ____
ROOT
ATOM      1  C   LIG    1       25.568 -14.003   3.416  0.00  0.00    +0.133 C 
ATOM      2  C   LIG    1       25.006 -15.085   4.398  0.00  0.00    +0.013 C 
ATOM      3  C   LIG    1       25.468 -14.862   5.868  0.00  0.00    +0.015 C 
ATOM      4  C   LIG    1       25.695 -16.395   3.897  0.00  0.00    +0.002 C 
ATOM      5  C   LIG    1       24.899 -17.239   2.871  0.00  0.00    +0.004 C 
ATOM      6  C   LIG    1       23.407 -17.415   3.194  0.00  0.00    +0.069 C 
ATOM      7  C   LIG    1       22.795 -16.045   3.435  0.00  0.00    +0.138 C 
ATOM      8  O   LIG    1       21.696 -15.755   2.954  0.00  0.00    -0.297 OA
ATOM      9  C   LIG    1       22.996 -18.509   4.244  0.00  0.00    -0.001 C 
ATOM     10  C   LIG    1       21.489 -18.822   4.012  0.00  0.00    +0.016 C 
ATOM     11  C   LIG    1       23.848 -19.779   4.084  0.00  0.00    -0.060 C 
ATOM     12  C   LIG    1       23.523 -20.894   4.775  0.00  0.00    +0.046 C 
ATOM     13  C   LIG    1       23.613 -20.577   6.251  0.00  0.00    +0.156 C 
ATOM     14  O   LIG    1       24.040 -21.424   7.030  0.00  0.00    -0.293 OA
ATOM     15  C   LIG    1       23.014 -19.260   6.726  0.00  0.00    +0.080 C 
ATOM     16  C   LIG    1       25.316 -19.585   3.770  0.00  0.00    +0.032 C 
ATOM     17  C   LIG    1       23.187 -18.103   5.727  0.00  0.00    +0.019 C 
ATOM     18  C   LIG    1       25.531 -18.619   2.614  0.00  0.00    +0.009 C 
ATOM     19  C   LIG    1       27.049 -15.923   3.301  0.00  0.00    +0.007 C 
ATOM     20  C   LIG    1       23.467 -15.104   4.404  0.00  0.00    +0.084 C 
ATOM     21  C   LIG    1       27.040 -14.390   3.282  0.00  0.00    +0.043 C 
ENDROOT
BRANCH   1  22
ATOM     22  C   LIG    1       25.396 -12.539   3.920  0.00  0.00    +0.202 C 
ATOM     23  O   LIG    1       26.171 -12.035   4.735  0.00  0.00    -0.291 OA
BRANCH  22  24
ATOM     24  C   LIG    1       24.225 -11.745   3.332  0.00  0.00    +0.309 C 
BRANCH  24  25
ATOM     25  O   LIG    1       23.100 -11.591   4.193  0.00  0.00    -0.457 OA
BRANCH  25  27
ATOM     26  C   LIG    1       22.101 -11.447   6.310  0.00  0.00    +0.136 C 
ATOM     27  C   LIG    1       23.367 -11.591   5.522  0.00  0.00    +0.304 C 
ATOM     28  O   LIG    1       24.488 -11.629   6.021  0.00  0.00    -0.251 OA
ENDBRANCH  25  27
ENDBRANCH  24  25
ENDBRANCH  22  24
ENDBRANCH   1  22
BRANCH   1  29
ATOM     29  O   LIG    1       24.946 -14.196   2.143  0.00  0.00    -0.380 OA
ATOM     30  H   LIG    1       25.369 -13.609   1.490  0.00  0.00    +0.211 HD
ENDBRANCH   1  29
TORSDOF 5
ENDMDL
