MODEL 1
REMARK VINA RESULT:      -1.0      0.000      0.000
REMARK  Name = *****
REMARK                            x       y       z     vdW  Elec       q    Type
REMARK                         _______ _______ _______ _____ _____    ______ ____
ROOT
ATOM      1  CA  ALA A  1       22.823 -16.572   4.847  0.00  0.00    +0.138 C 
ATOM      2  CB  ALA A  1       21.698 -16.080   5.781  0.00  0.00    +0.034 C 
ENDROOT
BRANCH   1   3
ATOM      3  C   ALA A  1       22.443 -18.003   4.301  0.00  0.00    +0.233 C 
ATOM      4  N   UNK A  2       23.280 -19.084   4.482  0.00  0.00    -0.284 N 
ATOM      5  C   UNK A  2       22.971 -20.435   4.043  0.00  0.00    +0.187 C 
ATOM      6  C   UNK A  2       24.363 -21.070   3.828  0.00  0.00    +0.064 C 
ATOM      7  C   UNK A  2       25.322 -20.339   4.779  0.00  0.00    +0.080 C 
ATOM      8  S   UNK A  2       25.843 -21.330   6.221  0.00  0.00    -0.141 S 
ATOM      9  C   UNK A  2       27.416 -20.476   6.581  0.00  0.00    +0.081 C 
ATOM     10  C   UNK A  2       27.688 -19.333   5.616  0.00  0.00    +0.081 C 
ATOM     11  S   UNK A  2       26.924 -19.777   4.022  0.00  0.00    -0.141 S 
ATOM     12  C   UNK A  2       24.543 -19.095   5.185  0.00  0.00    +0.137 C 
ATOM     13  O   ALA A  1       21.353 -18.192   3.741  0.00  0.00    -0.274 OA
BRANCH   5  14
ATOM     14  C   UNK A  2       22.123 -21.168   5.102  0.00  0.00    +0.326 C 
ATOM     15  O   UNK A  2       22.487 -21.397   6.246  0.00  0.00    -0.249 OA
BRANCH  14  16
ATOM     16  O   UNK A  2       20.907 -21.571   4.653  0.00  0.00    -0.479 OA
ATOM     17  H   UNK A  2       20.569 -21.046   3.892  0.00  0.00    +0.295 HD
ENDBRANCH  14  16
ENDBRANCH   5  14
ENDBRANCH   1   3
BRANCH   1  18
ATOM     18  N   ALA A  1       23.232 -15.629   3.759  0.00  0.00    -0.294 NA
ATOM     19  H   ALA A  1       22.605 -14.812   3.842  0.00  0.00    +0.123 HD
BRANCH  18  20
ATOM     20  C   UNK A  0       24.581 -15.039   3.820  0.00  0.00    +0.164 C 
BRANCH  20  21
ATOM     21  C   UNK A  0       24.519 -13.882   2.842  0.00  0.00    +0.324 C 
ATOM     22  O   UNK A  0       25.227 -13.704   1.940  0.00  0.00    -0.249 OA
BRANCH  21  23
ATOM     23  O   UNK A  0       23.476 -13.109   3.188  0.00  0.00    -0.464 OA
BRANCH  23  25
ATOM     24  C   UNK A  0       23.899 -11.516   5.110  0.00  0.00    +0.048 C 
ATOM     25  C   UNK A  0       23.899 -11.821   3.587  0.00  0.00    +0.229 C 
ENDBRANCH  23  25
ENDBRANCH  21  23
ENDBRANCH  20  21
BRANCH  20  26
ATOM     26  C   UNK A  0       25.692 -16.007   3.315  0.00  0.00    +0.035 C 
BRANCH  26  27
ATOM     27  C   UNK A  0       27.189 -15.703   3.713  0.00  0.00    +0.037 C 
BRANCH  27  28
ATOM     28  C   UNK A  0       27.685 -14.304   4.120  0.00  0.00    -0.047 A 
ATOM     29  C   UNK A  0       27.366 -13.757   5.368  0.00  0.00    +0.003 A 
ATOM     30  C   UNK A  0       27.995 -12.586   5.857  0.00  0.00    +0.000 A 
ATOM     31  C   UNK A  0       28.970 -11.925   5.116  0.00  0.00    +0.000 A 
ATOM     32  C   UNK A  0       29.204 -12.362   3.821  0.00  0.00    +0.000 A 
ATOM     33  C   UNK A  0       28.540 -13.529   3.311  0.00  0.00    +0.003 A 
ENDBRANCH  27  28
ENDBRANCH  26  27
ENDBRANCH  20  26
ENDBRANCH  18  20
ENDBRANCH   1  18
TORSDOF 11
ENDMDL
MODEL 2
REMARK VINA RESULT:       1.0      2.358      6.880
REMARK  Name = *****
REMARK                            x       y       z     vdW  Elec       q    Type
REMARK                         _______ _______ _______ _____ _____    ______ ____
ROOT
ATOM      1  CA  ALA A  1       24.669 -17.580   4.009  0.00  0.00    +0.138 C 
ATOM      2  CB  ALA A  1       26.014 -17.341   3.292  0.00  0.00    +0.034 C 
ENDROOT
BRANCH   1   3
ATOM      3  C   ALA A  1       23.901 -16.206   4.122  0.00  0.00    +0.233 C 
ATOM      4  N   UNK A  2       24.572 -15.004   4.061  0.00  0.00    -0.284 N 
ATOM      5  C   UNK A  2       23.923 -13.704   4.114  0.00  0.00    +0.187 C 
ATOM      6  C   UNK A  2       25.016 -12.779   4.692  0.00  0.00    +0.064 C 
ATOM      7  C   UNK A  2       26.363 -13.399   4.290  0.00  0.00    +0.080 C 
ATOM      8  S   UNK A  2       27.241 -12.484   2.975  0.00  0.00    -0.141 S 
ATOM      9  C   UNK A  2       28.940 -13.033   3.354  0.00  0.00    +0.081 C 
ATOM     10  C   UNK A  2       28.990 -13.985   4.539  0.00  0.00    +0.081 C 
ATOM     11  S   UNK A  2       27.619 -13.536   5.653  0.00  0.00    -0.141 S 
ATOM     12  C   UNK A  2       25.992 -14.812   3.861  0.00  0.00    +0.137 C 
ATOM     13  O   ALA A  1       22.665 -16.184   4.215  0.00  0.00    -0.274 OA
BRANCH   5  14
ATOM     14  C   UNK A  2       23.444 -13.280   2.711  0.00  0.00    +0.326 C 
ATOM     15  O   UNK A  2       23.028 -14.049   1.857  0.00  0.00    -0.249 OA
BRANCH  14  16
ATOM     16  O   UNK A  2       23.536 -11.945   2.477  0.00  0.00    -0.479 OA
ATOM     17  H   UNK A  2       22.753 -11.566   2.018  0.00  0.00    +0.295 HD
ENDBRANCH  14  16
ENDBRANCH   5  14
ENDBRANCH   1   3
BRANCH   1  18
ATOM     18  N   ALA A  1       23.814 -18.675   3.450  0.00  0.00    -0.294 NA
ATOM     19  H   ALA A  1       24.333 -19.054   2.641  0.00  0.00    +0.123 HD
BRANCH  18  20
ATOM     20  C   UNK A  0       23.566 -19.861   4.290  0.00  0.00    +0.164 C 
BRANCH  20  21
ATOM     21  C   UNK A  0       22.056 -19.914   4.411  0.00  0.00    +0.324 C 
ATOM     22  O   UNK A  0       21.432 -20.775   4.876  0.00  0.00    -0.249 OA
BRANCH  21  23
ATOM     23  O   UNK A  0       21.564 -18.768   3.909  0.00  0.00    -0.464 OA
BRANCH  23  25
ATOM     24  C   UNK A  0       19.445 -18.143   2.674  0.00  0.00    +0.048 C 
ATOM     25  C   UNK A  0       20.151 -18.772   3.907  0.00  0.00    +0.229 C 
ENDBRANCH  23  25
ENDBRANCH  21  23
ENDBRANCH  20  21
BRANCH  20  26
ATOM     26  C   UNK A  0       24.137 -19.714   5.732  0.00  0.00    +0.035 C 
BRANCH  26  27
ATOM     27  C   UNK A  0       25.140 -20.816   6.256  0.00  0.00    +0.037 C 
BRANCH  27  28
ATOM     28  C   UNK A  0       26.670 -20.656   6.202  0.00  0.00    -0.047 A 
ATOM     29  C   UNK A  0       27.265 -19.602   5.500  0.00  0.00    +0.003 A 
ATOM     30  C   UNK A  0       28.643 -19.298   5.627  0.00  0.00    +0.000 A 
ATOM     31  C   UNK A  0       29.472 -20.037   6.465  0.00  0.00    +0.000 A 
ATOM     32  C   UNK A  0       28.943 -21.171   7.062  0.00  0.00    +0.000 A 
ATOM     33  C   UNK A  0       27.553 -21.500   6.906  0.00  0.00    +0.003 A 
ENDBRANCH  27  28
ENDBRANCH  26  27
ENDBRANCH  20  26
ENDBRANCH  18  20
ENDBRANCH   1  18
TORSDOF 11
ENDMDL
