MODEL 1
REMARK VINA RESULT:      -6.2      0.000      0.000
REMARK  Name = *****
REMARK                            x       y       z     vdW  Elec       q    Type
REMARK                         _______ _______ _______ _____ _____    ______ ____
ROOT
ATOM      1  C   LIG    1       25.688 -21.212   8.928  0.00  0.00    +0.155 C 
ATOM      2  N   LIG    1       25.450 -20.896   7.535  0.00  0.00    -0.280 N 
ATOM      3  C   LIG    1       24.147 -20.998   7.036  0.00  0.00    +0.333 C 
ATOM      4  O   LIG    1       23.207 -21.345   7.756  0.00  0.00    -0.246 OA
ATOM      5  N   LIG    1       23.951 -20.687   5.674  0.00  0.00    -0.262 N 
ATOM      6  C   LIG    1       22.595 -20.804   5.176  0.00  0.00    +0.157 C 
ATOM      7  C   LIG    1       24.946 -20.280   4.783  0.00  0.00    +0.282 C 
ATOM      8  O   LIG    1       24.768 -20.006   3.601  0.00  0.00    -0.265 OA
ATOM      9  C   LIG    1       26.225 -20.211   5.390  0.00  0.00    +0.149 A 
ATOM     10  N   LIG    1       27.435 -19.864   4.864  0.00  0.00    -0.339 N 
ATOM     11  H   LIG    1       27.616 -19.588   3.908  0.00  0.00    +0.167 HD
ATOM     12  C   LIG    1       28.347 -19.967   5.883  0.00  0.00    +0.199 A 
ATOM     13  N   LIG    1       27.780 -20.355   7.009  0.00  0.00    -0.218 NA
ATOM     14  C   LIG    1       26.463 -20.504   6.696  0.00  0.00    +0.168 A 
ENDROOT
TORSDOF 0
ENDMDL
MODEL 2
REMARK VINA RESULT:      -6.1      1.801      3.320
REMARK  Name = *****
REMARK                            x       y       z     vdW  Elec       q    Type
REMARK                         _______ _______ _______ _____ _____    ______ ____
ROOT
ATOM      1  C   LIG    1       23.559 -21.433   7.718  0.00  0.00    +0.155 C 
ATOM      2  N   LIG    1       24.792 -20.969   7.116  0.00  0.00    -0.280 N 
ATOM      3  C   LIG    1       25.910 -20.780   7.934  0.00  0.00    +0.333 C 
ATOM      4  O   LIG    1       25.865 -21.004   9.148  0.00  0.00    -0.246 OA
ATOM      5  N   LIG    1       27.093 -20.324   7.317  0.00  0.00    -0.262 N 
ATOM      6  C   LIG    1       28.239 -20.130   8.184  0.00  0.00    +0.157 C 
ATOM      7  C   LIG    1       27.244 -20.050   5.956  0.00  0.00    +0.282 C 
ATOM      8  O   LIG    1       28.278 -19.658   5.425  0.00  0.00    -0.265 OA
ATOM      9  C   LIG    1       26.054 -20.273   5.220  0.00  0.00    +0.149 A 
ATOM     10  N   LIG    1       25.796 -20.120   3.889  0.00  0.00    -0.339 N 
ATOM     11  H   LIG    1       26.450 -19.807   3.184  0.00  0.00    +0.167 HD
ATOM     12  C   LIG    1       24.484 -20.471   3.703  0.00  0.00    +0.199 A 
ATOM     13  N   LIG    1       23.910 -20.834   4.834  0.00  0.00    -0.218 NA
ATOM     14  C   LIG    1       24.891 -20.708   5.772  0.00  0.00    +0.168 A 
ENDROOT
TORSDOF 0
ENDMDL
MODEL 3
REMARK VINA RESULT:      -5.9      1.818      4.525
REMARK  Name = *****
REMARK                            x       y       z     vdW  Elec       q    Type
REMARK                         _______ _______ _______ _____ _____    ______ ____
ROOT
ATOM      1  C   LIG    1       25.537 -20.085   3.898  0.00  0.00    +0.155 C 
ATOM      2  N   LIG    1       25.667 -20.354   5.314  0.00  0.00    -0.280 N 
ATOM      3  C   LIG    1       26.888 -20.085   5.940  0.00  0.00    +0.333 C 
ATOM      4  O   LIG    1       27.846 -19.623   5.311  0.00  0.00    -0.246 OA
ATOM      5  N   LIG    1       26.983 -20.362   7.319  0.00  0.00    -0.262 N 
ATOM      6  C   LIG    1       28.259 -20.081   7.947  0.00  0.00    +0.157 C 
ATOM      7  C   LIG    1       25.957 -20.877   8.115  0.00  0.00    +0.282 C 
ATOM      8  O   LIG    1       26.045 -21.111   9.316  0.00  0.00    -0.265 OA
ATOM      9  C   LIG    1       24.766 -21.113   7.384  0.00  0.00    +0.149 A 
ATOM     10  N   LIG    1       23.562 -21.606   7.792  0.00  0.00    -0.339 N 
ATOM     11  H   LIG    1       23.320 -21.896   8.730  0.00  0.00    +0.167 HD
ATOM     12  C   LIG    1       22.756 -21.633   6.684  0.00  0.00    +0.199 A 
ATOM     13  N   LIG    1       23.382 -21.186   5.612  0.00  0.00    -0.218 NA
ATOM     14  C   LIG    1       24.631 -20.865   6.055  0.00  0.00    +0.168 A 
ENDROOT
TORSDOF 0
ENDMDL
MODEL 4
REMARK VINA RESULT:      -5.7      1.440      2.953
REMARK  Name = *****
REMARK                            x       y       z     vdW  Elec       q    Type
REMARK                         _______ _______ _______ _____ _____    ______ ____
ROOT
ATOM      1  C   LIG    1       25.526 -19.905   3.794  0.00  0.00    +0.155 C 
ATOM      2  N   LIG    1       25.544 -20.331   5.178  0.00  0.00    -0.280 N 
ATOM      3  C   LIG    1       24.373 -20.851   5.737  0.00  0.00    +0.333 C 
ATOM      4  O   LIG    1       23.335 -20.955   5.077  0.00  0.00    -0.246 OA
ATOM      5  N   LIG    1       24.425 -21.252   7.089  0.00  0.00    -0.262 N 
ATOM      6  C   LIG    1       23.198 -21.783   7.650  0.00  0.00    +0.157 C 
ATOM      7  C   LIG    1       25.549 -21.179   7.914  0.00  0.00    +0.282 C 
ATOM      8  O   LIG    1       25.589 -21.535   9.087  0.00  0.00    -0.265 OA
ATOM      9  C   LIG    1       26.678 -20.639   7.250  0.00  0.00    +0.149 A 
ATOM     10  N   LIG    1       27.943 -20.405   7.704  0.00  0.00    -0.339 N 
ATOM     11  H   LIG    1       28.289 -20.591   8.636  0.00  0.00    +0.167 HD
ATOM     12  C   LIG    1       28.642 -19.870   6.654  0.00  0.00    +0.199 A 
ATOM     13  N   LIG    1       27.893 -19.756   5.574  0.00  0.00    -0.218 NA
ATOM     14  C   LIG    1       26.674 -20.236   5.952  0.00  0.00    +0.168 A 
ENDROOT
TORSDOF 0
ENDMDL
MODEL 5
REMARK VINA RESULT:      -5.6      2.641      4.146
REMARK  Name = *****
REMARK                            x       y       z     vdW  Elec       q    Type
REMARK                         _______ _______ _______ _____ _____    ______ ____
ROOT
ATOM      1  C   LIG    1       26.525 -22.274   7.958  0.00  0.00    +0.155 C 
ATOM      2  N   LIG    1       27.256 -21.271   7.211  0.00  0.00    -0.280 N 
ATOM      3  C   LIG    1       28.546 -20.929   7.630  0.00  0.00    +0.333 C 
ATOM      4  O   LIG    1       29.067 -21.464   8.613  0.00  0.00    -0.246 OA
ATOM      5  N   LIG    1       29.228 -19.946   6.883  0.00  0.00    -0.262 N 
ATOM      6  C   LIG    1       30.561 -19.602   7.337  0.00  0.00    +0.157 C 
ATOM      7  C   LIG    1       28.727 -19.290   5.756  0.00  0.00    +0.282 C 
ATOM      8  O   LIG    1       29.328 -18.440   5.108  0.00  0.00    -0.265 OA
ATOM      9  C   LIG    1       27.416 -19.710   5.420  0.00  0.00    +0.149 A 
ATOM     10  N   LIG    1       26.594 -19.313   4.407  0.00  0.00    -0.339 N 
ATOM     11  H   LIG    1       26.804 -18.619   3.702  0.00  0.00    +0.167 HD
ATOM     12  C   LIG    1       25.436 -20.035   4.538  0.00  0.00    +0.199 A 
ATOM     13  N   LIG    1       25.486 -20.857   5.569  0.00  0.00    -0.218 NA
ATOM     14  C   LIG    1       26.719 -20.650   6.111  0.00  0.00    +0.168 A 
ENDROOT
TORSDOF 0
ENDMDL
MODEL 6
REMARK VINA RESULT:      -5.6      3.600      5.219
REMARK  Name = *****
REMARK                            x       y       z     vdW  Elec       q    Type
REMARK                         _______ _______ _______ _____ _____    ______ ____
ROOT
ATOM      1  C   LIG    1       27.411 -22.037   7.581  0.00  0.00    +0.155 C 
ATOM      2  N   LIG    1       28.509 -21.107   7.423  0.00  0.00    -0.280 N 
ATOM      3  C   LIG    1       28.395 -20.088   6.473  0.00  0.00    +0.333 C 
ATOM      4  O   LIG    1       27.382 -19.967   5.777  0.00  0.00    -0.246 OA
ATOM      5  N   LIG    1       29.485 -19.202   6.341  0.00  0.00    -0.262 N 
ATOM      6  C   LIG    1       29.348 -18.156   5.347  0.00  0.00    +0.157 C 
ATOM      7  C   LIG    1       30.666 -19.253   7.084  0.00  0.00    +0.282 C 
ATOM      8  O   LIG    1       31.608 -18.477   6.968  0.00  0.00    -0.265 OA
ATOM      9  C   LIG    1       30.678 -20.322   8.015  0.00  0.00    +0.149 A 
ATOM     10  N   LIG    1       31.635 -20.705   8.908  0.00  0.00    -0.339 N 
ATOM     11  H   LIG    1       32.533 -20.263   9.051  0.00  0.00    +0.167 HD
ATOM     12  C   LIG    1       31.140 -21.803   9.564  0.00  0.00    +0.199 A 
ATOM     13  N   LIG    1       29.934 -22.125   9.136  0.00  0.00    -0.218 NA
ATOM     14  C   LIG    1       29.654 -21.201   8.174  0.00  0.00    +0.168 A 
ENDROOT
TORSDOF 0
ENDMDL
MODEL 7
REMARK VINA RESULT:      -5.3      3.417      5.273
REMARK  Name = *****
REMARK                            x       y       z     vdW  Elec       q    Type
REMARK                         _______ _______ _______ _____ _____    ______ ____
ROOT
ATOM      1  C   LIG    1       29.248 -18.000   5.373  0.00  0.00    +0.155 C 
ATOM      2  N   LIG    1       29.334 -19.050   6.367  0.00  0.00    -0.280 N 
ATOM      3  C   LIG    1       28.378 -20.070   6.351  0.00  0.00    +0.333 C 
ATOM      4  O   LIG    1       27.474 -20.092   5.511  0.00  0.00    -0.246 OA
ATOM      5  N   LIG    1       28.489 -21.075   7.334  0.00  0.00    -0.262 N 
ATOM      6  C   LIG    1       27.484 -22.120   7.304  0.00  0.00    +0.157 C 
ATOM      7  C   LIG    1       29.476 -21.141   8.320  0.00  0.00    +0.282 C 
ATOM      8  O   LIG    1       29.570 -22.020   9.169  0.00  0.00    -0.265 OA
ATOM      9  C   LIG    1       30.392 -20.061   8.246  0.00  0.00    +0.149 A 
ATOM     10  N   LIG    1       31.477 -19.769   9.018  0.00  0.00    -0.339 N 
ATOM     11  H   LIG    1       31.814 -20.306   9.806  0.00  0.00    +0.167 HD
ATOM     12  C   LIG    1       32.011 -18.609   8.518  0.00  0.00    +0.199 A 
ATOM     13  N   LIG    1       31.327 -18.163   7.482  0.00  0.00    -0.218 NA
ATOM     14  C   LIG    1       30.323 -19.069   7.319  0.00  0.00    +0.168 A 
ENDROOT
TORSDOF 0
ENDMDL
MODEL 8
REMARK VINA RESULT:      -5.3      2.208      3.408
REMARK  Name = *****
REMARK                            x       y       z     vdW  Elec       q    Type
REMARK                         _______ _______ _______ _____ _____    ______ ____
ROOT
ATOM      1  C   LIG    1       27.692 -21.618   7.569  0.00  0.00    +0.155 C 
ATOM      2  N   LIG    1       26.643 -21.521   6.577  0.00  0.00    -0.280 N 
ATOM      3  C   LIG    1       26.637 -20.424   5.710  0.00  0.00    +0.333 C 
ATOM      4  O   LIG    1       27.504 -19.548   5.774  0.00  0.00    -0.246 OA
ATOM      5  N   LIG    1       25.599 -20.359   4.757  0.00  0.00    -0.262 N 
ATOM      6  C   LIG    1       25.608 -19.210   3.873  0.00  0.00    +0.157 C 
ATOM      7  C   LIG    1       24.579 -21.300   4.603  0.00  0.00    +0.282 C 
ATOM      8  O   LIG    1       23.682 -21.240   3.769  0.00  0.00    -0.265 OA
ATOM      9  C   LIG    1       24.679 -22.368   5.529  0.00  0.00    +0.149 A 
ATOM     10  N   LIG    1       23.887 -23.465   5.701  0.00  0.00    -0.339 N 
ATOM     11  H   LIG    1       23.062 -23.699   5.166  0.00  0.00    +0.167 HD
ATOM     12  C   LIG    1       24.430 -24.179   6.738  0.00  0.00    +0.199 A 
ATOM     13  N   LIG    1       25.510 -23.595   7.222  0.00  0.00    -0.218 NA
ATOM     14  C   LIG    1       25.658 -22.471   6.466  0.00  0.00    +0.168 A 
ENDROOT
TORSDOF 0
ENDMDL
MODEL 9
REMARK VINA RESULT:      -5.3      1.843      2.547
REMARK  Name = *****
REMARK                            x       y       z     vdW  Elec       q    Type
REMARK                         _______ _______ _______ _____ _____    ______ ____
ROOT
ATOM      1  C   LIG    1       22.548 -22.973   6.833  0.00  0.00    +0.155 C 
ATOM      2  N   LIG    1       23.502 -22.061   6.236  0.00  0.00    -0.280 N 
ATOM      3  C   LIG    1       23.046 -21.131   5.298  0.00  0.00    +0.333 C 
ATOM      4  O   LIG    1       21.855 -21.072   4.975  0.00  0.00    -0.246 OA
ATOM      5  N   LIG    1       24.002 -20.261   4.733  0.00  0.00    -0.262 N 
ATOM      6  C   LIG    1       23.509 -19.308   3.758  0.00  0.00    +0.157 C 
ATOM      7  C   LIG    1       25.365 -20.246   5.037  0.00  0.00    +0.282 C 
ATOM      8  O   LIG    1       26.190 -19.483   4.546  0.00  0.00    -0.265 OA
ATOM      9  C   LIG    1       25.719 -21.227   5.997  0.00  0.00    +0.149 A 
ATOM     10  N   LIG    1       26.931 -21.529   6.545  0.00  0.00    -0.339 N 
ATOM     11  H   LIG    1       27.811 -21.076   6.340  0.00  0.00    +0.167 HD
ATOM     12  C   LIG    1       26.717 -22.563   7.419  0.00  0.00    +0.199 A 
ATOM     13  N   LIG    1       25.447 -22.922   7.450  0.00  0.00    -0.218 NA
ATOM     14  C   LIG    1       24.834 -22.088   6.564  0.00  0.00    +0.168 A 
ENDROOT
TORSDOF 0
ENDMDL
