MODEL 1
REMARK VINA RESULT:      -4.8      0.000      0.000
REMARK  Name = *****
REMARK                            x       y       z     vdW  Elec       q    Type
REMARK                         _______ _______ _______ _____ _____    ______ ____
ROOT
ATOM      1  C   LIG    1       25.497 -20.729   6.124  0.00  0.00    -0.014 A 
ATOM      2  C   LIG    1       25.230 -21.008   4.772  0.00  0.00    +0.055 A 
ATOM      3  C   LIG    1       23.928 -21.270   4.361  0.00  0.00    +0.159 A 
ATOM      4  C   LIG    1       22.874 -21.249   5.265  0.00  0.00    +0.158 A 
ATOM      5  C   LIG    1       23.110 -20.975   6.606  0.00  0.00    +0.049 A 
ATOM      6  C   LIG    1       24.419 -20.716   7.029  0.00  0.00    +0.010 A 
ENDROOT
BRANCH   3   7
ATOM      7  O   LIG    1       23.692 -21.539   3.042  0.00  0.00    -0.503 OA
ATOM      8  H   LIG    1       23.502 -20.664   2.649  0.00  0.00    +0.292 HD
ENDBRANCH   3   7
BRANCH   4   9
ATOM      9  O   LIG    1       21.617 -21.498   4.787  0.00  0.00    -0.503 OA
ATOM     10  H   LIG    1       21.328 -22.357   5.142  0.00  0.00    +0.292 HD
ENDBRANCH   4   9
BRANCH   1  11
ATOM     11  C   LIG    1       26.914 -20.404   6.560  0.00  0.00    +0.158 C 
BRANCH  11  12
ATOM     12  O   LIG    1       27.587 -21.568   7.061  0.00  0.00    -0.386 OA
ATOM     13  H   LIG    1       28.527 -21.303   7.112  0.00  0.00    +0.210 HD
ENDBRANCH  11  12
BRANCH  11  14
ATOM     14  C   LIG    1       27.778 -19.800   5.424  0.00  0.00    +0.116 C 
BRANCH  14  16
ATOM     15  C   LIG    1       29.475 -18.539   6.580  0.00  0.00    +0.101 C 
ATOM     16  N   LIG    1       29.203 -19.759   5.824  0.00  0.00    -0.316 NA
ATOM     17  H   LIG    1       29.402 -20.561   6.425  0.00  0.00    +0.122 HD
ENDBRANCH  14  16
ENDBRANCH  11  14
ENDBRANCH   1  11
TORSDOF 6
ENDMDL
MODEL 2
REMARK VINA RESULT:      -4.8      2.592      5.092
REMARK  Name = *****
REMARK                            x       y       z     vdW  Elec       q    Type
REMARK                         _______ _______ _______ _____ _____    ______ ____
ROOT
ATOM      1  C   LIG    1       25.559 -20.489   5.365  0.00  0.00    -0.014 A 
ATOM      2  C   LIG    1       26.600 -19.626   4.977  0.00  0.00    +0.055 A 
ATOM      3  C   LIG    1       27.852 -19.739   5.569  0.00  0.00    +0.159 A 
ATOM      4  C   LIG    1       28.102 -20.704   6.536  0.00  0.00    +0.158 A 
ATOM      5  C   LIG    1       27.093 -21.570   6.936  0.00  0.00    +0.049 A 
ATOM      6  C   LIG    1       25.826 -21.459   6.349  0.00  0.00    +0.010 A 
ENDROOT
BRANCH   3   7
ATOM      7  O   LIG    1       28.849 -18.890   5.177  0.00  0.00    -0.503 OA
ATOM      8  H   LIG    1       28.377 -18.149   4.747  0.00  0.00    +0.292 HD
ENDBRANCH   3   7
BRANCH   4   9
ATOM      9  O   LIG    1       29.364 -20.770   7.061  0.00  0.00    -0.503 OA
ATOM     10  H   LIG    1       29.394 -21.530   7.668  0.00  0.00    +0.292 HD
ENDBRANCH   4   9
BRANCH   1  11
ATOM     11  C   LIG    1       24.204 -20.387   4.687  0.00  0.00    +0.158 C 
BRANCH  11  12
ATOM     12  O   LIG    1       23.906 -21.572   3.935  0.00  0.00    -0.386 OA
ATOM     13  H   LIG    1       23.864 -22.282   4.607  0.00  0.00    +0.210 HD
ENDBRANCH  11  12
BRANCH  11  14
ATOM     14  C   LIG    1       23.042 -20.141   5.683  0.00  0.00    +0.116 C 
BRANCH  14  16
ATOM     15  C   LIG    1       22.687 -18.324   4.140  0.00  0.00    +0.101 C 
ATOM     16  N   LIG    1       22.041 -19.225   5.091  0.00  0.00    -0.316 NA
ATOM     17  H   LIG    1       21.342 -19.776   4.589  0.00  0.00    +0.122 HD
ENDBRANCH  14  16
ENDBRANCH  11  14
ENDBRANCH   1  11
TORSDOF 6
ENDMDL
MODEL 3
REMARK VINA RESULT:      -4.0      6.040      6.644
REMARK  Name = *****
REMARK                            x       y       z     vdW  Elec       q    Type
REMARK                         _______ _______ _______ _____ _____    ______ ____
ROOT
ATOM      1  C   LIG    1       25.736 -15.956   3.329  0.00  0.00    -0.014 A 
ATOM      2  C   LIG    1       26.467 -14.844   2.874  0.00  0.00    +0.055 A 
ATOM      3  C   LIG    1       25.944 -13.564   3.013  0.00  0.00    +0.159 A 
ATOM      4  C   LIG    1       24.707 -13.358   3.610  0.00  0.00    +0.158 A 
ATOM      5  C   LIG    1       23.964 -14.438   4.070  0.00  0.00    +0.049 A 
ATOM      6  C   LIG    1       24.482 -15.731   3.928  0.00  0.00    +0.010 A 
ENDROOT
BRANCH   3   7
ATOM      7  O   LIG    1       26.672 -12.498   2.563  0.00  0.00    -0.503 OA
ATOM      8  H   LIG    1       26.032 -11.976   2.037  0.00  0.00    +0.292 HD
ENDBRANCH   3   7
BRANCH   4   9
ATOM      9  O   LIG    1       24.263 -12.070   3.730  0.00  0.00    -0.503 OA
ATOM     10  H   LIG    1       23.349 -12.038   3.397  0.00  0.00    +0.292 HD
ENDBRANCH   4   9
BRANCH   1  11
ATOM     11  C   LIG    1       26.330 -17.348   3.211  0.00  0.00    +0.158 C 
BRANCH  11  12
ATOM     12  O   LIG    1       27.525 -17.474   3.994  0.00  0.00    -0.386 OA
ATOM     13  H   LIG    1       27.680 -18.439   4.048  0.00  0.00    +0.210 HD
ENDBRANCH  11  12
BRANCH  11  14
ATOM     14  C   LIG    1       25.349 -18.467   3.642  0.00  0.00    +0.116 C 
BRANCH  14  16
ATOM     15  C   LIG    1       25.345 -20.469   4.984  0.00  0.00    +0.101 C 
ATOM     16  N   LIG    1       26.093 -19.699   3.993  0.00  0.00    -0.316 NA
ATOM     17  H   LIG    1       26.200 -20.272   3.154  0.00  0.00    +0.122 HD
ENDBRANCH  14  16
ENDBRANCH  11  14
ENDBRANCH   1  11
TORSDOF 6
ENDMDL
MODEL 4
REMARK VINA RESULT:      -4.0      2.635      5.153
REMARK  Name = *****
REMARK                            x       y       z     vdW  Elec       q    Type
REMARK                         _______ _______ _______ _____ _____    ______ ____
ROOT
ATOM      1  C   LIG    1       25.425 -20.669   5.451  0.00  0.00    -0.014 A 
ATOM      2  C   LIG    1       26.486 -20.914   6.340  0.00  0.00    +0.055 A 
ATOM      3  C   LIG    1       27.692 -20.242   6.185  0.00  0.00    +0.159 A 
ATOM      4  C   LIG    1       27.869 -19.315   5.167  0.00  0.00    +0.158 A 
ATOM      5  C   LIG    1       26.837 -19.052   4.275  0.00  0.00    +0.049 A 
ATOM      6  C   LIG    1       25.620 -19.730   4.421  0.00  0.00    +0.010 A 
ENDROOT
BRANCH   3   7
ATOM      7  O   LIG    1       28.710 -20.496   7.062  0.00  0.00    -0.503 OA
ATOM      8  H   LIG    1       28.917 -21.443   6.921  0.00  0.00    +0.292 HD
ENDBRANCH   3   7
BRANCH   4   9
ATOM      9  O   LIG    1       29.076 -18.677   5.085  0.00  0.00    -0.503 OA
ATOM     10  H   LIG    1       29.079 -18.148   4.269  0.00  0.00    +0.292 HD
ENDBRANCH   4   9
BRANCH   1  11
ATOM     11  C   LIG    1       24.097 -21.376   5.649  0.00  0.00    +0.158 C 
BRANCH  11  12
ATOM     12  O   LIG    1       23.668 -21.310   7.017  0.00  0.00    -0.386 OA
ATOM     13  H   LIG    1       23.697 -20.356   7.235  0.00  0.00    +0.210 HD
ENDBRANCH  11  12
BRANCH  11  14
ATOM     14  C   LIG    1       22.964 -20.805   4.760  0.00  0.00    +0.116 C 
BRANCH  14  16
ATOM     15  C   LIG    1       22.155 -18.567   4.375  0.00  0.00    +0.101 C 
ATOM     16  N   LIG    1       22.374 -19.599   5.385  0.00  0.00    -0.316 NA
ATOM     17  H   LIG    1       21.471 -19.846   5.794  0.00  0.00    +0.122 HD
ENDBRANCH  14  16
ENDBRANCH  11  14
ENDBRANCH   1  11
TORSDOF 6
ENDMDL
MODEL 5
REMARK VINA RESULT:      -3.9      1.939      2.428
REMARK  Name = *****
REMARK                            x       y       z     vdW  Elec       q    Type
REMARK                         _______ _______ _______ _____ _____    ______ ____
ROOT
ATOM      1  C   LIG    1       25.213 -20.100   4.895  0.00  0.00    -0.014 A 
ATOM      2  C   LIG    1       24.135 -20.927   5.259  0.00  0.00    +0.055 A 
ATOM      3  C   LIG    1       22.839 -20.574   4.905  0.00  0.00    +0.159 A 
ATOM      4  C   LIG    1       22.585 -19.417   4.181  0.00  0.00    +0.158 A 
ATOM      5  C   LIG    1       23.631 -18.583   3.806  0.00  0.00    +0.049 A 
ATOM      6  C   LIG    1       24.939 -18.929   4.164  0.00  0.00    +0.010 A 
ENDROOT
BRANCH   3   7
ATOM      7  O   LIG    1       21.806 -21.392   5.271  0.00  0.00    -0.503 OA
ATOM      8  H   LIG    1       22.247 -22.190   5.626  0.00  0.00    +0.292 HD
ENDBRANCH   3   7
BRANCH   4   9
ATOM      9  O   LIG    1       21.286 -19.141   3.851  0.00  0.00    -0.503 OA
ATOM     10  H   LIG    1       21.257 -18.242   3.481  0.00  0.00    +0.292 HD
ENDBRANCH   4   9
BRANCH   1  11
ATOM     11  C   LIG    1       26.631 -20.511   5.249  0.00  0.00    +0.158 C 
BRANCH  11  12
ATOM     12  O   LIG    1       27.587 -19.553   4.774  0.00  0.00    -0.386 OA
ATOM     13  H   LIG    1       27.513 -19.597   3.799  0.00  0.00    +0.210 HD
ENDBRANCH  11  12
BRANCH  11  14
ATOM     14  C   LIG    1       26.848 -20.695   6.773  0.00  0.00    +0.116 C 
BRANCH  14  16
ATOM     15  C   LIG    1       29.239 -20.775   7.062  0.00  0.00    +0.101 C 
ATOM     16  N   LIG    1       28.015 -21.571   7.026  0.00  0.00    -0.316 NA
ATOM     17  H   LIG    1       27.899 -22.024   7.935  0.00  0.00    +0.122 HD
ENDBRANCH  14  16
ENDBRANCH  11  14
ENDBRANCH   1  11
TORSDOF 6
ENDMDL
MODEL 6
REMARK VINA RESULT:      -3.7      4.688      5.226
REMARK  Name = *****
REMARK                            x       y       z     vdW  Elec       q    Type
REMARK                         _______ _______ _______ _____ _____    ______ ____
ROOT
ATOM      1  C   LIG    1       23.113 -17.459   4.297  0.00  0.00    -0.014 A 
ATOM      2  C   LIG    1       24.314 -17.975   3.780  0.00  0.00    +0.055 A 
ATOM      3  C   LIG    1       24.520 -19.349   3.740  0.00  0.00    +0.159 A 
ATOM      4  C   LIG    1       23.548 -20.232   4.195  0.00  0.00    +0.158 A 
ATOM      5  C   LIG    1       22.352 -19.749   4.710  0.00  0.00    +0.049 A 
ATOM      6  C   LIG    1       22.140 -18.366   4.758  0.00  0.00    +0.010 A 
ENDROOT
BRANCH   3   7
ATOM      7  O   LIG    1       25.695 -19.829   3.234  0.00  0.00    -0.503 OA
ATOM      8  H   LIG    1       26.267 -19.038   3.164  0.00  0.00    +0.292 HD
ENDBRANCH   3   7
BRANCH   4   9
ATOM      9  O   LIG    1       23.811 -21.571   4.109  0.00  0.00    -0.503 OA
ATOM     10  H   LIG    1       24.282 -21.729   3.272  0.00  0.00    +0.292 HD
ENDBRANCH   4   9
BRANCH   1  11
ATOM     11  C   LIG    1       22.877 -15.959   4.300  0.00  0.00    +0.158 C 
BRANCH  11  12
ATOM     12  O   LIG    1       22.265 -15.529   5.525  0.00  0.00    -0.386 OA
ATOM     13  H   LIG    1       22.591 -16.163   6.196  0.00  0.00    +0.210 HD
ENDBRANCH  11  12
BRANCH  11  14
ATOM     14  C   LIG    1       24.176 -15.139   4.095  0.00  0.00    +0.116 C 
BRANCH  14  16
ATOM     15  C   LIG    1       24.202 -12.982   3.020  0.00  0.00    +0.101 C 
ATOM     16  N   LIG    1       23.904 -13.692   4.261  0.00  0.00    -0.316 NA
ATOM     17  H   LIG    1       22.913 -13.564   4.476  0.00  0.00    +0.122 HD
ENDBRANCH  14  16
ENDBRANCH  11  14
ENDBRANCH   1  11
TORSDOF 6
ENDMDL
MODEL 7
REMARK VINA RESULT:      -3.6      2.205      2.622
REMARK  Name = *****
REMARK                            x       y       z     vdW  Elec       q    Type
REMARK                         _______ _______ _______ _____ _____    ______ ____
ROOT
ATOM      1  C   LIG    1       25.170 -19.659   4.094  0.00  0.00    -0.014 A 
ATOM      2  C   LIG    1       23.985 -18.914   3.957  0.00  0.00    +0.055 A 
ATOM      3  C   LIG    1       22.759 -19.497   4.256  0.00  0.00    +0.159 A 
ATOM      4  C   LIG    1       22.681 -20.809   4.704  0.00  0.00    +0.158 A 
ATOM      5  C   LIG    1       23.836 -21.567   4.851  0.00  0.00    +0.049 A 
ATOM      6  C   LIG    1       25.074 -20.989   4.546  0.00  0.00    +0.010 A 
ENDROOT
BRANCH   3   7
ATOM      7  O   LIG    1       21.620 -18.754   4.114  0.00  0.00    -0.503 OA
ATOM      8  H   LIG    1       20.906 -19.420   4.051  0.00  0.00    +0.292 HD
ENDBRANCH   3   7
BRANCH   4   9
ATOM      9  O   LIG    1       21.443 -21.311   4.998  0.00  0.00    -0.503 OA
ATOM     10  H   LIG    1       20.820 -20.977   4.329  0.00  0.00    +0.292 HD
ENDBRANCH   4   9
BRANCH   1  11
ATOM     11  C   LIG    1       26.508 -19.005   3.804  0.00  0.00    +0.158 C 
BRANCH  11  12
ATOM     12  O   LIG    1       26.340 -17.683   3.272  0.00  0.00    -0.386 OA
ATOM     13  H   LIG    1       25.814 -17.814   2.457  0.00  0.00    +0.210 HD
ENDBRANCH  11  12
BRANCH  11  14
ATOM     14  C   LIG    1       27.422 -18.910   5.052  0.00  0.00    +0.116 C 
BRANCH  14  16
ATOM     15  C   LIG    1       28.372 -20.528   6.564  0.00  0.00    +0.101 C 
ATOM     16  N   LIG    1       28.268 -20.120   5.166  0.00  0.00    -0.316 NA
ATOM     17  H   LIG    1       27.832 -20.880   4.640  0.00  0.00    +0.122 HD
ENDBRANCH  14  16
ENDBRANCH  11  14
ENDBRANCH   1  11
TORSDOF 6
ENDMDL
MODEL 8
REMARK VINA RESULT:      -3.4      5.218      6.409
REMARK  Name = *****
REMARK                            x       y       z     vdW  Elec       q    Type
REMARK                         _______ _______ _______ _____ _____    ______ ____
ROOT
ATOM      1  C   LIG    1       25.633 -17.037   3.519  0.00  0.00    -0.014 A 
ATOM      2  C   LIG    1       24.590 -16.111   3.698  0.00  0.00    +0.055 A 
ATOM      3  C   LIG    1       24.877 -14.759   3.840  0.00  0.00    +0.159 A 
ATOM      4  C   LIG    1       26.186 -14.297   3.797  0.00  0.00    +0.158 A 
ATOM      5  C   LIG    1       27.236 -15.189   3.621  0.00  0.00    +0.049 A 
ATOM      6  C   LIG    1       26.955 -16.554   3.483  0.00  0.00    +0.010 A 
ENDROOT
BRANCH   3   7
ATOM      7  O   LIG    1       23.847 -13.877   4.013  0.00  0.00    -0.503 OA
ATOM      8  H   LIG    1       24.270 -13.088   4.407  0.00  0.00    +0.292 HD
ENDBRANCH   3   7
BRANCH   4   9
ATOM      9  O   LIG    1       26.394 -12.951   3.926  0.00  0.00    -0.503 OA
ATOM     10  H   LIG    1       27.126 -12.705   3.334  0.00  0.00    +0.292 HD
ENDBRANCH   4   9
BRANCH   1  11
ATOM     11  C   LIG    1       25.311 -18.507   3.325  0.00  0.00    +0.158 C 
BRANCH  11  12
ATOM     12  O   LIG    1       26.178 -19.341   4.106  0.00  0.00    -0.386 OA
ATOM     13  H   LIG    1       26.279 -20.155   3.573  0.00  0.00    +0.210 HD
ENDBRANCH  11  12
BRANCH  11  14
ATOM     14  C   LIG    1       23.846 -18.862   3.686  0.00  0.00    +0.116 C 
BRANCH  14  16
ATOM     15  C   LIG    1       22.757 -19.957   5.536  0.00  0.00    +0.101 C 
ATOM     16  N   LIG    1       23.802 -20.083   4.524  0.00  0.00    -0.316 NA
ATOM     17  H   LIG    1       23.580 -20.884   3.930  0.00  0.00    +0.122 HD
ENDBRANCH  14  16
ENDBRANCH  11  14
ENDBRANCH   1  11
TORSDOF 6
ENDMDL
MODEL 9
REMARK VINA RESULT:      -3.3      4.197      4.556
REMARK  Name = *****
REMARK                            x       y       z     vdW  Elec       q    Type
REMARK                         _______ _______ _______ _____ _____    ______ ____
ROOT
ATOM      1  C   LIG    1       24.491 -17.356   3.714  0.00  0.00    -0.014 A 
ATOM      2  C   LIG    1       25.423 -18.409   3.694  0.00  0.00    +0.055 A 
ATOM      3  C   LIG    1       25.017 -19.701   4.004  0.00  0.00    +0.159 A 
ATOM      4  C   LIG    1       23.694 -19.979   4.325  0.00  0.00    +0.158 A 
ATOM      5  C   LIG    1       22.753 -18.958   4.350  0.00  0.00    +0.049 A 
ATOM      6  C   LIG    1       23.156 -17.652   4.045  0.00  0.00    +0.010 A 
ENDROOT
BRANCH   3   7
ATOM      7  O   LIG    1       25.939 -20.710   3.978  0.00  0.00    -0.503 OA
ATOM      8  H   LIG    1       25.718 -21.217   3.171  0.00  0.00    +0.292 HD
ENDBRANCH   3   7
BRANCH   4   9
ATOM      9  O   LIG    1       23.362 -21.277   4.600  0.00  0.00    -0.503 OA
ATOM     10  H   LIG    1       22.618 -21.267   5.228  0.00  0.00    +0.292 HD
ENDBRANCH   4   9
BRANCH   1  11
ATOM     11  C   LIG    1       24.932 -15.953   3.336  0.00  0.00    +0.158 C 
BRANCH  11  12
ATOM     12  O   LIG    1       24.288 -14.965   4.153  0.00  0.00    -0.386 OA
ATOM     13  H   LIG    1       24.660 -15.109   5.047  0.00  0.00    +0.210 HD
ENDBRANCH  11  12
BRANCH  11  14
ATOM     14  C   LIG    1       26.464 -15.746   3.446  0.00  0.00    +0.116 C 
BRANCH  14  16
ATOM     15  C   LIG    1       27.744 -13.704   3.416  0.00  0.00    +0.101 C 
ATOM     16  N   LIG    1       26.888 -14.587   2.627  0.00  0.00    -0.316 NA
ATOM     17  H   LIG    1       27.426 -14.925   1.827  0.00  0.00    +0.122 HD
ENDBRANCH  14  16
ENDBRANCH  11  14
ENDBRANCH   1  11
TORSDOF 6
ENDMDL
