MODEL 1
REMARK VINA RESULT:      -0.4      0.000      0.000
REMARK  Name = *****
REMARK                            x       y       z     vdW  Elec       q    Type
REMARK                         _______ _______ _______ _____ _____    ______ ____
ROOT
ATOM      1  C   LIG    1       27.137 -19.186   4.601  0.00  0.00    +0.132 C 
ENDROOT
BRANCH   1   2
ATOM      2  C   LIG    1       25.863 -20.087   4.759  0.00  0.00    +0.173 C 
ATOM      3  C   LIG    1       25.228 -20.583   3.448  0.00  0.00    +0.176 C 
ATOM      4  C   LIG    1       23.906 -21.322   3.680  0.00  0.00    +0.177 C 
ATOM      5  C   LIG    1       22.965 -20.499   4.555  0.00  0.00    +0.184 C 
ATOM      6  C   LIG    1       23.679 -20.043   5.846  0.00  0.00    +0.207 C 
ATOM      7  O   LIG    1       24.875 -19.315   5.496  0.00  0.00    -0.356 OA
BRANCH   3   8
ATOM      8  O   LIG    1       24.975 -19.501   2.534  0.00  0.00    -0.387 OA
ATOM      9  H   LIG    1       24.836 -19.882   1.646  0.00  0.00    +0.210 HD
ENDBRANCH   3   8
BRANCH   4  10
ATOM     10  O   LIG    1       23.256 -21.570   2.417  0.00  0.00    -0.387 OA
ATOM     11  H   LIG    1       23.485 -20.807   1.845  0.00  0.00    +0.210 HD
ENDBRANCH   4  10
BRANCH   5  12
ATOM     12  O   LIG    1       21.748 -21.215   4.782  0.00  0.00    -0.386 OA
ATOM     13  H   LIG    1       21.761 -21.449   5.734  0.00  0.00    +0.210 HD
ENDBRANCH   5  12
BRANCH   6  14
ATOM     14  S   LIG    1       24.011 -21.384   7.062  0.00  0.00    -0.131 S 
ATOM     15  C   LIG    1       25.824 -21.362   7.055  0.00  0.00    +0.087 C 
ENDBRANCH   6  14
ENDBRANCH   1   2
BRANCH   1  17
ATOM     16  C   LIG    1       26.255 -17.006   3.611  0.00  0.00    +0.231 C 
ATOM     17  N   LIG    1       26.706 -17.750   4.680  0.00  0.00    -0.306 N 
ATOM     18  H   LIG    1       27.092 -17.220   5.456  0.00  0.00    +0.149 HD
ATOM     19  O   LIG    1       26.149 -17.493   2.478  0.00  0.00    -0.274 OA
BRANCH  16  24
ATOM     20  C   LIG    1       25.858 -13.322   2.882  0.00  0.00    +0.005 C 
ATOM     21  C   LIG    1       26.509 -13.315   4.265  0.00  0.00    +0.088 C 
ATOM     22  N   LIG    1       26.976 -14.700   4.501  0.00  0.00    -0.294 NA
ATOM     23  C   LIG    1       28.266 -14.910   3.836  0.00  0.00    +0.105 C 
ATOM     24  C   LIG    1       25.871 -15.537   3.935  0.00  0.00    +0.143 C 
ATOM     25  C   LIG    1       25.337 -14.755   2.727  0.00  0.00    +0.033 C 
BRANCH  20  26
ATOM     26  C   LIG    1       24.766 -12.259   2.696  0.00  0.00    +0.004 C 
BRANCH  26  28
ATOM     27  C   LIG    1       24.360 -11.796   5.148  0.00  0.00    +0.004 C 
ATOM     28  C   LIG    1       23.744 -12.259   3.837  0.00  0.00    -0.003 C 
ENDBRANCH  26  28
ENDBRANCH  20  26
ENDBRANCH  16  24
ENDBRANCH   1  17
BRANCH   1  29
ATOM     29  C   LIG    1       28.248 -19.418   5.664  0.00  0.00    +0.134 C 
ATOM     30  C   LIG    1       29.380 -18.397   5.722  0.00  0.00    +0.039 C 
BRANCH  29  31
ATOM     31  O   LIG    1       28.822 -20.714   5.452  0.00  0.00    -0.390 OA
ATOM     32  H   LIG    1       28.172 -21.368   5.768  0.00  0.00    +0.210 HD
ENDBRANCH  29  31
ENDBRANCH   1  29
TORSDOF 11
ENDMDL
MODEL 2
REMARK VINA RESULT:       0.8      1.121      1.892
REMARK  Name = *****
REMARK                            x       y       z     vdW  Elec       q    Type
REMARK                         _______ _______ _______ _____ _____    ______ ____
ROOT
ATOM      1  C   LIG    1       27.116 -19.463   4.641  0.00  0.00    +0.132 C 
ENDROOT
BRANCH   1   2
ATOM      2  C   LIG    1       25.752 -20.226   4.780  0.00  0.00    +0.173 C 
ATOM      3  C   LIG    1       25.122 -20.714   3.464  0.00  0.00    +0.176 C 
ATOM      4  C   LIG    1       23.723 -21.308   3.669  0.00  0.00    +0.177 C 
ATOM      5  C   LIG    1       22.837 -20.358   4.469  0.00  0.00    +0.184 C 
ATOM      6  C   LIG    1       23.543 -19.917   5.770  0.00  0.00    +0.207 C 
ATOM      7  O   LIG    1       24.818 -19.328   5.443  0.00  0.00    -0.356 OA
BRANCH   3   8
ATOM      8  O   LIG    1       25.015 -19.654   2.497  0.00  0.00    -0.387 OA
ATOM      9  H   LIG    1       24.082 -19.367   2.467  0.00  0.00    +0.210 HD
ENDBRANCH   3   8
BRANCH   4  10
ATOM     10  O   LIG    1       23.102 -21.546   2.390  0.00  0.00    -0.387 OA
ATOM     11  H   LIG    1       22.854 -22.494   2.387  0.00  0.00    +0.210 HD
ENDBRANCH   4  10
BRANCH   5  12
ATOM     12  O   LIG    1       21.546 -20.938   4.672  0.00  0.00    -0.386 OA
ATOM     13  H   LIG    1       21.073 -20.818   3.822  0.00  0.00    +0.210 HD
ENDBRANCH   5  12
BRANCH   6  14
ATOM     14  S   LIG    1       23.690 -21.229   7.052  0.00  0.00    -0.131 S 
ATOM     15  C   LIG    1       25.475 -21.539   6.970  0.00  0.00    +0.087 C 
ENDBRANCH   6  14
ENDBRANCH   1   2
BRANCH   1  17
ATOM     16  C   LIG    1       26.532 -17.378   3.293  0.00  0.00    +0.231 C 
ATOM     17  N   LIG    1       26.819 -18.000   4.488  0.00  0.00    -0.306 N 
ATOM     18  H   LIG    1       27.187 -17.400   5.221  0.00  0.00    +0.149 HD
ATOM     19  O   LIG    1       26.475 -18.009   2.229  0.00  0.00    -0.274 OA
BRANCH  16  24
ATOM     20  C   LIG    1       25.987 -14.087   5.063  0.00  0.00    +0.005 C 
ATOM     21  C   LIG    1       24.875 -14.084   4.014  0.00  0.00    +0.088 C 
ATOM     22  N   LIG    1       24.822 -15.462   3.475  0.00  0.00    -0.294 NA
ATOM     23  C   LIG    1       24.043 -16.319   4.375  0.00  0.00    +0.105 C 
ATOM     24  C   LIG    1       26.264 -15.852   3.382  0.00  0.00    +0.143 C 
ATOM     25  C   LIG    1       26.954 -15.170   4.572  0.00  0.00    +0.033 C 
BRANCH  20  26
ATOM     26  C   LIG    1       26.660 -12.723   5.267  0.00  0.00    +0.004 C 
BRANCH  26  28
ATOM     27  C   LIG    1       28.529 -12.693   3.566  0.00  0.00    +0.004 C 
ATOM     28  C   LIG    1       28.174 -12.773   5.042  0.00  0.00    -0.003 C 
ENDBRANCH  26  28
ENDBRANCH  20  26
ENDBRANCH  16  24
ENDBRANCH   1  17
BRANCH   1  29
ATOM     29  C   LIG    1       28.096 -19.637   5.836  0.00  0.00    +0.134 C 
ATOM     30  C   LIG    1       29.383 -18.818   5.806  0.00  0.00    +0.039 C 
BRANCH  29  31
ATOM     31  O   LIG    1       28.447 -21.022   5.943  0.00  0.00    -0.390 OA
ATOM     32  H   LIG    1       27.815 -21.519   5.392  0.00  0.00    +0.210 HD
ENDBRANCH  29  31
ENDBRANCH   1  29
TORSDOF 11
ENDMDL
MODEL 3
REMARK VINA RESULT:       1.3      3.104      7.427
REMARK  Name = *****
REMARK                            x       y       z     vdW  Elec       q    Type
REMARK                         _______ _______ _______ _____ _____    ______ ____
ROOT
ATOM      1  C   LIG    1       24.244 -16.422   3.530  0.00  0.00    +0.132 C 
ENDROOT
BRANCH   1   2
ATOM      2  C   LIG    1       25.109 -15.115   3.582  0.00  0.00    +0.173 C 
ATOM      3  C   LIG    1       26.576 -15.266   3.142  0.00  0.00    +0.176 C 
ATOM      4  C   LIG    1       27.391 -13.988   3.370  0.00  0.00    +0.177 C 
ATOM      5  C   LIG    1       27.219 -13.476   4.797  0.00  0.00    +0.184 C 
ATOM      6  C   LIG    1       25.722 -13.354   5.157  0.00  0.00    +0.207 C 
ATOM      7  O   LIG    1       25.079 -14.629   4.954  0.00  0.00    -0.356 OA
BRANCH   3   8
ATOM      8  O   LIG    1       27.235 -16.340   3.838  0.00  0.00    -0.387 OA
ATOM      9  H   LIG    1       28.165 -16.081   3.981  0.00  0.00    +0.210 HD
ENDBRANCH   3   8
BRANCH   4  10
ATOM     10  O   LIG    1       28.790 -14.254   3.145  0.00  0.00    -0.387 OA
ATOM     11  H   LIG    1       29.276 -13.550   3.624  0.00  0.00    +0.210 HD
ENDBRANCH   4  10
BRANCH   5  12
ATOM     12  O   LIG    1       27.965 -12.270   4.984  0.00  0.00    -0.386 OA
ATOM     13  H   LIG    1       27.355 -11.548   4.725  0.00  0.00    +0.210 HD
ENDBRANCH   5  12
BRANCH   6  14
ATOM     14  S   LIG    1       24.832 -11.983   4.311  0.00  0.00    -0.131 S 
ATOM     15  C   LIG    1       23.517 -11.678   5.521  0.00  0.00    +0.087 C 
ENDBRANCH   6  14
ENDBRANCH   1   2
BRANCH   1  17
ATOM     16  C   LIG    1       24.911 -18.735   4.374  0.00  0.00    +0.231 C 
ATOM     17  N   LIG    1       24.776 -17.376   4.559  0.00  0.00    -0.306 N 
ATOM     18  H   LIG    1       24.697 -17.067   5.524  0.00  0.00    +0.149 HD
ATOM     19  O   LIG    1       24.614 -19.279   3.303  0.00  0.00    -0.274 OA
BRANCH  16  24
ATOM     20  C   LIG    1       27.084 -21.308   6.083  0.00  0.00    +0.005 C 
ATOM     21  C   LIG    1       25.726 -21.532   6.747  0.00  0.00    +0.088 C 
ATOM     22  N   LIG    1       24.746 -20.779   5.932  0.00  0.00    -0.294 NA
ATOM     23  C   LIG    1       24.363 -21.570   4.758  0.00  0.00    +0.105 C 
ATOM     24  C   LIG    1       25.480 -19.520   5.587  0.00  0.00    +0.143 C 
ATOM     25  C   LIG    1       26.951 -19.930   5.425  0.00  0.00    +0.033 C 
BRANCH  20  26
ATOM     26  C   LIG    1       28.277 -21.405   7.045  0.00  0.00    +0.004 C 
BRANCH  26  28
ATOM     27  C   LIG    1       29.304 -19.097   6.956  0.00  0.00    +0.004 C 
ATOM     28  C   LIG    1       29.472 -20.563   6.588  0.00  0.00    -0.003 C 
ENDBRANCH  26  28
ENDBRANCH  20  26
ENDBRANCH  16  24
ENDBRANCH   1  17
BRANCH   1  29
ATOM     29  C   LIG    1       22.725 -16.221   3.794  0.00  0.00    +0.134 C 
ATOM     30  C   LIG    1       22.319 -15.723   5.178  0.00  0.00    +0.039 C 
BRANCH  29  31
ATOM     31  O   LIG    1       22.049 -17.460   3.546  0.00  0.00    -0.390 OA
ATOM     32  H   LIG    1       22.708 -18.170   3.650  0.00  0.00    +0.210 HD
ENDBRANCH  29  31
ENDBRANCH   1  29
TORSDOF 11
ENDMDL
MODEL 4
REMARK VINA RESULT:       2.2      3.113      7.310
REMARK  Name = *****
REMARK                            x       y       z     vdW  Elec       q    Type
REMARK                         _______ _______ _______ _____ _____    ______ ____
ROOT
ATOM      1  C   LIG    1       22.767 -16.058   4.137  0.00  0.00    +0.132 C 
ENDROOT
BRANCH   1   2
ATOM      2  C   LIG    1       24.031 -15.223   3.729  0.00  0.00    +0.173 C 
ATOM      3  C   LIG    1       25.267 -16.040   3.314  0.00  0.00    +0.176 C 
ATOM      4  C   LIG    1       26.500 -15.160   3.082  0.00  0.00    +0.177 C 
ATOM      5  C   LIG    1       26.739 -14.229   4.268  0.00  0.00    +0.184 C 
ATOM      6  C   LIG    1       25.452 -13.450   4.618  0.00  0.00    +0.207 C 
ATOM      7  O   LIG    1       24.382 -14.385   4.865  0.00  0.00    -0.356 OA
BRANCH   3   8
ATOM      8  O   LIG    1       25.609 -17.031   4.300  0.00  0.00    -0.387 OA
ATOM      9  H   LIG    1       25.686 -17.893   3.847  0.00  0.00    +0.210 HD
ENDBRANCH   3   8
BRANCH   4  10
ATOM     10  O   LIG    1       27.667 -15.990   2.910  0.00  0.00    -0.387 OA
ATOM     11  H   LIG    1       27.928 -15.891   1.970  0.00  0.00    +0.210 HD
ENDBRANCH   4  10
BRANCH   5  12
ATOM     12  O   LIG    1       27.877 -13.399   4.024  0.00  0.00    -0.386 OA
ATOM     13  H   LIG    1       28.188 -13.646   3.128  0.00  0.00    +0.210 HD
ENDBRANCH   5  12
BRANCH   6  14
ATOM     14  S   LIG    1       24.977 -12.155   3.400  0.00  0.00    -0.131 S 
ATOM     15  C   LIG    1       23.529 -11.460   4.240  0.00  0.00    +0.087 C 
ENDBRANCH   6  14
ENDBRANCH   1   2
BRANCH   1  17
ATOM     16  C   LIG    1       22.440 -18.578   4.360  0.00  0.00    +0.231 C 
ATOM     17  N   LIG    1       23.217 -17.447   4.485  0.00  0.00    -0.306 N 
ATOM     18  H   LIG    1       23.978 -17.505   5.156  0.00  0.00    +0.149 HD
ATOM     19  O   LIG    1       21.286 -18.529   3.917  0.00  0.00    -0.274 OA
BRANCH  16  24
ATOM     20  C   LIG    1       25.301 -20.743   5.541  0.00  0.00    +0.005 C 
ATOM     21  C   LIG    1       24.712 -21.571   4.400  0.00  0.00    +0.088 C 
ATOM     22  N   LIG    1       23.780 -20.671   3.684  0.00  0.00    -0.294 NA
ATOM     23  C   LIG    1       24.528 -19.820   2.751  0.00  0.00    +0.105 C 
ATOM     24  C   LIG    1       23.121 -19.906   4.789  0.00  0.00    +0.143 C 
ATOM     25  C   LIG    1       24.199 -19.729   5.868  0.00  0.00    +0.033 C 
BRANCH  20  26
ATOM     26  C   LIG    1       25.740 -21.572   6.756  0.00  0.00    +0.004 C 
BRANCH  26  28
ATOM     27  C   LIG    1       27.843 -20.190   6.511  0.00  0.00    +0.004 C 
ATOM     28  C   LIG    1       27.250 -21.502   7.002  0.00  0.00    -0.003 C 
ENDBRANCH  26  28
ENDBRANCH  20  26
ENDBRANCH  16  24
ENDBRANCH   1  17
BRANCH   1  29
ATOM     29  C   LIG    1       21.961 -15.494   5.340  0.00  0.00    +0.134 C 
ATOM     30  C   LIG    1       22.494 -14.227   6.003  0.00  0.00    +0.039 C 
BRANCH  29  31
ATOM     31  O   LIG    1       21.856 -16.515   6.340  0.00  0.00    -0.390 OA
ATOM     32  H   LIG    1       22.763 -16.806   6.546  0.00  0.00    +0.210 HD
ENDBRANCH  29  31
ENDBRANCH   1  29
TORSDOF 11
ENDMDL
MODEL 5
REMARK VINA RESULT:       2.5      2.558      4.580
REMARK  Name = *****
REMARK                            x       y       z     vdW  Elec       q    Type
REMARK                         _______ _______ _______ _____ _____    ______ ____
ROOT
ATOM      1  C   LIG    1       22.084 -17.788   4.175  0.00  0.00    +0.132 C 
ENDROOT
BRANCH   1   2
ATOM      2  C   LIG    1       23.012 -19.043   4.320  0.00  0.00    +0.173 C 
ATOM      3  C   LIG    1       22.829 -19.866   5.608  0.00  0.00    +0.176 C 
ATOM      4  C   LIG    1       23.874 -20.979   5.746  0.00  0.00    +0.177 C 
ATOM      5  C   LIG    1       25.286 -20.431   5.552  0.00  0.00    +0.184 C 
ATOM      6  C   LIG    1       25.382 -19.621   4.241  0.00  0.00    +0.207 C 
ATOM      7  O   LIG    1       24.388 -18.575   4.254  0.00  0.00    -0.356 OA
BRANCH   3   8
ATOM      8  O   LIG    1       22.904 -19.041   6.784  0.00  0.00    -0.387 OA
ATOM      9  H   LIG    1       22.043 -19.090   7.242  0.00  0.00    +0.210 HD
ENDBRANCH   3   8
BRANCH   4  10
ATOM     10  O   LIG    1       23.789 -21.569   7.059  0.00  0.00    -0.387 OA
ATOM     11  H   LIG    1       23.162 -22.318   6.974  0.00  0.00    +0.210 HD
ENDBRANCH   4  10
BRANCH   5  12
ATOM     12  O   LIG    1       26.244 -21.486   5.659  0.00  0.00    -0.386 OA
ATOM     13  H   LIG    1       25.929 -22.048   6.398  0.00  0.00    +0.210 HD
ENDBRANCH   5  12
BRANCH   6  14
ATOM     14  S   LIG    1       25.312 -20.628   2.703  0.00  0.00    -0.131 S 
ATOM     15  C   LIG    1       23.761 -21.520   2.990  0.00  0.00    +0.087 C 
ENDBRANCH   6  14
ENDBRANCH   1   2
BRANCH   1  17
ATOM     16  C   LIG    1       23.129 -15.463   4.270  0.00  0.00    +0.231 C 
ATOM     17  N   LIG    1       22.907 -16.659   3.625  0.00  0.00    -0.306 N 
ATOM     18  H   LIG    1       23.002 -16.641   2.613  0.00  0.00    +0.149 HD
ATOM     19  O   LIG    1       22.668 -15.235   5.396  0.00  0.00    -0.274 OA
BRANCH  16  24
ATOM     20  C   LIG    1       26.084 -13.163   3.778  0.00  0.00    +0.005 C 
ATOM     21  C   LIG    1       24.913 -12.297   3.316  0.00  0.00    +0.088 C 
ATOM     22  N   LIG    1       23.688 -13.003   3.754  0.00  0.00    -0.294 NA
ATOM     23  C   LIG    1       23.419 -12.705   5.165  0.00  0.00    +0.105 C 
ATOM     24  C   LIG    1       24.009 -14.442   3.500  0.00  0.00    +0.143 C 
ATOM     25  C   LIG    1       25.512 -14.585   3.779  0.00  0.00    +0.033 C 
BRANCH  20  26
ATOM     26  C   LIG    1       27.348 -13.021   2.918  0.00  0.00    +0.004 C 
BRANCH  26  28
ATOM     27  C   LIG    1       28.308 -12.806   5.246  0.00  0.00    +0.004 C 
ATOM     28  C   LIG    1       28.619 -12.880   3.759  0.00  0.00    -0.003 C 
ENDBRANCH  26  28
ENDBRANCH  20  26
ENDBRANCH  16  24
ENDBRANCH   1  17
BRANCH   1  29
ATOM     29  C   LIG    1       20.848 -17.982   3.252  0.00  0.00    +0.134 C 
ATOM     30  C   LIG    1       19.902 -19.131   3.587  0.00  0.00    +0.039 C 
BRANCH  29  31
ATOM     31  O   LIG    1       21.305 -18.153   1.905  0.00  0.00    -0.390 OA
ATOM     32  H   LIG    1       21.297 -17.272   1.487  0.00  0.00    +0.210 HD
ENDBRANCH  29  31
ENDBRANCH   1  29
TORSDOF 11
ENDMDL
