MODEL 1
REMARK VINA RESULT:     -11.5      0.000      0.000
REMARK  Name = *****
REMARK                            x       y       z     vdW  Elec       q    Type
REMARK                         _______ _______ _______ _____ _____    ______ ____
ROOT
ATOM      1  N   LIG    1       29.425 -20.593   7.376  0.00  0.00    -0.297 NA
ATOM      2  C   LIG    1       28.979 -21.999   7.272  0.00  0.00    +0.089 C 
ATOM      3  C   LIG    1       27.504 -22.223   7.638  0.00  0.00    +0.047 C 
ATOM      4  C   LIG    1       26.585 -21.356   6.787  0.00  0.00    -0.057 C 
ATOM      5  C   LIG    1       25.496 -21.818   6.113  0.00  0.00    +0.007 C 
ATOM      6  C   LIG    1       25.120 -23.257   6.152  0.00  0.00    +0.075 A 
ATOM      7  C   LIG    1       23.880 -23.700   6.629  0.00  0.00    -0.021 A 
ATOM      8  C   LIG    1       23.640 -25.086   6.586  0.00  0.00    +0.007 A 
ATOM      9  C   LIG    1       24.600 -25.955   6.081  0.00  0.00    +0.020 A 
ATOM     10  C   LIG    1       25.783 -25.417   5.617  0.00  0.00    +0.111 A 
ATOM     11  C   LIG    1       22.752 -22.827   7.143  0.00  0.00    +0.042 C 
ATOM     12  C   LIG    1       22.986 -21.326   7.369  0.00  0.00    +0.040 C 
ATOM     13  C   LIG    1       23.336 -20.603   6.090  0.00  0.00    -0.038 A 
ATOM     14  C   LIG    1       22.435 -19.709   5.495  0.00  0.00    +0.024 A 
ATOM     15  C   LIG    1       22.761 -19.097   4.283  0.00  0.00    +0.041 A 
ATOM     16 CL   LIG    1       21.648 -18.005   3.556  0.00  0.00    -0.084 Cl
ATOM     17  C   LIG    1       23.973 -19.373   3.651  0.00  0.00    +0.020 A 
ATOM     18  C   LIG    1       24.876 -20.260   4.238  0.00  0.00    +0.010 A 
ATOM     19  N   LIG    1       26.059 -24.098   5.636  0.00  0.00    -0.255 NA
ATOM     20  C   LIG    1       24.570 -20.860   5.465  0.00  0.00    -0.013 A 
ATOM     21  C   LIG    1       27.032 -19.898   6.838  0.00  0.00    +0.047 C 
ATOM     22  C   LIG    1       28.541 -19.751   6.544  0.00  0.00    +0.089 C 
ENDROOT
BRANCH   1  23
ATOM     23  C   LIG    1       29.482 -20.093   8.762  0.00  0.00    +0.121 C 
BRANCH  23  27
ATOM     24  C   LIG    1       31.312 -16.252  11.502  0.00  0.00    +0.045 C 
ATOM     25  C   LIG    1       31.339 -17.125  10.288  0.00  0.00    -0.032 A 
ATOM     26  C   LIG    1       30.427 -18.172  10.133  0.00  0.00    +0.011 A 
ATOM     27  C   LIG    1       30.444 -18.950   8.972  0.00  0.00    -0.015 A 
ATOM     28  C   LIG    1       31.396 -18.636   8.007  0.00  0.00    +0.115 A 
ATOM     29  N   LIG    1       32.289 -17.628   8.116  0.00  0.00    -0.263 NA
ATOM     30  C   LIG    1       32.234 -16.894   9.250  0.00  0.00    +0.114 A 
ENDBRANCH  23  27
ENDBRANCH   1  23
TORSDOF 2
ENDMDL
MODEL 2
REMARK VINA RESULT:      -8.6      2.420      7.946
REMARK  Name = *****
REMARK                            x       y       z     vdW  Elec       q    Type
REMARK                         _______ _______ _______ _____ _____    ______ ____
ROOT
ATOM      1  N   LIG    1       24.554 -25.733   6.743  0.00  0.00    -0.297 NA
ATOM      2  C   LIG    1       25.722 -25.020   7.304  0.00  0.00    +0.089 C 
ATOM      3  C   LIG    1       26.294 -23.927   6.389  0.00  0.00    +0.047 C 
ATOM      4  C   LIG    1       25.229 -22.903   6.016  0.00  0.00    -0.057 C 
ATOM      5  C   LIG    1       25.386 -21.555   6.125  0.00  0.00    +0.007 C 
ATOM      6  C   LIG    1       26.650 -20.966   6.645  0.00  0.00    +0.075 A 
ATOM      7  C   LIG    1       27.435 -20.082   5.894  0.00  0.00    -0.021 A 
ATOM      8  C   LIG    1       28.592 -19.576   6.513  0.00  0.00    +0.007 A 
ATOM      9  C   LIG    1       28.917 -19.944   7.814  0.00  0.00    +0.020 A 
ATOM     10  C   LIG    1       28.068 -20.806   8.476  0.00  0.00    +0.111 A 
ATOM     11  C   LIG    1       27.132 -19.579   4.495  0.00  0.00    +0.042 C 
ATOM     12  C   LIG    1       25.980 -20.197   3.691  0.00  0.00    +0.040 C 
ATOM     13  C   LIG    1       24.641 -19.986   4.357  0.00  0.00    -0.038 A 
ATOM     14  C   LIG    1       23.690 -19.113   3.811  0.00  0.00    +0.024 A 
ATOM     15  C   LIG    1       22.483 -18.893   4.477  0.00  0.00    +0.041 A 
ATOM     16 CL   LIG    1       21.324 -17.816   3.802  0.00  0.00    -0.084 Cl
ATOM     17  C   LIG    1       22.214 -19.528   5.689  0.00  0.00    +0.020 A 
ATOM     18  C   LIG    1       23.154 -20.401   6.238  0.00  0.00    +0.010 A 
ATOM     19  N   LIG    1       26.948 -21.316   7.926  0.00  0.00    -0.255 NA
ATOM     20  C   LIG    1       24.358 -20.647   5.567  0.00  0.00    -0.013 A 
ATOM     21  C   LIG    1       23.990 -23.601   5.465  0.00  0.00    +0.047 C 
ATOM     22  C   LIG    1       23.516 -24.742   6.390  0.00  0.00    +0.089 C 
ENDROOT
BRANCH   1  23
ATOM     23  C   LIG    1       24.883 -26.589   5.588  0.00  0.00    +0.121 C 
BRANCH  23  27
ATOM     24  C   LIG    1       24.005 -30.518   8.653  0.00  0.00    +0.045 C 
ATOM     25  C   LIG    1       24.465 -29.953   7.348  0.00  0.00    -0.032 A 
ATOM     26  C   LIG    1       24.430 -28.577   7.107  0.00  0.00    +0.011 A 
ATOM     27  C   LIG    1       24.904 -28.066   5.894  0.00  0.00    -0.015 A 
ATOM     28  C   LIG    1       25.392 -28.978   4.964  0.00  0.00    +0.115 A 
ATOM     29  N   LIG    1       25.449 -30.313   5.163  0.00  0.00    -0.263 NA
ATOM     30  C   LIG    1       24.990 -30.766   6.351  0.00  0.00    +0.114 A 
ENDBRANCH  23  27
ENDBRANCH   1  23
TORSDOF 2
ENDMDL
