MODEL 1
REMARK VINA RESULT:      -8.5      0.000      0.000
REMARK  Name = *****
REMARK                            x       y       z     vdW  Elec       q    Type
REMARK                         _______ _______ _______ _____ _____    ______ ____
ROOT
ATOM      1  C   LIG    1       24.650 -26.331   6.443  0.00  0.00    -0.041 C 
ATOM      2  C   LIG    1       24.821 -27.516   6.393  0.00  0.00    -0.059 C 
ENDROOT
BRANCH   2   3
ATOM      3  C   LIG    1       25.071 -28.921   6.355  0.00  0.00    +0.026 A 
ATOM      4  C   LIG    1       25.133 -29.636   7.551  0.00  0.00    +0.022 A 
ATOM      5  C   LIG    1       25.373 -31.029   7.577  0.00  0.00    -0.027 A 
ATOM      6  C   LIG    1       25.431 -31.741   8.935  0.00  0.00    -0.008 C 
ATOM      7  C   LIG    1       25.429 -33.285   8.817  0.00  0.00    +0.022 C 
ATOM      8  C   LIG    1       26.453 -33.825   7.839  0.00  0.00    +0.075 C 
ATOM      9  S   LIG    1       25.959 -33.410   6.152  0.00  0.00    -0.125 S 
ATOM     10  C   LIG    1       26.703 -31.276   9.681  0.00  0.00    +0.016 C 
ATOM     11  C   LIG    1       24.201 -31.378   9.806  0.00  0.00    +0.016 C 
ATOM     12  C   LIG    1       25.582 -31.675   6.344  0.00  0.00    +0.012 A 
ATOM     13  C   LIG    1       25.501 -30.946   5.143  0.00  0.00    +0.016 A 
ATOM     14  C   LIG    1       25.245 -29.576   5.144  0.00  0.00    +0.018 A 
ENDBRANCH   2   3
BRANCH   1  18
ATOM     15  C   LIG    1       23.961 -22.243   6.669  0.00  0.00    +0.077 A 
ATOM     16  C   LIG    1       22.952 -23.194   6.745  0.00  0.00    +0.127 A 
ATOM     17  N   LIG    1       23.171 -24.532   6.686  0.00  0.00    -0.246 NA
ATOM     18  C   LIG    1       24.456 -24.925   6.549  0.00  0.00    +0.114 A 
ATOM     19  C   LIG    1       25.533 -24.058   6.472  0.00  0.00    +0.038 A 
ATOM     20  C   LIG    1       25.278 -22.691   6.529  0.00  0.00    +0.019 A 
BRANCH  15  21
ATOM     21  C   LIG    1       23.600 -20.813   6.753  0.00  0.00    +0.341 C 
ATOM     22  O   LIG    1       23.290 -20.252   7.791  0.00  0.00    -0.245 OA
BRANCH  21  23
ATOM     23  O   LIG    1       23.682 -20.251   5.523  0.00  0.00    -0.461 OA
BRANCH  23  25
ATOM     24  C   LIG    1       22.263 -18.534   4.569  0.00  0.00    +0.048 C 
ATOM     25  C   LIG    1       22.437 -20.014   4.854  0.00  0.00    +0.229 C 
ENDBRANCH  23  25
ENDBRANCH  21  23
ENDBRANCH  15  21
ENDBRANCH   1  18
TORSDOF 5
ENDMDL
MODEL 2
REMARK VINA RESULT:      -8.3      1.078      1.423
REMARK  Name = *****
REMARK                            x       y       z     vdW  Elec       q    Type
REMARK                         _______ _______ _______ _____ _____    ______ ____
ROOT
ATOM      1  C   LIG    1       24.352 -26.261   6.175  0.00  0.00    -0.041 C 
ATOM      2  C   LIG    1       24.449 -27.451   6.279  0.00  0.00    -0.059 C 
ENDROOT
BRANCH   2   3
ATOM      3  C   LIG    1       24.584 -28.861   6.449  0.00  0.00    +0.026 A 
ATOM      4  C   LIG    1       24.329 -29.427   7.698  0.00  0.00    +0.022 A 
ATOM      5  C   LIG    1       24.442 -30.817   7.926  0.00  0.00    -0.027 A 
ATOM      6  C   LIG    1       24.149 -31.359   9.332  0.00  0.00    -0.008 C 
ATOM      7  C   LIG    1       24.045 -32.903   9.383  0.00  0.00    +0.022 C 
ATOM      8  C   LIG    1       25.207 -33.616   8.721  0.00  0.00    +0.075 C 
ATOM      9  S   LIG    1       25.123 -33.384   6.932  0.00  0.00    -0.125 S 
ATOM     10  C   LIG    1       25.265 -30.878  10.288  0.00  0.00    +0.016 C 
ATOM     11  C   LIG    1       22.795 -30.822   9.862  0.00  0.00    +0.016 C 
ATOM     12  C   LIG    1       24.857 -31.621   6.848  0.00  0.00    +0.012 A 
ATOM     13  C   LIG    1       25.096 -31.041   5.588  0.00  0.00    +0.016 A 
ATOM     14  C   LIG    1       24.959 -29.669   5.384  0.00  0.00    +0.018 A 
ENDBRANCH   2   3
BRANCH   1  18
ATOM     15  C   LIG    1       24.089 -22.124   5.944  0.00  0.00    +0.077 A 
ATOM     16  C   LIG    1       25.072 -22.865   5.301  0.00  0.00    +0.127 A 
ATOM     17  N   LIG    1       25.156 -24.217   5.361  0.00  0.00    -0.246 NA
ATOM     18  C   LIG    1       24.211 -24.847   6.093  0.00  0.00    +0.114 A 
ATOM     19  C   LIG    1       23.186 -24.201   6.764  0.00  0.00    +0.038 A 
ATOM     20  C   LIG    1       23.128 -22.813   6.691  0.00  0.00    +0.019 A 
BRANCH  15  21
ATOM     21  C   LIG    1       24.095 -20.654   5.799  0.00  0.00    +0.341 C 
ATOM     22  O   LIG    1       25.099 -19.998   5.577  0.00  0.00    -0.245 OA
BRANCH  21  23
ATOM     23  O   LIG    1       22.834 -20.178   5.939  0.00  0.00    -0.461 OA
BRANCH  23  25
ATOM     24  C   LIG    1       22.212 -18.288   4.557  0.00  0.00    +0.048 C 
ATOM     25  C   LIG    1       22.167 -19.794   4.730  0.00  0.00    +0.229 C 
ENDBRANCH  23  25
ENDBRANCH  21  23
ENDBRANCH  15  21
ENDBRANCH   1  18
TORSDOF 5
ENDMDL
MODEL 3
REMARK VINA RESULT:      -8.0      1.273      2.019
REMARK  Name = *****
REMARK                            x       y       z     vdW  Elec       q    Type
REMARK                         _______ _______ _______ _____ _____    ______ ____
ROOT
ATOM      1  C   LIG    1       24.299 -26.307   6.206  0.00  0.00    -0.041 C 
ATOM      2  C   LIG    1       24.423 -27.496   6.301  0.00  0.00    -0.059 C 
ENDROOT
BRANCH   2   3
ATOM      3  C   LIG    1       24.621 -28.903   6.422  0.00  0.00    +0.026 A 
ATOM      4  C   LIG    1       24.366 -29.528   7.643  0.00  0.00    +0.022 A 
ATOM      5  C   LIG    1       24.539 -30.919   7.822  0.00  0.00    -0.027 A 
ATOM      6  C   LIG    1       24.242 -31.527   9.198  0.00  0.00    -0.008 C 
ATOM      7  C   LIG    1       24.210 -33.076   9.190  0.00  0.00    +0.022 C 
ATOM      8  C   LIG    1       25.418 -33.708   8.529  0.00  0.00    +0.075 C 
ATOM      9  S   LIG    1       25.361 -33.412   6.748  0.00  0.00    -0.125 S 
ATOM     10  C   LIG    1       25.313 -31.033  10.198  0.00  0.00    +0.016 C 
ATOM     11  C   LIG    1       22.852 -31.075   9.717  0.00  0.00    +0.016 C 
ATOM     12  C   LIG    1       25.015 -31.661   6.724  0.00  0.00    +0.012 A 
ATOM     13  C   LIG    1       25.254 -31.023   5.492  0.00  0.00    +0.016 A 
ATOM     14  C   LIG    1       25.057 -29.652   5.337  0.00  0.00    +0.018 A 
ENDBRANCH   2   3
BRANCH   1  18
ATOM     15  C   LIG    1       24.079 -22.166   6.010  0.00  0.00    +0.077 A 
ATOM     16  C   LIG    1       25.067 -22.910   5.378  0.00  0.00    +0.127 A 
ATOM     17  N   LIG    1       25.137 -24.264   5.425  0.00  0.00    -0.246 NA
ATOM     18  C   LIG    1       24.173 -24.891   6.135  0.00  0.00    +0.114 A 
ATOM     19  C   LIG    1       23.142 -24.242   6.794  0.00  0.00    +0.038 A 
ATOM     20  C   LIG    1       23.098 -22.853   6.733  0.00  0.00    +0.019 A 
BRANCH  15  21
ATOM     21  C   LIG    1       24.102 -20.695   5.879  0.00  0.00    +0.341 C 
ATOM     22  O   LIG    1       23.146 -20.031   5.512  0.00  0.00    -0.245 OA
BRANCH  21  23
ATOM     23  O   LIG    1       25.322 -20.225   6.236  0.00  0.00    -0.461 OA
BRANCH  23  25
ATOM     24  C   LIG    1       27.233 -20.466   7.706  0.00  0.00    +0.048 C 
ATOM     25  C   LIG    1       25.721 -20.472   7.590  0.00  0.00    +0.229 C 
ENDBRANCH  23  25
ENDBRANCH  21  23
ENDBRANCH  15  21
ENDBRANCH   1  18
TORSDOF 5
ENDMDL
MODEL 4
REMARK VINA RESULT:      -7.3      1.491      2.580
REMARK  Name = *****
REMARK                            x       y       z     vdW  Elec       q    Type
REMARK                         _______ _______ _______ _____ _____    ______ ____
ROOT
ATOM      1  C   LIG    1       25.649 -26.057   6.982  0.00  0.00    -0.041 C 
ATOM      2  C   LIG    1       25.784 -27.189   7.354  0.00  0.00    -0.059 C 
ENDROOT
BRANCH   2   3
ATOM      3  C   LIG    1       25.895 -28.542   7.793  0.00  0.00    +0.026 A 
ATOM      4  C   LIG    1       25.515 -29.573   6.932  0.00  0.00    +0.022 A 
ATOM      5  C   LIG    1       25.606 -30.932   7.309  0.00  0.00    -0.027 A 
ATOM      6  C   LIG    1       25.163 -32.005   6.306  0.00  0.00    -0.008 C 
ATOM      7  C   LIG    1       25.560 -33.440   6.729  0.00  0.00    +0.022 C 
ATOM      8  C   LIG    1       25.172 -33.787   8.153  0.00  0.00    +0.075 C 
ATOM      9  S   LIG    1       26.201 -32.854   9.307  0.00  0.00    -0.125 S 
ATOM     10  C   LIG    1       23.629 -31.917   6.134  0.00  0.00    +0.016 C 
ATOM     11  C   LIG    1       25.818 -31.773   4.919  0.00  0.00    +0.016 C 
ATOM     12  C   LIG    1       26.066 -31.217   8.608  0.00  0.00    +0.012 A 
ATOM     13  C   LIG    1       26.461 -30.170   9.462  0.00  0.00    +0.016 A 
ATOM     14  C   LIG    1       26.380 -28.838   9.059  0.00  0.00    +0.018 A 
ENDBRANCH   2   3
BRANCH   1  18
ATOM     15  C   LIG    1       25.071 -22.146   5.715  0.00  0.00    +0.077 A 
ATOM     16  C   LIG    1       25.608 -22.478   6.952  0.00  0.00    +0.127 A 
ATOM     17  N   LIG    1       25.813 -23.753   7.368  0.00  0.00    -0.246 NA
ATOM     18  C   LIG    1       25.467 -24.730   6.502  0.00  0.00    +0.114 A 
ATOM     19  C   LIG    1       24.932 -24.505   5.244  0.00  0.00    +0.038 A 
ATOM     20  C   LIG    1       24.728 -23.187   4.847  0.00  0.00    +0.019 A 
BRANCH  15  21
ATOM     21  C   LIG    1       24.903 -20.719   5.371  0.00  0.00    +0.341 C 
ATOM     22  O   LIG    1       25.663 -20.103   4.643  0.00  0.00    -0.245 OA
BRANCH  21  23
ATOM     23  O   LIG    1       23.789 -20.235   5.972  0.00  0.00    -0.461 OA
BRANCH  23  25
ATOM     24  C   LIG    1       22.350 -18.806   4.647  0.00  0.00    +0.048 C 
ATOM     25  C   LIG    1       22.602 -20.207   5.172  0.00  0.00    +0.229 C 
ENDBRANCH  23  25
ENDBRANCH  21  23
ENDBRANCH  15  21
ENDBRANCH   1  18
TORSDOF 5
ENDMDL
MODEL 5
REMARK VINA RESULT:      -7.0      1.629      2.604
REMARK  Name = *****
REMARK                            x       y       z     vdW  Elec       q    Type
REMARK                         _______ _______ _______ _____ _____    ______ ____
ROOT
ATOM      1  C   LIG    1       25.497 -25.815   6.938  0.00  0.00    -0.041 C 
ATOM      2  C   LIG    1       25.638 -26.940   7.327  0.00  0.00    -0.059 C 
ENDROOT
BRANCH   2   3
ATOM      3  C   LIG    1       25.819 -28.293   7.743  0.00  0.00    +0.026 A 
ATOM      4  C   LIG    1       25.483 -29.327   6.869  0.00  0.00    +0.022 A 
ATOM      5  C   LIG    1       25.645 -30.686   7.222  0.00  0.00    -0.027 A 
ATOM      6  C   LIG    1       25.245 -31.763   6.206  0.00  0.00    -0.008 C 
ATOM      7  C   LIG    1       25.718 -33.184   6.602  0.00  0.00    +0.022 C 
ATOM      8  C   LIG    1       25.361 -33.572   8.023  0.00  0.00    +0.075 C 
ATOM      9  S   LIG    1       26.354 -32.608   9.183  0.00  0.00    -0.125 S 
ATOM     10  C   LIG    1       23.707 -31.749   6.050  0.00  0.00    +0.016 C 
ATOM     11  C   LIG    1       25.874 -31.477   4.817  0.00  0.00    +0.016 C 
ATOM     12  C   LIG    1       26.132 -30.968   8.513  0.00  0.00    +0.012 A 
ATOM     13  C   LIG    1       26.483 -29.916   9.379  0.00  0.00    +0.016 A 
ATOM     14  C   LIG    1       26.331 -28.584   9.000  0.00  0.00    +0.018 A 
ENDBRANCH   2   3
BRANCH   1  18
ATOM     15  C   LIG    1       25.182 -21.967   5.411  0.00  0.00    +0.077 A 
ATOM     16  C   LIG    1       24.780 -23.101   4.716  0.00  0.00    +0.127 A 
ATOM     17  N   LIG    1       24.867 -24.360   5.214  0.00  0.00    -0.246 NA
ATOM     18  C   LIG    1       25.374 -24.480   6.461  0.00  0.00    +0.114 A 
ATOM     19  C   LIG    1       25.795 -23.413   7.237  0.00  0.00    +0.038 A 
ATOM     20  C   LIG    1       25.699 -22.133   6.699  0.00  0.00    +0.019 A 
BRANCH  15  21
ATOM     21  C   LIG    1       25.030 -20.646   4.766  0.00  0.00    +0.341 C 
ATOM     22  O   LIG    1       25.967 -19.917   4.486  0.00  0.00    -0.245 OA
BRANCH  21  23
ATOM     23  O   LIG    1       23.718 -20.400   4.539  0.00  0.00    -0.461 OA
BRANCH  23  25
ATOM     24  C   LIG    1       22.183 -18.529   4.411  0.00  0.00    +0.048 C 
ATOM     25  C   LIG    1       23.417 -19.192   3.828  0.00  0.00    +0.229 C 
ENDBRANCH  23  25
ENDBRANCH  21  23
ENDBRANCH  15  21
ENDBRANCH   1  18
TORSDOF 5
ENDMDL
MODEL 6
REMARK VINA RESULT:      -6.8      5.034      9.842
REMARK  Name = *****
REMARK                            x       y       z     vdW  Elec       q    Type
REMARK                         _______ _______ _______ _____ _____    ______ ____
ROOT
ATOM      1  C   LIG    1       25.890 -27.688   7.663  0.00  0.00    -0.041 C 
ATOM      2  C   LIG    1       25.717 -26.630   7.128  0.00  0.00    -0.059 C 
ENDROOT
BRANCH   2   3
ATOM      3  C   LIG    1       25.464 -25.384   6.480  0.00  0.00    +0.026 A 
ATOM      4  C   LIG    1       25.883 -24.200   7.088  0.00  0.00    +0.022 A 
ATOM      5  C   LIG    1       25.664 -22.937   6.492  0.00  0.00    -0.027 A 
ATOM      6  C   LIG    1       26.151 -21.682   7.228  0.00  0.00    -0.008 C 
ATOM      7  C   LIG    1       26.095 -20.402   6.359  0.00  0.00    +0.022 C 
ATOM      8  C   LIG    1       24.760 -20.186   5.674  0.00  0.00    +0.075 C 
ATOM      9  S   LIG    1       24.537 -21.422   4.376  0.00  0.00    -0.125 S 
ATOM     10  C   LIG    1       25.290 -21.489   8.498  0.00  0.00    +0.016 C 
ATOM     11  C   LIG    1       27.631 -21.835   7.667  0.00  0.00    +0.016 C 
ATOM     12  C   LIG    1       24.972 -22.907   5.267  0.00  0.00    +0.012 A 
ATOM     13  C   LIG    1       24.568 -24.109   4.656  0.00  0.00    +0.016 A 
ATOM     14  C   LIG    1       24.813 -25.343   5.255  0.00  0.00    +0.018 A 
ENDBRANCH   2   3
BRANCH   1  18
ATOM     15  C   LIG    1       26.242 -31.367   9.555  0.00  0.00    +0.077 A 
ATOM     16  C   LIG    1       25.629 -31.198   8.320  0.00  0.00    +0.127 A 
ATOM     17  N   LIG    1       25.523 -30.002   7.689  0.00  0.00    -0.246 NA
ATOM     18  C   LIG    1       26.058 -28.937   8.326  0.00  0.00    +0.114 A 
ATOM     19  C   LIG    1       26.695 -29.001   9.553  0.00  0.00    +0.038 A 
ATOM     20  C   LIG    1       26.784 -30.241  10.180  0.00  0.00    +0.019 A 
BRANCH  15  21
ATOM     21  C   LIG    1       26.304 -32.723  10.139  0.00  0.00    +0.341 C 
ATOM     22  O   LIG    1       26.793 -33.685   9.571  0.00  0.00    -0.245 OA
BRANCH  21  23
ATOM     23  O   LIG    1       25.753 -32.709  11.378  0.00  0.00    -0.461 OA
BRANCH  23  25
ATOM     24  C   LIG    1       23.734 -31.735  12.296  0.00  0.00    +0.048 C 
ATOM     25  C   LIG    1       24.327 -32.834  11.435  0.00  0.00    +0.229 C 
ENDBRANCH  23  25
ENDBRANCH  21  23
ENDBRANCH  15  21
ENDBRANCH   1  18
TORSDOF 5
ENDMDL
MODEL 7
REMARK VINA RESULT:      -6.0      4.995      9.929
REMARK  Name = *****
REMARK                            x       y       z     vdW  Elec       q    Type
REMARK                         _______ _______ _______ _____ _____    ______ ____
ROOT
ATOM      1  C   LIG    1       25.392 -27.746   7.167  0.00  0.00    -0.041 C 
ATOM      2  C   LIG    1       25.290 -26.644   6.708  0.00  0.00    -0.059 C 
ENDROOT
BRANCH   2   3
ATOM      3  C   LIG    1       25.203 -25.315   6.195  0.00  0.00    +0.026 A 
ATOM      4  C   LIG    1       25.709 -24.257   6.951  0.00  0.00    +0.022 A 
ATOM      5  C   LIG    1       25.656 -22.920   6.494  0.00  0.00    -0.027 A 
ATOM      6  C   LIG    1       26.229 -21.813   7.388  0.00  0.00    -0.008 C 
ATOM      7  C   LIG    1       26.354 -20.448   6.667  0.00  0.00    +0.022 C 
ATOM      8  C   LIG    1       25.089 -20.015   5.954  0.00  0.00    +0.075 C 
ATOM      9  S   LIG    1       24.811 -21.072   4.516  0.00  0.00    -0.125 S 
ATOM     10  C   LIG    1       25.323 -21.666   8.633  0.00  0.00    +0.016 C 
ATOM     11  C   LIG    1       27.658 -22.173   7.870  0.00  0.00    +0.016 C 
ATOM     12  C   LIG    1       25.039 -22.683   5.251  0.00  0.00    +0.012 A 
ATOM     13  C   LIG    1       24.547 -23.760   4.491  0.00  0.00    +0.016 A 
ATOM     14  C   LIG    1       24.629 -25.071   4.955  0.00  0.00    +0.018 A 
ENDBRANCH   2   3
BRANCH   1  18
ATOM     15  C   LIG    1       26.018 -31.520   8.782  0.00  0.00    +0.077 A 
ATOM     16  C   LIG    1       26.395 -30.344   9.418  0.00  0.00    +0.127 A 
ATOM     17  N   LIG    1       26.181 -29.107   8.903  0.00  0.00    -0.246 NA
ATOM     18  C   LIG    1       25.561 -29.054   7.704  0.00  0.00    +0.114 A 
ATOM     19  C   LIG    1       25.139 -30.166   6.994  0.00  0.00    +0.038 A 
ATOM     20  C   LIG    1       25.377 -31.422   7.543  0.00  0.00    +0.019 A 
BRANCH  15  21
ATOM     21  C   LIG    1       26.297 -32.810   9.446  0.00  0.00    +0.341 C 
ATOM     22  O   LIG    1       26.212 -32.985  10.650  0.00  0.00    -0.245 OA
BRANCH  21  23
ATOM     23  O   LIG    1       26.640 -33.734   8.517  0.00  0.00    -0.461 OA
BRANCH  23  25
ATOM     24  C   LIG    1       28.227 -33.718   6.686  0.00  0.00    +0.048 C 
ATOM     25  C   LIG    1       28.032 -33.811   8.188  0.00  0.00    +0.229 C 
ENDBRANCH  23  25
ENDBRANCH  21  23
ENDBRANCH  15  21
ENDBRANCH   1  18
TORSDOF 5
ENDMDL
MODEL 8
REMARK VINA RESULT:      -6.0      4.879      9.891
REMARK  Name = *****
REMARK                            x       y       z     vdW  Elec       q    Type
REMARK                         _______ _______ _______ _____ _____    ______ ____
ROOT
ATOM      1  C   LIG    1       25.543 -27.689   7.350  0.00  0.00    -0.041 C 
ATOM      2  C   LIG    1       25.376 -26.619   6.835  0.00  0.00    -0.059 C 
ENDROOT
BRANCH   2   3
ATOM      3  C   LIG    1       25.146 -25.368   6.190  0.00  0.00    +0.026 A 
ATOM      4  C   LIG    1       25.014 -24.214   6.963  0.00  0.00    +0.022 A 
ATOM      5  C   LIG    1       24.790 -22.946   6.380  0.00  0.00    -0.027 A 
ATOM      6  C   LIG    1       24.651 -21.727   7.301  0.00  0.00    -0.008 C 
ATOM      7  C   LIG    1       24.679 -20.378   6.540  0.00  0.00    +0.022 C 
ATOM      8  C   LIG    1       23.726 -20.322   5.362  0.00  0.00    +0.075 C 
ATOM      9  S   LIG    1       24.324 -21.405   4.046  0.00  0.00    -0.125 S 
ATOM     10  C   LIG    1       23.328 -21.853   8.092  0.00  0.00    +0.016 C 
ATOM     11  C   LIG    1       25.819 -21.665   8.320  0.00  0.00    +0.016 C 
ATOM     12  C   LIG    1       24.668 -22.887   4.979  0.00  0.00    +0.012 A 
ATOM     13  C   LIG    1       24.818 -24.055   4.209  0.00  0.00    +0.016 A 
ATOM     14  C   LIG    1       25.058 -25.291   4.807  0.00  0.00    +0.018 A 
ENDBRANCH   2   3
BRANCH   1  18
ATOM     15  C   LIG    1       26.124 -31.369   9.181  0.00  0.00    +0.077 A 
ATOM     16  C   LIG    1       26.635 -30.178   9.680  0.00  0.00    +0.127 A 
ATOM     17  N   LIG    1       26.437 -28.970   9.095  0.00  0.00    -0.246 NA
ATOM     18  C   LIG    1       25.695 -28.963   7.966  0.00  0.00    +0.114 A 
ATOM     19  C   LIG    1       25.135 -30.093   7.394  0.00  0.00    +0.038 A 
ATOM     20  C   LIG    1       25.359 -31.319   8.012  0.00  0.00    +0.019 A 
BRANCH  15  21
ATOM     21  C   LIG    1       26.400 -32.624   9.911  0.00  0.00    +0.341 C 
ATOM     22  O   LIG    1       27.098 -33.524   9.474  0.00  0.00    -0.245 OA
BRANCH  21  23
ATOM     23  O   LIG    1       25.774 -32.596  11.113  0.00  0.00    -0.461 OA
BRANCH  23  25
ATOM     24  C   LIG    1       23.383 -32.985  11.153  0.00  0.00    +0.048 C 
ATOM     25  C   LIG    1       24.764 -33.591  11.321  0.00  0.00    +0.229 C 
ENDBRANCH  23  25
ENDBRANCH  21  23
ENDBRANCH  15  21
ENDBRANCH   1  18
TORSDOF 5
ENDMDL
MODEL 9
REMARK VINA RESULT:      -5.6      6.960      9.444
REMARK  Name = *****
REMARK                            x       y       z     vdW  Elec       q    Type
REMARK                         _______ _______ _______ _____ _____    ______ ____
ROOT
ATOM      1  C   LIG    1       25.384 -30.236   9.347  0.00  0.00    -0.041 C 
ATOM      2  C   LIG    1       25.492 -29.538  10.316  0.00  0.00    -0.059 C 
ENDROOT
BRANCH   2   3
ATOM      3  C   LIG    1       25.631 -28.668  11.437  0.00  0.00    +0.026 A 
ATOM      4  C   LIG    1       24.514 -28.379  12.222  0.00  0.00    +0.022 A 
ATOM      5  C   LIG    1       24.591 -27.528  13.347  0.00  0.00    -0.027 A 
ATOM      6  C   LIG    1       23.314 -27.257  14.154  0.00  0.00    -0.008 C 
ATOM      7  C   LIG    1       23.582 -26.538  15.500  0.00  0.00    +0.022 C 
ATOM      8  C   LIG    1       24.455 -25.306  15.371  0.00  0.00    +0.075 C 
ATOM      9  S   LIG    1       26.146 -25.799  14.971  0.00  0.00    -0.125 S 
ATOM     10  C   LIG    1       22.355 -26.406  13.289  0.00  0.00    +0.016 C 
ATOM     11  C   LIG    1       22.593 -28.581  14.514  0.00  0.00    +0.016 C 
ATOM     12  C   LIG    1       25.840 -26.946  13.638  0.00  0.00    +0.012 A 
ATOM     13  C   LIG    1       26.963 -27.258  12.849  0.00  0.00    +0.016 A 
ATOM     14  C   LIG    1       26.864 -28.115  11.755  0.00  0.00    +0.018 A 
ENDBRANCH   2   3
BRANCH   1  18
ATOM     15  C   LIG    1       24.773 -32.573   5.971  0.00  0.00    +0.077 A 
ATOM     16  C   LIG    1       23.904 -31.567   6.371  0.00  0.00    +0.127 A 
ATOM     17  N   LIG    1       24.104 -30.790   7.465  0.00  0.00    -0.246 NA
ATOM     18  C   LIG    1       25.224 -31.035   8.180  0.00  0.00    +0.114 A 
ATOM     19  C   LIG    1       26.156 -32.008   7.860  0.00  0.00    +0.038 A 
ATOM     20  C   LIG    1       25.922 -32.794   6.736  0.00  0.00    +0.019 A 
BRANCH  15  21
ATOM     21  C   LIG    1       24.453 -33.349   4.755  0.00  0.00    +0.341 C 
ATOM     22  O   LIG    1       23.330 -33.730   4.469  0.00  0.00    -0.245 OA
BRANCH  21  23
ATOM     23  O   LIG    1       25.581 -33.547   4.031  0.00  0.00    -0.461 OA
BRANCH  23  25
ATOM     24  C   LIG    1       26.908 -33.236   2.028  0.00  0.00    +0.048 C 
ATOM     25  C   LIG    1       25.699 -32.784   2.825  0.00  0.00    +0.229 C 
ENDBRANCH  23  25
ENDBRANCH  21  23
ENDBRANCH  15  21
ENDBRANCH   1  18
TORSDOF 5
ENDMDL
