MODEL 1
REMARK VINA RESULT:      -7.1      0.000      0.000
REMARK  Name = *****
REMARK                            x       y       z     vdW  Elec       q    Type
REMARK                         _______ _______ _______ _____ _____    ______ ____
ROOT
ATOM      1  C   LIG    1       24.901 -28.929  12.209  0.00  0.00    -0.009 C 
ATOM      2  C   LIG    1       26.344 -28.500  12.000  0.00  0.00    +0.108 C 
ATOM      3  S   LIG    1       26.706 -28.134  10.261  0.00  0.00    -0.131 S 
ATOM      4  C   LIG    1       26.144 -29.764   9.716  0.00  0.00    +0.169 C 
ATOM      5  N   LIG    1       24.742 -29.943  10.076  0.00  0.00    -0.249 N 
ATOM      6  C   LIG    1       24.301 -30.128   8.817  0.00  0.00    +0.244 C 
ATOM      7  O   LIG    1       23.165 -30.236   8.381  0.00  0.00    -0.273 OA
ATOM      8  CA  LIG    1       25.705 -29.895   8.227  0.00  0.00    +0.191 C 
ATOM      9  CA  LIG    1       24.166 -29.600  11.278  0.00  0.00    +0.126 C 
ENDROOT
BRANCH   8  10
ATOM     10  N   LIG    1       25.855 -28.702   7.340  0.00  0.00    -0.300 N 
ATOM     11  H   LIG    1       26.168 -27.799   7.688  0.00  0.00    +0.150 HD
ATOM     12  C   LIG    1       25.497 -28.769   6.007  0.00  0.00    +0.235 C 
ATOM     13  O   LIG    1       25.024 -29.805   5.544  0.00  0.00    -0.274 OA
BRANCH  12  14
ATOM     14  CA  LIG    1       25.790 -27.477   5.184  0.00  0.00    +0.168 C 
BRANCH  14  15
ATOM     15  C   LIG    1       25.298 -26.184   5.818  0.00  0.00    -0.022 A 
ATOM     16  C   LIG    1       23.934 -25.860   5.895  0.00  0.00    +0.009 A 
ATOM     17  C   LIG    1       23.511 -24.648   6.443  0.00  0.00    +0.045 A 
ATOM     18  C   LIG    1       24.445 -23.764   6.962  0.00  0.00    +0.117 A 
ATOM     19  C   LIG    1       25.800 -24.075   6.945  0.00  0.00    +0.045 A 
ATOM     20  C   LIG    1       26.224 -25.282   6.376  0.00  0.00    +0.009 A 
BRANCH  18  21
ATOM     21  O   LIG    1       23.985 -22.594   7.488  0.00  0.00    -0.507 OA
ATOM     22  H   LIG    1       23.160 -22.771   7.967  0.00  0.00    +0.292 HD
ENDBRANCH  18  21
ENDBRANCH  14  15
BRANCH  14  23
ATOM     23  N   LIG    1       27.237 -27.398   4.883  0.00  0.00    -0.316 NA
ATOM     24  H1  LIG    1       27.741 -27.498   5.767  0.00  0.00    +0.119 HD
ATOM     25  H2  LIG    1       27.492 -28.233   4.352  0.00  0.00    +0.119 HD
ENDBRANCH  14  23
ENDBRANCH  12  14
ENDBRANCH   8  10
BRANCH   1  28
ATOM     26  C   LIG    1       23.459 -26.681  15.009  0.00  0.00    +0.035 C 
ATOM     27  C   LIG    1       23.952 -27.183  13.689  0.00  0.00    -0.030 C 
ATOM     28  C   LIG    1       24.372 -28.441  13.482  0.00  0.00    +0.002 C 
ENDBRANCH   1  28
BRANCH   9  29
ATOM     29  C   LIG    1       22.723 -29.983  11.578  0.00  0.00    +0.352 C 
ATOM     30  O   LIG    1       21.790 -29.193  11.575  0.00  0.00    -0.244 OA
BRANCH  29  31
ATOM     31  OXT LIG    1       22.486 -31.268  11.904  0.00  0.00    -0.476 OA
ATOM     32  HXT LIG    1       23.267 -31.845  12.050  0.00  0.00    +0.295 HD
ENDBRANCH  29  31
ENDBRANCH   9  29
TORSDOF 8
ENDMDL
MODEL 2
REMARK VINA RESULT:      -6.5      2.974      4.237
REMARK  Name = *****
REMARK                            x       y       z     vdW  Elec       q    Type
REMARK                         _______ _______ _______ _____ _____    ______ ____
ROOT
ATOM      1  C   LIG    1       25.816 -30.978   8.756  0.00  0.00    -0.009 C 
ATOM      2  C   LIG    1       26.786 -29.889   9.181  0.00  0.00    +0.108 C 
ATOM      3  S   LIG    1       26.216 -28.236   8.698  0.00  0.00    -0.131 S 
ATOM      4  C   LIG    1       26.068 -28.706   6.958  0.00  0.00    +0.169 C 
ATOM      5  N   LIG    1       25.111 -29.800   6.827  0.00  0.00    -0.249 N 
ATOM      6  C   LIG    1       24.265 -29.144   6.011  0.00  0.00    +0.244 C 
ATOM      7  O   LIG    1       23.165 -29.461   5.585  0.00  0.00    -0.273 OA
ATOM      8  CA  LIG    1       25.106 -27.854   6.078  0.00  0.00    +0.191 C 
ATOM      9  CA  LIG    1       25.030 -30.904   7.644  0.00  0.00    +0.126 C 
ENDROOT
BRANCH   8  10
ATOM     10  N   LIG    1       24.443 -26.669   6.702  0.00  0.00    -0.300 N 
ATOM     11  H   LIG    1       23.999 -26.711   7.617  0.00  0.00    +0.150 HD
ATOM     12  C   LIG    1       24.345 -25.475   6.013  0.00  0.00    +0.235 C 
ATOM     13  O   LIG    1       24.780 -25.385   4.867  0.00  0.00    -0.274 OA
BRANCH  12  14
ATOM     14  CA  LIG    1       23.708 -24.303   6.820  0.00  0.00    +0.168 C 
BRANCH  14  15
ATOM     15  C   LIG    1       24.666 -23.178   7.187  0.00  0.00    -0.022 A 
ATOM     16  C   LIG    1       26.059 -23.355   7.197  0.00  0.00    +0.009 A 
ATOM     17  C   LIG    1       26.914 -22.320   7.578  0.00  0.00    +0.045 A 
ATOM     18  C   LIG    1       26.388 -21.081   7.911  0.00  0.00    +0.117 A 
ATOM     19  C   LIG    1       25.017 -20.857   7.867  0.00  0.00    +0.045 A 
ATOM     20  C   LIG    1       24.160 -21.904   7.504  0.00  0.00    +0.009 A 
BRANCH  18  21
ATOM     21  O   LIG    1       27.262 -20.101   8.276  0.00  0.00    -0.507 OA
ATOM     22  H   LIG    1       28.166 -20.405   8.095  0.00  0.00    +0.292 HD
ENDBRANCH  18  21
ENDBRANCH  14  15
BRANCH  14  23
ATOM     23  N   LIG    1       22.535 -23.776   6.087  0.00  0.00    -0.316 NA
ATOM     24  H1  LIG    1       21.703 -23.993   6.640  0.00  0.00    +0.119 HD
ATOM     25  H2  LIG    1       22.589 -22.755   6.104  0.00  0.00    +0.119 HD
ENDBRANCH  14  23
ENDBRANCH  12  14
ENDBRANCH   8  10
BRANCH   1  28
ATOM     26  C   LIG    1       25.133 -33.053  11.950  0.00  0.00    +0.035 C 
ATOM     27  C   LIG    1       25.148 -31.957  10.932  0.00  0.00    -0.030 C 
ATOM     28  C   LIG    1       25.753 -32.060   9.739  0.00  0.00    +0.002 C 
ENDBRANCH   1  28
BRANCH   9  29
ATOM     29  C   LIG    1       24.083 -32.047   7.303  0.00  0.00    +0.352 C 
ATOM     30  O   LIG    1       24.300 -32.879   6.433  0.00  0.00    -0.244 OA
BRANCH  29  31
ATOM     31  OXT LIG    1       22.923 -32.106   7.984  0.00  0.00    -0.476 OA
ATOM     32  HXT LIG    1       22.135 -32.436   7.500  0.00  0.00    +0.295 HD
ENDBRANCH  29  31
ENDBRANCH   9  29
TORSDOF 8
ENDMDL
MODEL 3
REMARK VINA RESULT:      -6.4      2.707      3.943
REMARK  Name = *****
REMARK                            x       y       z     vdW  Elec       q    Type
REMARK                         _______ _______ _______ _____ _____    ______ ____
ROOT
ATOM      1  C   LIG    1       25.711 -30.894   9.165  0.00  0.00    -0.009 C 
ATOM      2  C   LIG    1       26.746 -29.829   9.487  0.00  0.00    +0.108 C 
ATOM      3  S   LIG    1       26.296 -28.208   8.810  0.00  0.00    -0.131 S 
ATOM      4  C   LIG    1       26.144 -28.860   7.130  0.00  0.00    +0.169 C 
ATOM      5  N   LIG    1       25.118 -29.897   7.100  0.00  0.00    -0.249 N 
ATOM      6  C   LIG    1       24.330 -29.283   6.197  0.00  0.00    +0.244 C 
ATOM      7  O   LIG    1       23.218 -29.573   5.785  0.00  0.00    -0.273 OA
ATOM      8  CA  LIG    1       25.255 -28.052   6.139  0.00  0.00    +0.191 C 
ATOM      9  CA  LIG    1       24.949 -30.894   8.034  0.00  0.00    +0.126 C 
ENDROOT
BRANCH   8  10
ATOM     10  N   LIG    1       24.664 -26.763   6.612  0.00  0.00    -0.300 N 
ATOM     11  H   LIG    1       23.936 -26.725   7.323  0.00  0.00    +0.150 HD
ATOM     12  C   LIG    1       25.041 -25.564   6.038  0.00  0.00    +0.235 C 
ATOM     13  O   LIG    1       25.849 -25.549   5.111  0.00  0.00    -0.274 OA
BRANCH  12  14
ATOM     14  CA  LIG    1       24.410 -24.297   6.691  0.00  0.00    +0.168 C 
BRANCH  14  15
ATOM     15  C   LIG    1       24.937 -22.970   6.165  0.00  0.00    -0.022 A 
ATOM     16  C   LIG    1       24.362 -22.322   5.059  0.00  0.00    +0.009 A 
ATOM     17  C   LIG    1       24.891 -21.127   4.570  0.00  0.00    +0.045 A 
ATOM     18  C   LIG    1       25.974 -20.541   5.208  0.00  0.00    +0.117 A 
ATOM     19  C   LIG    1       26.537 -21.131   6.334  0.00  0.00    +0.045 A 
ATOM     20  C   LIG    1       26.018 -22.341   6.810  0.00  0.00    +0.009 A 
BRANCH  18  21
ATOM     21  O   LIG    1       26.455 -19.373   4.694  0.00  0.00    -0.507 OA
ATOM     22  H   LIG    1       27.378 -19.267   4.972  0.00  0.00    +0.292 HD
ENDBRANCH  18  21
ENDBRANCH  14  15
BRANCH  14  23
ATOM     23  N   LIG    1       22.936 -24.361   6.573  0.00  0.00    -0.316 NA
ATOM     24  H1  LIG    1       22.540 -24.006   7.446  0.00  0.00    +0.119 HD
ATOM     25  H2  LIG    1       22.648 -23.675   5.871  0.00  0.00    +0.119 HD
ENDBRANCH  14  23
ENDBRANCH  12  14
ENDBRANCH   8  10
BRANCH   1  28
ATOM     26  C   LIG    1       25.190 -32.491  12.650  0.00  0.00    +0.035 C 
ATOM     27  C   LIG    1       25.293 -31.506  11.528  0.00  0.00    -0.030 C 
ATOM     28  C   LIG    1       25.561 -31.851  10.260  0.00  0.00    +0.002 C 
ENDBRANCH   1  28
BRANCH   9  29
ATOM     29  C   LIG    1       23.933 -32.004   7.800  0.00  0.00    +0.352 C 
ATOM     30  O   LIG    1       24.107 -32.941   7.032  0.00  0.00    -0.244 OA
BRANCH  29  31
ATOM     31  OXT LIG    1       22.762 -31.910   8.457  0.00  0.00    -0.476 OA
ATOM     32  HXT LIG    1       22.264 -31.069   8.368  0.00  0.00    +0.295 HD
ENDBRANCH  29  31
ENDBRANCH   9  29
TORSDOF 8
ENDMDL
MODEL 4
REMARK VINA RESULT:      -6.4      1.862      2.505
REMARK  Name = *****
REMARK                            x       y       z     vdW  Elec       q    Type
REMARK                         _______ _______ _______ _____ _____    ______ ____
ROOT
ATOM      1  C   LIG    1       26.364 -28.102  12.451  0.00  0.00    -0.009 C 
ATOM      2  C   LIG    1       27.384 -28.216  11.330  0.00  0.00    +0.108 C 
ATOM      3  S   LIG    1       26.601 -28.461   9.713  0.00  0.00    -0.131 S 
ATOM      4  C   LIG    1       25.694 -29.919  10.280  0.00  0.00    +0.169 C 
ATOM      5  N   LIG    1       24.820 -29.549  11.388  0.00  0.00    -0.249 N 
ATOM      6  C   LIG    1       23.674 -29.918  10.786  0.00  0.00    +0.244 C 
ATOM      7  O   LIG    1       22.512 -29.781  11.136  0.00  0.00    -0.273 OA
ATOM      8  CA  LIG    1       24.409 -30.301   9.487  0.00  0.00    +0.191 C 
ATOM      9  CA  LIG    1       25.157 -28.736  12.446  0.00  0.00    +0.126 C 
ENDROOT
BRANCH   8  10
ATOM     10  N   LIG    1       24.063 -29.497   8.275  0.00  0.00    -0.300 N 
ATOM     11  H   LIG    1       23.395 -28.729   8.302  0.00  0.00    +0.150 HD
ATOM     12  C   LIG    1       24.594 -29.822   7.042  0.00  0.00    +0.235 C 
ATOM     13  O   LIG    1       25.337 -30.795   6.924  0.00  0.00    -0.274 OA
BRANCH  12  14
ATOM     14  CA  LIG    1       24.216 -28.845   5.887  0.00  0.00    +0.168 C 
BRANCH  14  15
ATOM     15  C   LIG    1       24.747 -27.427   6.042  0.00  0.00    -0.022 A 
ATOM     16  C   LIG    1       26.112 -27.156   6.229  0.00  0.00    +0.009 A 
ATOM     17  C   LIG    1       26.568 -25.850   6.410  0.00  0.00    +0.045 A 
ATOM     18  C   LIG    1       25.671 -24.794   6.364  0.00  0.00    +0.117 A 
ATOM     19  C   LIG    1       24.319 -25.023   6.133  0.00  0.00    +0.045 A 
ATOM     20  C   LIG    1       23.860 -26.336   5.972  0.00  0.00    +0.009 A 
BRANCH  18  21
ATOM     21  O   LIG    1       26.163 -23.536   6.546  0.00  0.00    -0.507 OA
ATOM     22  H   LIG    1       25.420 -22.915   6.606  0.00  0.00    +0.292 HD
ENDBRANCH  18  21
ENDBRANCH  14  15
BRANCH  14  23
ATOM     23  N   LIG    1       24.634 -29.423   4.590  0.00  0.00    -0.316 NA
ATOM     24  H1  LIG    1       25.644 -29.578   4.633  0.00  0.00    +0.119 HD
ATOM     25  H2  LIG    1       24.239 -30.364   4.525  0.00  0.00    +0.119 HD
ENDBRANCH  14  23
ENDBRANCH  12  14
ENDBRANCH   8  10
BRANCH   1  28
ATOM     26  C   LIG    1       27.409 -24.876  14.313  0.00  0.00    +0.035 C 
ATOM     27  C   LIG    1       26.923 -25.832  13.270  0.00  0.00    -0.030 C 
ATOM     28  C   LIG    1       26.792 -27.152  13.476  0.00  0.00    +0.002 C 
ENDBRANCH   1  28
BRANCH   9  29
ATOM     29  C   LIG    1       24.197 -28.556  13.615  0.00  0.00    +0.352 C 
ATOM     30  O   LIG    1       24.313 -29.128  14.689  0.00  0.00    -0.244 OA
BRANCH  29  31
ATOM     31  OXT LIG    1       23.140 -27.744  13.420  0.00  0.00    -0.476 OA
ATOM     32  HXT LIG    1       23.114 -26.910  13.937  0.00  0.00    +0.295 HD
ENDBRANCH  29  31
ENDBRANCH   9  29
TORSDOF 8
ENDMDL
MODEL 5
REMARK VINA RESULT:      -6.2      1.577      2.145
REMARK  Name = *****
REMARK                            x       y       z     vdW  Elec       q    Type
REMARK                         _______ _______ _______ _____ _____    ______ ____
ROOT
ATOM      1  C   LIG    1       25.053 -27.977  12.760  0.00  0.00    -0.009 C 
ATOM      2  C   LIG    1       26.484 -28.047  12.254  0.00  0.00    +0.108 C 
ATOM      3  S   LIG    1       26.569 -28.490  10.497  0.00  0.00    -0.131 S 
ATOM      4  C   LIG    1       25.609 -30.002  10.747  0.00  0.00    +0.169 C 
ATOM      5  N   LIG    1       24.294 -29.663  11.280  0.00  0.00    -0.249 N 
ATOM      6  C   LIG    1       23.593 -30.203  10.266  0.00  0.00    +0.244 C 
ATOM      7  O   LIG    1       22.396 -30.178  10.025  0.00  0.00    -0.273 OA
ATOM      8  CA  LIG    1       24.876 -30.584   9.502  0.00  0.00    +0.191 C 
ATOM      9  CA  LIG    1       24.037 -28.746  12.274  0.00  0.00    +0.126 C 
ENDROOT
BRANCH   8  10
ATOM     10  N   LIG    1       25.081 -29.910   8.184  0.00  0.00    -0.300 N 
ATOM     11  H   LIG    1       25.664 -29.082   8.079  0.00  0.00    +0.150 HD
ATOM     12  C   LIG    1       24.415 -30.353   7.057  0.00  0.00    +0.235 C 
ATOM     13  O   LIG    1       23.625 -31.292   7.135  0.00  0.00    -0.274 OA
BRANCH  12  14
ATOM     14  CA  LIG    1       24.792 -29.612   5.739  0.00  0.00    +0.168 C 
BRANCH  14  15
ATOM     15  C   LIG    1       25.075 -28.124   5.893  0.00  0.00    -0.022 A 
ATOM     16  C   LIG    1       26.375 -27.598   5.814  0.00  0.00    +0.009 A 
ATOM     17  C   LIG    1       26.612 -26.236   6.001  0.00  0.00    +0.045 A 
ATOM     18  C   LIG    1       25.548 -25.376   6.225  0.00  0.00    +0.117 A 
ATOM     19  C   LIG    1       24.244 -25.856   6.262  0.00  0.00    +0.045 A 
ATOM     20  C   LIG    1       24.010 -27.227   6.095  0.00  0.00    +0.009 A 
BRANCH  18  21
ATOM     21  O   LIG    1       25.829 -24.053   6.401  0.00  0.00    -0.507 OA
ATOM     22  H   LIG    1       25.659 -23.585   5.569  0.00  0.00    +0.292 HD
ENDBRANCH  18  21
ENDBRANCH  14  15
BRANCH  14  23
ATOM     23  N   LIG    1       25.933 -30.299   5.093  0.00  0.00    -0.316 NA
ATOM     24  H1  LIG    1       25.608 -31.220   4.790  0.00  0.00    +0.119 HD
ATOM     25  H2  LIG    1       26.141 -29.808   4.220  0.00  0.00    +0.119 HD
ENDBRANCH  14  23
ENDBRANCH  12  14
ENDBRANCH   8  10
BRANCH   1  28
ATOM     26  C   LIG    1       25.207 -24.602  14.644  0.00  0.00    +0.035 C 
ATOM     27  C   LIG    1       25.345 -25.666  13.602  0.00  0.00    -0.030 C 
ATOM     28  C   LIG    1       24.882 -26.916  13.752  0.00  0.00    +0.002 C 
ENDBRANCH   1  28
BRANCH   9  29
ATOM     29  C   LIG    1       22.632 -28.600  12.843  0.00  0.00    +0.352 C 
ATOM     30  O   LIG    1       21.877 -27.676  12.576  0.00  0.00    -0.244 OA
BRANCH  29  31
ATOM     31  OXT LIG    1       22.229 -29.536  13.724  0.00  0.00    -0.476 OA
ATOM     32  HXT LIG    1       22.928 -30.041  14.194  0.00  0.00    +0.295 HD
ENDBRANCH  29  31
ENDBRANCH   9  29
TORSDOF 8
ENDMDL
MODEL 6
REMARK VINA RESULT:      -6.1      3.972      8.696
REMARK  Name = *****
REMARK                            x       y       z     vdW  Elec       q    Type
REMARK                         _______ _______ _______ _____ _____    ______ ____
ROOT
ATOM      1  C   LIG    1       27.431 -20.358   6.864  0.00  0.00    -0.009 C 
ATOM      2  C   LIG    1       27.298 -21.366   7.993  0.00  0.00    +0.108 C 
ATOM      3  S   LIG    1       26.537 -22.917   7.443  0.00  0.00    -0.131 S 
ATOM      4  C   LIG    1       25.078 -22.067   6.796  0.00  0.00    +0.169 C 
ATOM      5  N   LIG    1       25.482 -21.124   5.758  0.00  0.00    -0.249 N 
ATOM      6  C   LIG    1       24.746 -21.679   4.777  0.00  0.00    +0.244 C 
ATOM      7  O   LIG    1       24.700 -21.431   3.582  0.00  0.00    -0.273 OA
ATOM      8  CA  LIG    1       24.257 -22.811   5.701  0.00  0.00    +0.191 C 
ATOM      9  CA  LIG    1       26.563 -20.274   5.816  0.00  0.00    +0.126 C 
ENDROOT
BRANCH   8  10
ATOM     10  N   LIG    1       24.677 -24.194   5.324  0.00  0.00    -0.300 N 
ATOM     11  H   LIG    1       25.341 -24.379   4.574  0.00  0.00    +0.150 HD
ATOM     12  C   LIG    1       24.113 -25.293   5.943  0.00  0.00    +0.235 C 
ATOM     13  O   LIG    1       23.237 -25.143   6.793  0.00  0.00    -0.274 OA
BRANCH  12  14
ATOM     14  CA  LIG    1       24.710 -26.668   5.511  0.00  0.00    +0.168 C 
BRANCH  14  15
ATOM     15  C   LIG    1       25.056 -27.608   6.657  0.00  0.00    -0.022 A 
ATOM     16  C   LIG    1       24.385 -28.826   6.853  0.00  0.00    +0.009 A 
ATOM     17  C   LIG    1       24.692 -29.651   7.936  0.00  0.00    +0.045 A 
ATOM     18  C   LIG    1       25.706 -29.290   8.811  0.00  0.00    +0.117 A 
ATOM     19  C   LIG    1       26.422 -28.114   8.618  0.00  0.00    +0.045 A 
ATOM     20  C   LIG    1       26.098 -27.278   7.543  0.00  0.00    +0.009 A 
BRANCH  18  21
ATOM     21  O   LIG    1       25.971 -30.128   9.853  0.00  0.00    -0.507 OA
ATOM     22  H   LIG    1       25.365 -29.921  10.582  0.00  0.00    +0.292 HD
ENDBRANCH  18  21
ENDBRANCH  14  15
BRANCH  14  23
ATOM     23  N   LIG    1       23.797 -27.325   4.549  0.00  0.00    -0.316 NA
ATOM     24  H1  LIG    1       24.116 -28.289   4.431  0.00  0.00    +0.119 HD
ATOM     25  H2  LIG    1       22.883 -27.416   4.998  0.00  0.00    +0.119 HD
ENDBRANCH  14  23
ENDBRANCH  12  14
ENDBRANCH   8  10
BRANCH   1  28
ATOM     26  C   LIG    1       31.125 -19.278   7.254  0.00  0.00    +0.035 C 
ATOM     27  C   LIG    1       29.885 -20.095   7.079  0.00  0.00    -0.030 C 
ATOM     28  C   LIG    1       28.655 -19.567   6.986  0.00  0.00    +0.002 C 
ENDBRANCH   1  28
BRANCH   9  29
ATOM     29  C   LIG    1       26.781 -19.232   4.727  0.00  0.00    +0.352 C 
ATOM     30  O   LIG    1       27.819 -18.600   4.582  0.00  0.00    -0.244 OA
BRANCH  29  31
ATOM     31  OXT LIG    1       25.743 -18.974   3.909  0.00  0.00    -0.476 OA
ATOM     32  HXT LIG    1       24.867 -18.829   4.327  0.00  0.00    +0.295 HD
ENDBRANCH  29  31
ENDBRANCH   9  29
TORSDOF 8
ENDMDL
MODEL 7
REMARK VINA RESULT:      -6.1      3.337      6.952
REMARK  Name = *****
REMARK                            x       y       z     vdW  Elec       q    Type
REMARK                         _______ _______ _______ _____ _____    ______ ____
ROOT
ATOM      1  C   LIG    1       24.448 -32.098   7.087  0.00  0.00    -0.009 C 
ATOM      2  C   LIG    1       24.732 -33.106   8.188  0.00  0.00    +0.108 C 
ATOM      3  S   LIG    1       25.012 -32.308   9.793  0.00  0.00    -0.131 S 
ATOM      4  C   LIG    1       26.337 -31.268   9.137  0.00  0.00    +0.169 C 
ATOM      5  N   LIG    1       25.814 -30.429   8.065  0.00  0.00    -0.249 N 
ATOM      6  C   LIG    1       26.116 -29.255   8.651  0.00  0.00    +0.244 C 
ATOM      7  O   LIG    1       25.847 -28.110   8.322  0.00  0.00    -0.273 OA
ATOM      8  CA  LIG    1       26.652 -29.955   9.915  0.00  0.00    +0.191 C 
ATOM      9  CA  LIG    1       24.966 -30.836   7.061  0.00  0.00    +0.126 C 
ENDROOT
BRANCH   8  10
ATOM     10  N   LIG    1       25.903 -29.689  11.181  0.00  0.00    -0.300 N 
ATOM     11  H   LIG    1       25.158 -30.298  11.513  0.00  0.00    +0.150 HD
ATOM     12  C   LIG    1       26.154 -28.548  11.918  0.00  0.00    +0.235 C 
ATOM     13  O   LIG    1       26.977 -27.725  11.524  0.00  0.00    -0.274 OA
BRANCH  12  14
ATOM     14  CA  LIG    1       25.363 -28.446  13.258  0.00  0.00    +0.168 C 
BRANCH  14  15
ATOM     15  C   LIG    1       23.913 -28.007  13.119  0.00  0.00    -0.022 A 
ATOM     16  C   LIG    1       23.493 -26.703  13.428  0.00  0.00    +0.009 A 
ATOM     17  C   LIG    1       22.150 -26.337  13.332  0.00  0.00    +0.045 A 
ATOM     18  C   LIG    1       21.216 -27.258  12.884  0.00  0.00    +0.117 A 
ATOM     19  C   LIG    1       21.604 -28.544  12.524  0.00  0.00    +0.045 A 
ATOM     20  C   LIG    1       22.949 -28.915  12.640  0.00  0.00    +0.009 A 
BRANCH  18  21
ATOM     21  O   LIG    1       19.916 -26.854  12.806  0.00  0.00    -0.507 OA
ATOM     22  H   LIG    1       19.751 -26.503  11.916  0.00  0.00    +0.292 HD
ENDBRANCH  18  21
ENDBRANCH  14  15
BRANCH  14  23
ATOM     23  N   LIG    1       25.455 -29.731  13.987  0.00  0.00    -0.316 NA
ATOM     24  H1  LIG    1       24.502 -30.045  14.181  0.00  0.00    +0.119 HD
ATOM     25  H2  LIG    1       25.824 -30.432  13.341  0.00  0.00    +0.119 HD
ENDBRANCH  14  23
ENDBRANCH  12  14
ENDBRANCH   8  10
BRANCH   1  28
ATOM     26  C   LIG    1       22.795 -33.825   4.046  0.00  0.00    +0.035 C 
ATOM     27  C   LIG    1       23.795 -33.349   5.052  0.00  0.00    -0.030 C 
ATOM     28  C   LIG    1       23.474 -32.609   6.124  0.00  0.00    +0.002 C 
ENDBRANCH   1  28
BRANCH   9  29
ATOM     29  C   LIG    1       24.619 -29.894   5.916  0.00  0.00    +0.352 C 
ATOM     30  O   LIG    1       25.447 -29.384   5.174  0.00  0.00    -0.244 OA
BRANCH  29  31
ATOM     31  OXT LIG    1       23.319 -29.584   5.750  0.00  0.00    -0.476 OA
ATOM     32  HXT LIG    1       22.853 -29.180   6.514  0.00  0.00    +0.295 HD
ENDBRANCH  29  31
ENDBRANCH   9  29
TORSDOF 8
ENDMDL
MODEL 8
REMARK VINA RESULT:      -5.8      3.134      5.046
REMARK  Name = *****
REMARK                            x       y       z     vdW  Elec       q    Type
REMARK                         _______ _______ _______ _____ _____    ______ ____
ROOT
ATOM      1  C   LIG    1       20.959 -27.904  13.573  0.00  0.00    -0.009 C 
ATOM      2  C   LIG    1       22.168 -27.010  13.793  0.00  0.00    +0.108 C 
ATOM      3  S   LIG    1       23.630 -27.601  12.898  0.00  0.00    -0.131 S 
ATOM      4  C   LIG    1       23.544 -29.234  13.669  0.00  0.00    +0.169 C 
ATOM      5  N   LIG    1       22.269 -29.863  13.340  0.00  0.00    -0.249 N 
ATOM      6  C   LIG    1       22.801 -30.937  12.727  0.00  0.00    +0.244 C 
ATOM      7  O   LIG    1       22.267 -31.845  12.109  0.00  0.00    -0.273 OA
ATOM      8  CA  LIG    1       24.236 -30.407  12.913  0.00  0.00    +0.191 C 
ATOM      9  CA  LIG    1       21.038 -29.247  13.351  0.00  0.00    +0.126 C 
ENDROOT
BRANCH   8  10
ATOM     10  N   LIG    1       24.987 -30.092  11.660  0.00  0.00    -0.300 N 
ATOM     11  H   LIG    1       24.882 -29.207  11.168  0.00  0.00    +0.150 HD
ATOM     12  C   LIG    1       25.809 -31.038  11.077  0.00  0.00    +0.235 C 
ATOM     13  O   LIG    1       25.909 -32.159  11.570  0.00  0.00    -0.274 OA
BRANCH  12  14
ATOM     14  CA  LIG    1       26.595 -30.541   9.825  0.00  0.00    +0.168 C 
BRANCH  14  15
ATOM     15  C   LIG    1       25.738 -30.228   8.608  0.00  0.00    -0.022 A 
ATOM     16  C   LIG    1       25.546 -28.915   8.146  0.00  0.00    +0.009 A 
ATOM     17  C   LIG    1       24.721 -28.650   7.053  0.00  0.00    +0.045 A 
ATOM     18  C   LIG    1       24.113 -29.699   6.378  0.00  0.00    +0.117 A 
ATOM     19  C   LIG    1       24.321 -31.014   6.779  0.00  0.00    +0.045 A 
ATOM     20  C   LIG    1       25.132 -31.276   7.889  0.00  0.00    +0.009 A 
BRANCH  18  21
ATOM     21  O   LIG    1       23.317 -29.391   5.315  0.00  0.00    -0.507 OA
ATOM     22  H   LIG    1       23.441 -28.454   5.094  0.00  0.00    +0.292 HD
ENDBRANCH  18  21
ENDBRANCH  14  15
BRANCH  14  23
ATOM     23  N   LIG    1       27.430 -29.376  10.194  0.00  0.00    -0.316 NA
ATOM     24  H1  LIG    1       26.823 -28.697  10.659  0.00  0.00    +0.119 HD
ATOM     25  H2  LIG    1       28.079 -29.675  10.926  0.00  0.00    +0.119 HD
ENDBRANCH  14  23
ENDBRANCH  12  14
ENDBRANCH   8  10
BRANCH   1  28
ATOM     26  C   LIG    1       17.596 -26.225  14.490  0.00  0.00    +0.035 C 
ATOM     27  C   LIG    1       18.889 -26.975  14.566  0.00  0.00    -0.030 C 
ATOM     28  C   LIG    1       19.718 -27.133  13.523  0.00  0.00    +0.002 C 
ENDBRANCH   1  28
BRANCH   9  29
ATOM     29  C   LIG    1       19.769 -30.060  13.136  0.00  0.00    +0.352 C 
ATOM     30  O   LIG    1       19.067 -30.487  14.043  0.00  0.00    -0.244 OA
BRANCH  29  31
ATOM     31  OXT LIG    1       19.436 -30.351  11.864  0.00  0.00    -0.476 OA
ATOM     32  HXT LIG    1       20.057 -30.916  11.355  0.00  0.00    +0.295 HD
ENDBRANCH  29  31
ENDBRANCH   9  29
TORSDOF 8
ENDMDL
MODEL 9
REMARK VINA RESULT:      -5.6      3.549      8.225
REMARK  Name = *****
REMARK                            x       y       z     vdW  Elec       q    Type
REMARK                         _______ _______ _______ _____ _____    ______ ____
ROOT
ATOM      1  C   LIG    1       26.806 -20.555   7.161  0.00  0.00    -0.009 C 
ATOM      2  C   LIG    1       26.905 -21.279   8.493  0.00  0.00    +0.108 C 
ATOM      3  S   LIG    1       26.570 -23.054   8.335  0.00  0.00    -0.131 S 
ATOM      4  C   LIG    1       24.960 -22.766   7.564  0.00  0.00    +0.169 C 
ATOM      5  N   LIG    1       25.139 -22.015   6.327  0.00  0.00    -0.249 N 
ATOM      6  C   LIG    1       24.589 -22.945   5.523  0.00  0.00    +0.244 C 
ATOM      7  O   LIG    1       24.510 -22.995   4.305  0.00  0.00    -0.273 OA
ATOM      8  CA  LIG    1       24.379 -23.921   6.696  0.00  0.00    +0.191 C 
ATOM      9  CA  LIG    1       25.970 -20.932   6.152  0.00  0.00    +0.126 C 
ENDROOT
BRANCH   8  10
ATOM     10  N   LIG    1       25.141 -25.204   6.628  0.00  0.00    -0.300 N 
ATOM     11  H   LIG    1       26.085 -25.299   6.997  0.00  0.00    +0.150 HD
ATOM     12  C   LIG    1       24.608 -26.305   5.984  0.00  0.00    +0.235 C 
ATOM     13  O   LIG    1       23.510 -26.230   5.437  0.00  0.00    -0.274 OA
BRANCH  12  14
ATOM     14  CA  LIG    1       25.476 -27.598   6.068  0.00  0.00    +0.168 C 
BRANCH  14  15
ATOM     15  C   LIG    1       25.381 -28.353   7.386  0.00  0.00    -0.022 A 
ATOM     16  C   LIG    1       26.277 -28.127   8.444  0.00  0.00    +0.009 A 
ATOM     17  C   LIG    1       26.194 -28.863   9.627  0.00  0.00    +0.045 A 
ATOM     18  C   LIG    1       25.187 -29.803   9.784  0.00  0.00    +0.117 A 
ATOM     19  C   LIG    1       24.255 -30.018   8.775  0.00  0.00    +0.045 A 
ATOM     20  C   LIG    1       24.352 -29.294   7.581  0.00  0.00    +0.009 A 
BRANCH  18  21
ATOM     21  O   LIG    1       25.146 -30.496  10.957  0.00  0.00    -0.507 OA
ATOM     22  H   LIG    1       24.220 -30.678  11.180  0.00  0.00    +0.292 HD
ENDBRANCH  18  21
ENDBRANCH  14  15
BRANCH  14  23
ATOM     23  N   LIG    1       25.153 -28.486   4.929  0.00  0.00    -0.316 NA
ATOM     24  H1  LIG    1       24.698 -27.916   4.213  0.00  0.00    +0.119 HD
ATOM     25  H2  LIG    1       26.034 -28.774   4.498  0.00  0.00    +0.119 HD
ENDBRANCH  14  23
ENDBRANCH  12  14
ENDBRANCH   8  10
BRANCH   1  28
ATOM     26  C   LIG    1       30.067 -18.480   7.334  0.00  0.00    +0.035 C 
ATOM     27  C   LIG    1       29.081 -19.603   7.397  0.00  0.00    -0.030 C 
ATOM     28  C   LIG    1       27.789 -19.477   7.057  0.00  0.00    +0.002 C 
ENDBRANCH   1  28
BRANCH   9  29
ATOM     29  C   LIG    1       25.945 -20.145   4.848  0.00  0.00    +0.352 C 
ATOM     30  O   LIG    1       24.941 -19.626   4.381  0.00  0.00    -0.244 OA
BRANCH  29  31
ATOM     31  OXT LIG    1       27.101 -20.060   4.163  0.00  0.00    -0.476 OA
ATOM     32  HXT LIG    1       27.173 -20.589   3.338  0.00  0.00    +0.295 HD
ENDBRANCH  29  31
ENDBRANCH   9  29
TORSDOF 8
ENDMDL
