MODEL 1
REMARK VINA RESULT:      -7.7      0.000      0.000
REMARK  Name = *****
REMARK                            x       y       z     vdW  Elec       q    Type
REMARK                         _______ _______ _______ _____ _____    ______ ____
ROOT
ATOM      1  P   LIG    1       25.615 -26.929   7.132  0.00  0.00    +0.216 P 
ATOM      2  O   LIG    1       26.821 -26.827   6.181  0.00  0.00    -0.290 OA
ENDROOT
BRANCH   1   3
ATOM      3  C   LIG    1       24.955 -25.396   6.383  0.00  0.00    +0.193 C 
BRANCH   3   4
ATOM      4  C   LIG    1       25.619 -24.059   6.639  0.00  0.00    +0.226 C 
ATOM      5  N   LIG    1       24.861 -22.949   6.905  0.00  0.00    -0.287 N 
ATOM      6  C   LIG    1       25.436 -21.597   7.100  0.00  0.00    +0.185 C 
ATOM      7  C   LIG    1       24.199 -20.671   7.116  0.00  0.00    +0.039 C 
ATOM      8  C   LIG    1       23.016 -21.497   6.571  0.00  0.00    +0.012 C 
ATOM      9  C   LIG    1       23.422 -22.908   6.993  0.00  0.00    +0.112 C 
ATOM     10  O   LIG    1       26.841 -23.954   6.773  0.00  0.00    -0.275 OA
BRANCH   8  11
ATOM     11  C   LIG    1       22.811 -21.305   5.036  0.00  0.00    -0.006 C 
ATOM     12  C   LIG    1       21.838 -20.170   4.637  0.00  0.00    +0.004 C 
ATOM     13  C   LIG    1       22.442 -18.769   4.625  0.00  0.00    +0.000 C 
ATOM     14  C   LIG    1       23.699 -18.708   3.769  0.00  0.00    +0.000 C 
ATOM     15  C   LIG    1       24.722 -19.719   4.260  0.00  0.00    +0.000 C 
ATOM     16  C   LIG    1       24.146 -21.136   4.267  0.00  0.00    +0.004 C 
ENDBRANCH   8  11
BRANCH   6  17
ATOM     17  C   LIG    1       26.220 -21.318   8.405  0.00  0.00    +0.326 C 
ATOM     18  O   LIG    1       25.687 -20.956   9.447  0.00  0.00    -0.249 OA
BRANCH  17  19
ATOM     19  O   LIG    1       27.555 -21.506   8.324  0.00  0.00    -0.479 OA
ATOM     20  H   LIG    1       27.806 -21.958   7.492  0.00  0.00    +0.295 HD
ENDBRANCH  17  19
ENDBRANCH   6  17
ENDBRANCH   3   4
ENDBRANCH   1   3
BRANCH   1  21
ATOM     21  O   LIG    1       26.238 -28.379   7.841  0.00  0.00    -0.286 OA
BRANCH  21  22
ATOM     22  C   LIG    1       25.830 -28.746   9.170  0.00  0.00    +0.320 C 
BRANCH  22  23
ATOM     23  C   LIG    1       27.044 -28.545  10.132  0.00  0.00    +0.052 C 
ATOM     24  C   LIG    1       27.605 -29.896  10.607  0.00  0.00    +0.013 C 
ATOM     25  C   LIG    1       26.751 -27.704  11.379  0.00  0.00    +0.013 C 
ENDBRANCH  22  23
BRANCH  22  26
ATOM     26  O   LIG    1       25.280 -30.077   9.155  0.00  0.00    -0.434 OA
BRANCH  26  27
ATOM     27  C   LIG    1       23.984 -30.170   9.619  0.00  0.00    +0.309 C 
ATOM     28  O   LIG    1       22.995 -30.312   8.941  0.00  0.00    -0.251 OA
BRANCH  27  30
ATOM     29  C   LIG    1       24.354 -31.527  11.743  0.00  0.00    +0.015 C 
ATOM     30  C   LIG    1       23.974 -30.191  11.146  0.00  0.00    +0.117 C 
ENDBRANCH  27  30
ENDBRANCH  26  27
ENDBRANCH  22  26
ENDBRANCH  21  22
ENDBRANCH   1  21
BRANCH   1  31
ATOM     31  C   LIG    1       24.351 -28.087   6.262  0.00  0.00    +0.098 C 
BRANCH  31  32
ATOM     32  C   LIG    1       25.009 -29.287   5.574  0.00  0.00    +0.010 C 
BRANCH  32  33
ATOM     33  C   LIG    1       24.225 -30.586   5.762  0.00  0.00    +0.005 C 
BRANCH  33  34
ATOM     34  C   LIG    1       25.117 -31.804   5.522  0.00  0.00    +0.035 C 
BRANCH  34  35
ATOM     35  C   LIG    1       25.559 -32.462   6.804  0.00  0.00    -0.047 A 
ATOM     36  C   LIG    1       26.891 -32.372   7.231  0.00  0.00    +0.003 A 
ATOM     37  C   LIG    1       27.288 -32.944   8.441  0.00  0.00    +0.000 A 
ATOM     38  C   LIG    1       26.365 -33.637   9.222  0.00  0.00    +0.000 A 
ATOM     39  C   LIG    1       25.047 -33.765   8.789  0.00  0.00    +0.000 A 
ATOM     40  C   LIG    1       24.641 -33.167   7.595  0.00  0.00    +0.003 A 
ENDBRANCH  34  35
ENDBRANCH  33  34
ENDBRANCH  32  33
ENDBRANCH  31  32
ENDBRANCH   1  31
TORSDOF 16
ENDMDL
MODEL 2
REMARK VINA RESULT:      -7.4      3.594      6.887
REMARK  Name = *****
REMARK                            x       y       z     vdW  Elec       q    Type
REMARK                         _______ _______ _______ _____ _____    ______ ____
ROOT
ATOM      1  P   LIG    1       26.629 -28.024  10.962  0.00  0.00    +0.216 P 
ATOM      2  O   LIG    1       27.958 -28.743  11.256  0.00  0.00    -0.290 OA
ENDROOT
BRANCH   1   3
ATOM      3  C   LIG    1       26.832 -28.472   9.199  0.00  0.00    +0.193 C 
BRANCH   3   4
ATOM      4  C   LIG    1       25.636 -28.534   8.272  0.00  0.00    +0.226 C 
ATOM      5  N   LIG    1       25.521 -27.651   7.230  0.00  0.00    -0.287 N 
ATOM      6  C   LIG    1       24.350 -27.608   6.323  0.00  0.00    +0.185 C 
ATOM      7  C   LIG    1       24.568 -26.317   5.503  0.00  0.00    +0.039 C 
ATOM      8  C   LIG    1       25.661 -25.506   6.228  0.00  0.00    +0.012 C 
ATOM      9  C   LIG    1       26.472 -26.623   6.884  0.00  0.00    +0.112 C 
ATOM     10  O   LIG    1       24.821 -29.458   8.320  0.00  0.00    -0.275 OA
BRANCH   8  11
ATOM     11  C   LIG    1       25.067 -24.458   7.220  0.00  0.00    -0.006 C 
ATOM     12  C   LIG    1       26.052 -23.360   7.688  0.00  0.00    +0.004 C 
ATOM     13  C   LIG    1       26.228 -22.190   6.724  0.00  0.00    +0.000 C 
ATOM     14  C   LIG    1       24.892 -21.570   6.344  0.00  0.00    +0.000 C 
ATOM     15  C   LIG    1       23.976 -22.619   5.737  0.00  0.00    +0.000 C 
ATOM     16  C   LIG    1       23.769 -23.797   6.690  0.00  0.00    +0.004 C 
ENDBRANCH   8  11
BRANCH   6  17
ATOM     17  C   LIG    1       24.171 -28.760   5.306  0.00  0.00    +0.326 C 
ATOM     18  O   LIG    1       24.877 -28.899   4.314  0.00  0.00    -0.249 OA
BRANCH  17  19
ATOM     19  O   LIG    1       23.170 -29.623   5.587  0.00  0.00    -0.479 OA
ATOM     20  H   LIG    1       22.524 -29.677   4.854  0.00  0.00    +0.295 HD
ENDBRANCH  17  19
ENDBRANCH   6  17
ENDBRANCH   3   4
ENDBRANCH   1   3
BRANCH   1  21
ATOM     21  O   LIG    1       26.435 -27.600  12.627  0.00  0.00    -0.286 OA
BRANCH  21  22
ATOM     22  C   LIG    1       27.006 -26.373  13.114  0.00  0.00    +0.320 C 
BRANCH  22  23
ATOM     23  C   LIG    1       27.225 -26.509  14.654  0.00  0.00    +0.052 C 
ATOM     24  C   LIG    1       28.584 -25.923  15.074  0.00  0.00    +0.013 C 
ATOM     25  C   LIG    1       27.155 -27.941  15.196  0.00  0.00    +0.013 C 
ENDBRANCH  22  23
BRANCH  22  26
ATOM     26  O   LIG    1       26.180 -25.264  12.712  0.00  0.00    -0.434 OA
BRANCH  26  27
ATOM     27  C   LIG    1       25.358 -24.769  13.704  0.00  0.00    +0.309 C 
ATOM     28  O   LIG    1       25.570 -23.790  14.378  0.00  0.00    -0.251 OA
BRANCH  27  30
ATOM     29  C   LIG    1       23.692 -26.053  15.141  0.00  0.00    +0.015 C 
ATOM     30  C   LIG    1       24.059 -25.568  13.757  0.00  0.00    +0.117 C 
ENDBRANCH  27  30
ENDBRANCH  26  27
ENDBRANCH  22  26
ENDBRANCH  21  22
ENDBRANCH   1  21
BRANCH   1  31
ATOM     31  C   LIG    1       25.244 -29.316  11.293  0.00  0.00    +0.098 C 
BRANCH  31  32
ATOM     32  C   LIG    1       24.336 -28.936  12.468  0.00  0.00    +0.010 C 
BRANCH  32  33
ATOM     33  C   LIG    1       22.860 -29.232  12.201  0.00  0.00    +0.005 C 
BRANCH  33  34
ATOM     34  C   LIG    1       22.088 -29.397  13.510  0.00  0.00    +0.035 C 
BRANCH  34  35
ATOM     35  C   LIG    1       20.989 -28.379  13.668  0.00  0.00    -0.047 A 
ATOM     36  C   LIG    1       19.987 -28.553  14.633  0.00  0.00    +0.003 A 
ATOM     37  C   LIG    1       18.994 -27.586  14.806  0.00  0.00    +0.000 A 
ATOM     38  C   LIG    1       18.976 -26.450  13.999  0.00  0.00    +0.000 A 
ATOM     39  C   LIG    1       19.945 -26.286  13.011  0.00  0.00    +0.000 A 
ATOM     40  C   LIG    1       20.957 -27.235  12.857  0.00  0.00    +0.003 A 
ENDBRANCH  34  35
ENDBRANCH  33  34
ENDBRANCH  32  33
ENDBRANCH  31  32
ENDBRANCH   1  31
TORSDOF 16
ENDMDL
MODEL 3
REMARK VINA RESULT:      -7.3      2.644     10.250
REMARK  Name = *****
REMARK                            x       y       z     vdW  Elec       q    Type
REMARK                         _______ _______ _______ _____ _____    ______ ____
ROOT
ATOM      1  P   LIG    1       24.892 -24.947   5.806  0.00  0.00    +0.216 P 
ATOM      2  O   LIG    1       25.496 -25.532   4.517  0.00  0.00    -0.290 OA
ENDROOT
BRANCH   1   3
ATOM      3  C   LIG    1       25.787 -26.232   6.752  0.00  0.00    +0.193 C 
BRANCH   3   4
ATOM      4  C   LIG    1       25.711 -27.689   6.344  0.00  0.00    +0.226 C 
ATOM      5  N   LIG    1       25.246 -28.631   7.225  0.00  0.00    -0.287 N 
ATOM      6  C   LIG    1       25.205 -30.081   6.921  0.00  0.00    +0.185 C 
ATOM      7  C   LIG    1       24.855 -30.731   8.278  0.00  0.00    +0.039 C 
ATOM      8  C   LIG    1       25.069 -29.650   9.359  0.00  0.00    +0.012 C 
ATOM      9  C   LIG    1       24.778 -28.377   8.565  0.00  0.00    +0.112 C 
ATOM     10  O   LIG    1       25.907 -28.052   5.182  0.00  0.00    -0.275 OA
BRANCH   8  11
ATOM     11  C   LIG    1       26.492 -29.715   9.994  0.00  0.00    -0.006 C 
ATOM     12  C   LIG    1       27.083 -28.353  10.431  0.00  0.00    +0.004 C 
ATOM     13  C   LIG    1       26.613 -27.846  11.791  0.00  0.00    +0.000 C 
ATOM     14  C   LIG    1       26.828 -28.885  12.882  0.00  0.00    +0.000 C 
ATOM     15  C   LIG    1       26.115 -30.179  12.528  0.00  0.00    +0.000 C 
ATOM     16  C   LIG    1       26.579 -30.719  11.174  0.00  0.00    +0.004 C 
ENDBRANCH   8  11
BRANCH   6  17
ATOM     17  C   LIG    1       24.155 -30.583   5.900  0.00  0.00    +0.326 C 
ATOM     18  O   LIG    1       24.101 -31.741   5.504  0.00  0.00    -0.249 OA
BRANCH  17  19
ATOM     19  O   LIG    1       23.282 -29.647   5.467  0.00  0.00    -0.479 OA
ATOM     20  H   LIG    1       23.313 -29.548   4.494  0.00  0.00    +0.295 HD
ENDBRANCH  17  19
ENDBRANCH   6  17
ENDBRANCH   3   4
ENDBRANCH   1   3
BRANCH   1  21
ATOM     21  O   LIG    1       24.045 -23.731   4.913  0.00  0.00    -0.286 OA
BRANCH  21  22
ATOM     22  C   LIG    1       24.221 -22.348   5.264  0.00  0.00    +0.320 C 
BRANCH  22  23
ATOM     23  C   LIG    1       23.043 -21.923   6.197  0.00  0.00    +0.052 C 
ATOM     24  C   LIG    1       23.524 -20.953   7.290  0.00  0.00    +0.013 C 
ATOM     25  C   LIG    1       22.318 -23.079   6.895  0.00  0.00    +0.013 C 
ENDBRANCH  22  23
BRANCH  22  26
ATOM     26  O   LIG    1       24.362 -21.560   4.066  0.00  0.00    -0.434 OA
BRANCH  26  27
ATOM     27  C   LIG    1       24.798 -20.268   4.274  0.00  0.00    +0.309 C 
ATOM     28  O   LIG    1       25.820 -19.945   4.831  0.00  0.00    -0.251 OA
BRANCH  27  30
ATOM     29  C   LIG    1       22.650 -18.906   4.413  0.00  0.00    +0.015 C 
ATOM     30  C   LIG    1       23.860 -19.280   3.586  0.00  0.00    +0.117 C 
ENDBRANCH  27  30
ENDBRANCH  26  27
ENDBRANCH  22  26
ENDBRANCH  21  22
ENDBRANCH   1  21
BRANCH   1  31
ATOM     31  C   LIG    1       26.063 -23.517   6.337  0.00  0.00    +0.098 C 
BRANCH  31  32
ATOM     32  C   LIG    1       26.102 -23.305   7.854  0.00  0.00    +0.010 C 
BRANCH  32  33
ATOM     33  C   LIG    1       26.890 -22.059   8.261  0.00  0.00    +0.005 C 
BRANCH  33  34
ATOM     34  C   LIG    1       27.263 -21.222   7.038  0.00  0.00    +0.035 C 
BRANCH  34  35
ATOM     35  C   LIG    1       28.635 -20.608   7.151  0.00  0.00    -0.047 A 
ATOM     36  C   LIG    1       28.994 -19.510   6.356  0.00  0.00    +0.003 A 
ATOM     37  C   LIG    1       30.251 -18.917   6.495  0.00  0.00    +0.000 A 
ATOM     38  C   LIG    1       31.170 -19.431   7.407  0.00  0.00    +0.000 A 
ATOM     39  C   LIG    1       30.837 -20.546   8.174  0.00  0.00    +0.000 A 
ATOM     40  C   LIG    1       29.571 -21.122   8.060  0.00  0.00    +0.003 A 
ENDBRANCH  34  35
ENDBRANCH  33  34
ENDBRANCH  32  33
ENDBRANCH  31  32
ENDBRANCH   1  31
TORSDOF 16
ENDMDL
MODEL 4
REMARK VINA RESULT:      -7.2      1.647      4.129
REMARK  Name = *****
REMARK                            x       y       z     vdW  Elec       q    Type
REMARK                         _______ _______ _______ _____ _____    ______ ____
ROOT
ATOM      1  P   LIG    1       25.024 -27.836   5.810  0.00  0.00    +0.216 P 
ATOM      2  O   LIG    1       23.646 -28.179   5.217  0.00  0.00    -0.290 OA
ENDROOT
BRANCH   1   3
ATOM      3  C   LIG    1       24.391 -26.161   6.187  0.00  0.00    +0.193 C 
BRANCH   3   4
ATOM      4  C   LIG    1       25.336 -24.982   6.299  0.00  0.00    +0.226 C 
ATOM      5  N   LIG    1       24.859 -23.740   6.629  0.00  0.00    -0.287 N 
ATOM      6  C   LIG    1       25.711 -22.529   6.692  0.00  0.00    +0.185 C 
ATOM      7  C   LIG    1       24.697 -21.375   6.849  0.00  0.00    +0.039 C 
ATOM      8  C   LIG    1       23.307 -21.951   6.507  0.00  0.00    +0.012 C 
ATOM      9  C   LIG    1       23.485 -23.412   6.918  0.00  0.00    +0.112 C 
ATOM     10  O   LIG    1       26.561 -25.122   6.254  0.00  0.00    -0.275 OA
BRANCH   8  11
ATOM     11  C   LIG    1       22.922 -21.733   5.012  0.00  0.00    -0.006 C 
ATOM     12  C   LIG    1       21.830 -20.665   4.760  0.00  0.00    +0.004 C 
ATOM     13  C   LIG    1       22.326 -19.222   4.733  0.00  0.00    +0.000 C 
ATOM     14  C   LIG    1       23.474 -19.041   3.751  0.00  0.00    +0.000 C 
ATOM     15  C   LIG    1       24.616 -19.984   4.093  0.00  0.00    +0.000 C 
ATOM     16  C   LIG    1       24.149 -21.440   4.111  0.00  0.00    +0.004 C 
ENDBRANCH   8  11
BRANCH   6  17
ATOM     17  C   LIG    1       26.717 -22.404   7.862  0.00  0.00    +0.326 C 
ATOM     18  O   LIG    1       26.410 -22.577   9.035  0.00  0.00    -0.249 OA
BRANCH  17  19
ATOM     19  O   LIG    1       27.980 -22.089   7.501  0.00  0.00    -0.479 OA
ATOM     20  H   LIG    1       28.039 -21.869   6.549  0.00  0.00    +0.295 HD
ENDBRANCH  17  19
ENDBRANCH   6  17
ENDBRANCH   3   4
ENDBRANCH   1   3
BRANCH   1  21
ATOM     21  O   LIG    1       25.623 -29.419   5.455  0.00  0.00    -0.286 OA
BRANCH  21  22
ATOM     22  C   LIG    1       25.343 -30.499   6.362  0.00  0.00    +0.320 C 
BRANCH  22  23
ATOM     23  C   LIG    1       26.588 -31.442   6.404  0.00  0.00    +0.052 C 
ATOM     24  C   LIG    1       26.560 -32.449   5.241  0.00  0.00    +0.013 C 
ATOM     25  C   LIG    1       26.753 -32.241   7.701  0.00  0.00    +0.013 C 
ENDBRANCH  22  23
BRANCH  22  26
ATOM     26  O   LIG    1       24.108 -31.138   5.987  0.00  0.00    -0.434 OA
BRANCH  26  27
ATOM     27  C   LIG    1       23.504 -31.861   6.994  0.00  0.00    +0.309 C 
ATOM     28  O   LIG    1       23.195 -31.440   8.083  0.00  0.00    -0.251 OA
BRANCH  27  30
ATOM     29  C   LIG    1       23.045 -33.372   4.995  0.00  0.00    +0.015 C 
ATOM     30  C   LIG    1       23.159 -33.263   6.499  0.00  0.00    +0.117 C 
ENDBRANCH  27  30
ENDBRANCH  26  27
ENDBRANCH  22  26
ENDBRANCH  21  22
ENDBRANCH   1  21
BRANCH   1  31
ATOM     31  C   LIG    1       24.977 -28.436   7.636  0.00  0.00    +0.098 C 
BRANCH  31  32
ATOM     32  C   LIG    1       26.260 -28.110   8.409  0.00  0.00    +0.010 C 
BRANCH  32  33
ATOM     33  C   LIG    1       26.539 -29.097   9.543  0.00  0.00    +0.005 C 
BRANCH  33  34
ATOM     34  C   LIG    1       27.264 -28.411  10.701  0.00  0.00    +0.035 C 
BRANCH  34  35
ATOM     35  C   LIG    1       26.316 -27.884  11.748  0.00  0.00    -0.047 A 
ATOM     36  C   LIG    1       26.620 -26.717  12.464  0.00  0.00    +0.003 A 
ATOM     37  C   LIG    1       25.719 -26.207  13.402  0.00  0.00    +0.000 A 
ATOM     38  C   LIG    1       24.521 -26.872  13.654  0.00  0.00    +0.000 A 
ATOM     39  C   LIG    1       24.227 -28.054  12.976  0.00  0.00    +0.000 A 
ATOM     40  C   LIG    1       25.111 -28.548  12.016  0.00  0.00    +0.003 A 
ENDBRANCH  34  35
ENDBRANCH  33  34
ENDBRANCH  32  33
ENDBRANCH  31  32
ENDBRANCH   1  31
TORSDOF 16
ENDMDL
MODEL 5
REMARK VINA RESULT:      -7.1      3.308      6.078
REMARK  Name = *****
REMARK                            x       y       z     vdW  Elec       q    Type
REMARK                         _______ _______ _______ _____ _____    ______ ____
ROOT
ATOM      1  P   LIG    1       26.268 -28.353  11.094  0.00  0.00    +0.216 P 
ATOM      2  O   LIG    1       27.778 -28.164  11.325  0.00  0.00    -0.290 OA
ENDROOT
BRANCH   1   3
ATOM      3  C   LIG    1       26.613 -28.534   9.306  0.00  0.00    +0.193 C 
BRANCH   3   4
ATOM      4  C   LIG    1       25.482 -28.572   8.299  0.00  0.00    +0.226 C 
ATOM      5  N   LIG    1       25.456 -27.686   7.253  0.00  0.00    -0.287 N 
ATOM      6  C   LIG    1       24.351 -27.620   6.268  0.00  0.00    +0.185 C 
ATOM      7  C   LIG    1       24.649 -26.334   5.467  0.00  0.00    +0.039 C 
ATOM      8  C   LIG    1       25.705 -25.543   6.268  0.00  0.00    +0.012 C 
ATOM      9  C   LIG    1       26.447 -26.677   6.975  0.00  0.00    +0.112 C 
ATOM     10  O   LIG    1       24.648 -29.481   8.289  0.00  0.00    -0.275 OA
BRANCH   8  11
ATOM     11  C   LIG    1       25.065 -24.486   7.218  0.00  0.00    -0.006 C 
ATOM     12  C   LIG    1       26.037 -23.412   7.763  0.00  0.00    +0.004 C 
ATOM     13  C   LIG    1       26.311 -22.244   6.819  0.00  0.00    +0.000 C 
ATOM     14  C   LIG    1       25.021 -21.591   6.345  0.00  0.00    +0.000 C 
ATOM     15  C   LIG    1       24.127 -22.617   5.668  0.00  0.00    +0.000 C 
ATOM     16  C   LIG    1       23.824 -23.793   6.598  0.00  0.00    +0.004 C 
ENDBRANCH   8  11
BRANCH   6  17
ATOM     17  C   LIG    1       24.220 -28.769   5.239  0.00  0.00    +0.326 C 
ATOM     18  O   LIG    1       25.011 -28.942   4.319  0.00  0.00    -0.249 OA
BRANCH  17  19
ATOM     19  O   LIG    1       23.160 -29.586   5.422  0.00  0.00    -0.479 OA
ATOM     20  H   LIG    1       22.605 -29.642   4.618  0.00  0.00    +0.295 HD
ENDBRANCH  17  19
ENDBRANCH   6  17
ENDBRANCH   3   4
ENDBRANCH   1   3
BRANCH   1  21
ATOM     21  O   LIG    1       25.941 -28.182  12.784  0.00  0.00    -0.286 OA
BRANCH  21  22
ATOM     22  C   LIG    1       25.131 -27.085  13.239  0.00  0.00    +0.320 C 
BRANCH  22  23
ATOM     23  C   LIG    1       26.041 -25.822  13.370  0.00  0.00    +0.052 C 
ATOM     24  C   LIG    1       27.272 -26.114  14.245  0.00  0.00    +0.013 C 
ATOM     25  C   LIG    1       25.350 -24.582  13.948  0.00  0.00    +0.013 C 
ENDBRANCH  22  23
BRANCH  22  26
ATOM     26  O   LIG    1       24.438 -27.463  14.443  0.00  0.00    -0.434 OA
BRANCH  26  27
ATOM     27  C   LIG    1       23.098 -27.743  14.272  0.00  0.00    +0.309 C 
ATOM     28  O   LIG    1       22.452 -28.540  14.910  0.00  0.00    -0.251 OA
BRANCH  27  30
ATOM     29  C   LIG    1       20.987 -26.881  13.136  0.00  0.00    +0.015 C 
ATOM     30  C   LIG    1       22.494 -26.806  13.229  0.00  0.00    +0.117 C 
ENDBRANCH  27  30
ENDBRANCH  26  27
ENDBRANCH  22  26
ENDBRANCH  21  22
ENDBRANCH   1  21
BRANCH   1  31
ATOM     31  C   LIG    1       25.919 -30.223  11.377  0.00  0.00    +0.098 C 
BRANCH  31  32
ATOM     32  C   LIG    1       24.667 -30.480  12.221  0.00  0.00    +0.010 C 
BRANCH  32  33
ATOM     33  C   LIG    1       23.496 -31.021  11.401  0.00  0.00    +0.005 C 
BRANCH  33  34
ATOM     34  C   LIG    1       22.417 -29.955  11.214  0.00  0.00    +0.035 C 
BRANCH  34  35
ATOM     35  C   LIG    1       21.029 -30.480  11.481  0.00  0.00    -0.047 A 
ATOM     36  C   LIG    1       20.563 -30.631  12.795  0.00  0.00    +0.003 A 
ATOM     37  C   LIG    1       19.262 -31.075  13.038  0.00  0.00    +0.000 A 
ATOM     38  C   LIG    1       18.424 -31.401  11.974  0.00  0.00    +0.000 A 
ATOM     39  C   LIG    1       18.890 -31.291  10.665  0.00  0.00    +0.000 A 
ATOM     40  C   LIG    1       20.180 -30.817  10.418  0.00  0.00    +0.003 A 
ENDBRANCH  34  35
ENDBRANCH  33  34
ENDBRANCH  32  33
ENDBRANCH  31  32
ENDBRANCH   1  31
TORSDOF 16
ENDMDL
MODEL 6
REMARK VINA RESULT:      -7.1      3.253      7.952
REMARK  Name = *****
REMARK                            x       y       z     vdW  Elec       q    Type
REMARK                         _______ _______ _______ _____ _____    ______ ____
ROOT
ATOM      1  P   LIG    1       26.086 -30.607   9.454  0.00  0.00    +0.216 P 
ATOM      2  O   LIG    1       27.578 -30.227   9.459  0.00  0.00    -0.290 OA
ENDROOT
BRANCH   1   3
ATOM      3  C   LIG    1       25.981 -30.019  11.184  0.00  0.00    +0.193 C 
BRANCH   3   4
ATOM      4  C   LIG    1       26.156 -28.552  11.516  0.00  0.00    +0.226 C 
ATOM      5  N   LIG    1       25.463 -27.989  12.557  0.00  0.00    -0.287 N 
ATOM      6  C   LIG    1       25.533 -26.549  12.899  0.00  0.00    +0.185 C 
ATOM      7  C   LIG    1       24.414 -26.367  13.949  0.00  0.00    +0.039 C 
ATOM      8  C   LIG    1       23.532 -27.631  13.886  0.00  0.00    +0.012 C 
ATOM      9  C   LIG    1       24.549 -28.678  13.434  0.00  0.00    +0.112 C 
ATOM     10  O   LIG    1       27.026 -27.861  10.979  0.00  0.00    -0.275 OA
BRANCH   8  11
ATOM     11  C   LIG    1       22.306 -27.456  12.937  0.00  0.00    -0.006 C 
ATOM     12  C   LIG    1       21.540 -28.758  12.600  0.00  0.00    +0.004 C 
ATOM     13  C   LIG    1       20.529 -29.209  13.651  0.00  0.00    +0.000 C 
ATOM     14  C   LIG    1       19.549 -28.098  13.999  0.00  0.00    +0.000 C 
ATOM     15  C   LIG    1       20.295 -26.865  14.480  0.00  0.00    +0.000 C 
ATOM     16  C   LIG    1       21.306 -26.383  13.438  0.00  0.00    +0.004 C 
ENDBRANCH   8  11
BRANCH   6  17
ATOM     17  C   LIG    1       26.837 -26.013  13.537  0.00  0.00    +0.326 C 
ATOM     18  O   LIG    1       27.058 -24.822  13.718  0.00  0.00    -0.249 OA
BRANCH  17  19
ATOM     19  O   LIG    1       27.734 -26.960  13.892  0.00  0.00    -0.479 OA
ATOM     20  H   LIG    1       27.379 -27.862  13.755  0.00  0.00    +0.295 HD
ENDBRANCH  17  19
ENDBRANCH   6  17
ENDBRANCH   3   4
ENDBRANCH   1   3
BRANCH   1  21
ATOM     21  O   LIG    1       26.184 -31.162   7.819  0.00  0.00    -0.286 OA
BRANCH  21  22
ATOM     22  C   LIG    1       25.464 -32.344   7.431  0.00  0.00    +0.320 C 
BRANCH  22  23
ATOM     23  C   LIG    1       26.247 -33.039   6.272  0.00  0.00    +0.052 C 
ATOM     24  C   LIG    1       27.765 -32.971   6.508  0.00  0.00    +0.013 C 
ATOM     25  C   LIG    1       25.973 -32.474   4.874  0.00  0.00    +0.013 C 
ENDBRANCH  22  23
BRANCH  22  26
ATOM     26  O   LIG    1       24.100 -31.999   7.123  0.00  0.00    -0.434 OA
BRANCH  26  27
ATOM     27  C   LIG    1       23.181 -32.994   7.386  0.00  0.00    +0.309 C 
ATOM     28  O   LIG    1       22.603 -33.662   6.563  0.00  0.00    -0.251 OA
BRANCH  27  30
ATOM     29  C   LIG    1       22.381 -32.116   9.640  0.00  0.00    +0.015 C 
ATOM     30  C   LIG    1       23.079 -33.229   8.891  0.00  0.00    +0.117 C 
ENDBRANCH  27  30
ENDBRANCH  26  27
ENDBRANCH  22  26
ENDBRANCH  21  22
ENDBRANCH   1  21
BRANCH   1  31
ATOM     31  C   LIG    1       25.157 -29.093   8.718  0.00  0.00    +0.098 C 
BRANCH  31  32
ATOM     32  C   LIG    1       25.902 -28.442   7.547  0.00  0.00    +0.010 C 
BRANCH  32  33
ATOM     33  C   LIG    1       25.051 -27.417   6.796  0.00  0.00    +0.005 C 
BRANCH  33  34
ATOM     34  C   LIG    1       25.878 -26.189   6.418  0.00  0.00    +0.035 C 
BRANCH  34  35
ATOM     35  C   LIG    1       25.146 -24.896   6.670  0.00  0.00    -0.047 A 
ATOM     36  C   LIG    1       23.766 -24.800   6.444  0.00  0.00    +0.003 A 
ATOM     37  C   LIG    1       23.083 -23.614   6.721  0.00  0.00    +0.000 A 
ATOM     38  C   LIG    1       23.777 -22.503   7.197  0.00  0.00    +0.000 A 
ATOM     39  C   LIG    1       25.155 -22.575   7.388  0.00  0.00    +0.000 A 
ATOM     40  C   LIG    1       25.835 -23.769   7.142  0.00  0.00    +0.003 A 
ENDBRANCH  34  35
ENDBRANCH  33  34
ENDBRANCH  32  33
ENDBRANCH  31  32
ENDBRANCH   1  31
TORSDOF 16
ENDMDL
MODEL 7
REMARK VINA RESULT:      -7.0      1.924      4.564
REMARK  Name = *****
REMARK                            x       y       z     vdW  Elec       q    Type
REMARK                         _______ _______ _______ _____ _____    ______ ____
ROOT
ATOM      1  P   LIG    1       25.197 -27.738   6.167  0.00  0.00    +0.216 P 
ATOM      2  O   LIG    1       23.800 -28.237   6.579  0.00  0.00    -0.290 OA
ENDROOT
BRANCH   1   3
ATOM      3  C   LIG    1       24.504 -26.049   6.045  0.00  0.00    +0.193 C 
BRANCH   3   4
ATOM      4  C   LIG    1       25.392 -24.833   6.206  0.00  0.00    +0.226 C 
ATOM      5  N   LIG    1       24.855 -23.624   6.567  0.00  0.00    -0.287 N 
ATOM      6  C   LIG    1       25.650 -22.379   6.679  0.00  0.00    +0.185 C 
ATOM      7  C   LIG    1       24.582 -21.277   6.856  0.00  0.00    +0.039 C 
ATOM      8  C   LIG    1       23.224 -21.904   6.477  0.00  0.00    +0.012 C 
ATOM      9  C   LIG    1       23.463 -23.368   6.846  0.00  0.00    +0.112 C 
ATOM     10  O   LIG    1       26.622 -24.916   6.175  0.00  0.00    -0.275 OA
BRANCH   8  11
ATOM     11  C   LIG    1       22.850 -21.657   4.983  0.00  0.00    -0.006 C 
ATOM     12  C   LIG    1       21.795 -20.551   4.741  0.00  0.00    +0.004 C 
ATOM     13  C   LIG    1       22.339 -19.125   4.731  0.00  0.00    +0.000 C 
ATOM     14  C   LIG    1       23.494 -18.972   3.752  0.00  0.00    +0.000 C 
ATOM     15  C   LIG    1       24.603 -19.956   4.085  0.00  0.00    +0.000 C 
ATOM     16  C   LIG    1       24.088 -21.397   4.087  0.00  0.00    +0.004 C 
ENDBRANCH   8  11
BRANCH   6  17
ATOM     17  C   LIG    1       26.633 -22.245   7.867  0.00  0.00    +0.326 C 
ATOM     18  O   LIG    1       26.273 -22.193   9.037  0.00  0.00    -0.249 OA
BRANCH  17  19
ATOM     19  O   LIG    1       27.939 -22.191   7.527  0.00  0.00    -0.479 OA
ATOM     20  H   LIG    1       28.486 -21.829   8.254  0.00  0.00    +0.295 HD
ENDBRANCH  17  19
ENDBRANCH   6  17
ENDBRANCH   3   4
ENDBRANCH   1   3
BRANCH   1  21
ATOM     21  O   LIG    1       25.853 -29.334   6.282  0.00  0.00    -0.286 OA
BRANCH  21  22
ATOM     22  C   LIG    1       25.054 -30.456   5.870  0.00  0.00    +0.320 C 
BRANCH  22  23
ATOM     23  C   LIG    1       25.113 -31.542   6.991  0.00  0.00    +0.052 C 
ATOM     24  C   LIG    1       24.008 -31.318   8.037  0.00  0.00    +0.013 C 
ATOM     25  C   LIG    1       26.446 -31.627   7.742  0.00  0.00    +0.013 C 
ENDBRANCH  22  23
BRANCH  22  26
ATOM     26  O   LIG    1       25.483 -30.902   4.569  0.00  0.00    -0.434 OA
BRANCH  26  27
ATOM     27  C   LIG    1       25.377 -32.262   4.362  0.00  0.00    +0.309 C 
ATOM     28  O   LIG    1       24.364 -32.914   4.436  0.00  0.00    -0.251 OA
BRANCH  27  30
ATOM     29  C   LIG    1       26.836 -32.969   2.397  0.00  0.00    +0.015 C 
ATOM     30  C   LIG    1       26.717 -32.828   3.898  0.00  0.00    +0.117 C 
ENDBRANCH  27  30
ENDBRANCH  26  27
ENDBRANCH  22  26
ENDBRANCH  21  22
ENDBRANCH   1  21
BRANCH   1  31
ATOM     31  C   LIG    1       26.143 -27.401   7.806  0.00  0.00    +0.098 C 
BRANCH  31  32
ATOM     32  C   LIG    1       25.816 -28.414   8.908  0.00  0.00    +0.010 C 
BRANCH  32  33
ATOM     33  C   LIG    1       26.976 -28.632   9.880  0.00  0.00    +0.005 C 
BRANCH  33  34
ATOM     34  C   LIG    1       26.480 -29.216  11.203  0.00  0.00    +0.035 C 
BRANCH  34  35
ATOM     35  C   LIG    1       25.826 -28.183  12.084  0.00  0.00    -0.047 A 
ATOM     36  C   LIG    1       26.529 -27.039  12.488  0.00  0.00    +0.003 A 
ATOM     37  C   LIG    1       25.905 -26.062  13.267  0.00  0.00    +0.000 A 
ATOM     38  C   LIG    1       24.584 -26.233  13.676  0.00  0.00    +0.000 A 
ATOM     39  C   LIG    1       23.888 -27.384  13.313  0.00  0.00    +0.000 A 
ATOM     40  C   LIG    1       24.499 -28.347  12.507  0.00  0.00    +0.003 A 
ENDBRANCH  34  35
ENDBRANCH  33  34
ENDBRANCH  32  33
ENDBRANCH  31  32
ENDBRANCH   1  31
TORSDOF 16
ENDMDL
MODEL 8
REMARK VINA RESULT:      -7.0      2.858      5.427
REMARK  Name = *****
REMARK                            x       y       z     vdW  Elec       q    Type
REMARK                         _______ _______ _______ _____ _____    ______ ____
ROOT
ATOM      1  P   LIG    1       26.338 -28.802  10.860  0.00  0.00    +0.216 P 
ATOM      2  O   LIG    1       27.820 -28.478  11.120  0.00  0.00    -0.290 OA
ENDROOT
BRANCH   1   3
ATOM      3  C   LIG    1       26.619 -28.439   9.089  0.00  0.00    +0.193 C 
BRANCH   3   4
ATOM      4  C   LIG    1       25.467 -28.438   8.105  0.00  0.00    +0.226 C 
ATOM      5  N   LIG    1       25.428 -27.523   7.086  0.00  0.00    -0.287 N 
ATOM      6  C   LIG    1       24.303 -27.418   6.127  0.00  0.00    +0.185 C 
ATOM      7  C   LIG    1       24.598 -26.112   5.356  0.00  0.00    +0.039 C 
ATOM      8  C   LIG    1       25.679 -25.355   6.156  0.00  0.00    +0.012 C 
ATOM      9  C   LIG    1       26.424 -26.515   6.815  0.00  0.00    +0.112 C 
ATOM     10  O   LIG    1       24.623 -29.337   8.088  0.00  0.00    -0.275 OA
BRANCH   8  11
ATOM     11  C   LIG    1       25.069 -24.319   7.149  0.00  0.00    -0.006 C 
ATOM     12  C   LIG    1       26.065 -23.272   7.704  0.00  0.00    +0.004 C 
ATOM     13  C   LIG    1       26.334 -22.080   6.790  0.00  0.00    +0.000 C 
ATOM     14  C   LIG    1       25.042 -21.399   6.361  0.00  0.00    +0.000 C 
ATOM     15  C   LIG    1       24.123 -22.395   5.672  0.00  0.00    +0.000 C 
ATOM     16  C   LIG    1       23.825 -23.594   6.574  0.00  0.00    +0.004 C 
ENDBRANCH   8  11
BRANCH   6  17
ATOM     17  C   LIG    1       24.139 -28.535   5.069  0.00  0.00    +0.326 C 
ATOM     18  O   LIG    1       24.852 -28.635   4.078  0.00  0.00    -0.249 OA
BRANCH  17  19
ATOM     19  O   LIG    1       23.141 -29.414   5.312  0.00  0.00    -0.479 OA
ATOM     20  H   LIG    1       23.084 -29.640   6.263  0.00  0.00    +0.295 HD
ENDBRANCH  17  19
ENDBRANCH   6  17
ENDBRANCH   3   4
ENDBRANCH   1   3
BRANCH   1  21
ATOM     21  O   LIG    1       26.071 -29.145  12.534  0.00  0.00    -0.286 OA
BRANCH  21  22
ATOM     22  C   LIG    1       25.032 -28.446  13.241  0.00  0.00    +0.320 C 
BRANCH  22  23
ATOM     23  C   LIG    1       23.653 -29.006  12.771  0.00  0.00    +0.052 C 
ATOM     24  C   LIG    1       22.551 -27.939  12.890  0.00  0.00    +0.013 C 
ATOM     25  C   LIG    1       23.169 -30.253  13.520  0.00  0.00    +0.013 C 
ENDBRANCH  22  23
BRANCH  22  26
ATOM     26  O   LIG    1       25.203 -27.026  13.069  0.00  0.00    -0.434 OA
BRANCH  26  27
ATOM     27  C   LIG    1       25.636 -26.358  14.195  0.00  0.00    +0.309 C 
ATOM     28  O   LIG    1       26.591 -26.652  14.872  0.00  0.00    -0.251 OA
BRANCH  27  30
ATOM     29  C   LIG    1       25.624 -23.863  14.710  0.00  0.00    +0.015 C 
ATOM     30  C   LIG    1       24.803 -25.096  14.409  0.00  0.00    +0.117 C 
ENDBRANCH  27  30
ENDBRANCH  26  27
ENDBRANCH  22  26
ENDBRANCH  21  22
ENDBRANCH   1  21
BRANCH   1  31
ATOM     31  C   LIG    1       26.248 -30.707  10.618  0.00  0.00    +0.098 C 
BRANCH  31  32
ATOM     32  C   LIG    1       27.161 -31.214   9.497  0.00  0.00    +0.010 C 
BRANCH  32  33
ATOM     33  C   LIG    1       26.478 -32.238   8.589  0.00  0.00    +0.005 C 
BRANCH  33  34
ATOM     34  C   LIG    1       27.500 -32.963   7.714  0.00  0.00    +0.035 C 
BRANCH  34  35
ATOM     35  C   LIG    1       27.164 -32.892   6.247  0.00  0.00    -0.047 A 
ATOM     36  C   LIG    1       27.834 -33.702   5.320  0.00  0.00    +0.003 A 
ATOM     37  C   LIG    1       27.489 -33.665   3.967  0.00  0.00    +0.000 A 
ATOM     38  C   LIG    1       26.493 -32.798   3.523  0.00  0.00    +0.000 A 
ATOM     39  C   LIG    1       25.847 -31.961   4.430  0.00  0.00    +0.000 A 
ATOM     40  C   LIG    1       26.167 -32.019   5.787  0.00  0.00    +0.003 A 
ENDBRANCH  34  35
ENDBRANCH  33  34
ENDBRANCH  32  33
ENDBRANCH  31  32
ENDBRANCH   1  31
TORSDOF 16
ENDMDL
MODEL 9
REMARK VINA RESULT:      -7.0      2.475      8.950
REMARK  Name = *****
REMARK                            x       y       z     vdW  Elec       q    Type
REMARK                         _______ _______ _______ _____ _____    ______ ____
ROOT
ATOM      1  P   LIG    1       25.387 -26.364   6.234  0.00  0.00    +0.216 P 
ATOM      2  O   LIG    1       26.075 -26.333   4.858  0.00  0.00    -0.290 OA
ENDROOT
BRANCH   1   3
ATOM      3  C   LIG    1       24.502 -27.875   5.704  0.00  0.00    +0.193 C 
BRANCH   3   4
ATOM      4  C   LIG    1       25.247 -29.178   5.501  0.00  0.00    +0.226 C 
ATOM      5  N   LIG    1       24.748 -30.348   6.012  0.00  0.00    -0.287 N 
ATOM      6  C   LIG    1       25.452 -31.648   5.911  0.00  0.00    +0.185 C 
ATOM      7  C   LIG    1       24.636 -32.581   6.833  0.00  0.00    +0.039 C 
ATOM      8  C   LIG    1       23.725 -31.677   7.690  0.00  0.00    +0.012 C 
ATOM      9  C   LIG    1       23.516 -30.492   6.748  0.00  0.00    +0.112 C 
ATOM     10  O   LIG    1       26.222 -29.261   4.751  0.00  0.00    -0.275 OA
BRANCH   8  11
ATOM     11  C   LIG    1       24.367 -31.315   9.065  0.00  0.00    -0.006 C 
ATOM     12  C   LIG    1       23.508 -30.405   9.976  0.00  0.00    +0.004 C 
ATOM     13  C   LIG    1       22.432 -31.124  10.785  0.00  0.00    +0.000 C 
ATOM     14  C   LIG    1       23.014 -32.275  11.593  0.00  0.00    +0.000 C 
ATOM     15  C   LIG    1       23.727 -33.256  10.677  0.00  0.00    +0.000 C 
ATOM     16  C   LIG    1       24.822 -32.563   9.864  0.00  0.00    +0.004 C 
ENDBRANCH   8  11
BRANCH   6  17
ATOM     17  C   LIG    1       25.520 -32.336   4.526  0.00  0.00    +0.326 C 
ATOM     18  O   LIG    1       26.557 -32.463   3.887  0.00  0.00    -0.249 OA
BRANCH  17  19
ATOM     19  O   LIG    1       24.340 -32.799   4.057  0.00  0.00    -0.479 OA
ATOM     20  H   LIG    1       23.589 -32.251   4.366  0.00  0.00    +0.295 HD
ENDBRANCH  17  19
ENDBRANCH   6  17
ENDBRANCH   3   4
ENDBRANCH   1   3
BRANCH   1  21
ATOM     21  O   LIG    1       26.224 -24.935   6.737  0.00  0.00    -0.286 OA
BRANCH  21  22
ATOM     22  C   LIG    1       25.469 -23.776   7.126  0.00  0.00    +0.320 C 
BRANCH  22  23
ATOM     23  C   LIG    1       24.261 -23.623   6.147  0.00  0.00    +0.052 C 
ATOM     24  C   LIG    1       24.525 -22.521   5.107  0.00  0.00    +0.013 C 
ATOM     25  C   LIG    1       22.919 -23.311   6.817  0.00  0.00    +0.013 C 
ENDBRANCH  22  23
BRANCH  22  26
ATOM     26  O   LIG    1       26.342 -22.633   7.197  0.00  0.00    -0.434 OA
BRANCH  26  27
ATOM     27  C   LIG    1       26.086 -21.776   8.248  0.00  0.00    +0.309 C 
ATOM     28  O   LIG    1       25.487 -22.053   9.258  0.00  0.00    -0.251 OA
BRANCH  27  30
ATOM     29  C   LIG    1       27.425 -20.309   6.652  0.00  0.00    +0.015 C 
ATOM     30  C   LIG    1       26.782 -20.437   8.015  0.00  0.00    +0.117 C 
ENDBRANCH  27  30
ENDBRANCH  26  27
ENDBRANCH  22  26
ENDBRANCH  21  22
ENDBRANCH   1  21
BRANCH   1  31
ATOM     31  C   LIG    1       26.594 -27.293   7.408  0.00  0.00    +0.098 C 
BRANCH  31  32
ATOM     32  C   LIG    1       25.875 -28.091   8.501  0.00  0.00    +0.010 C 
BRANCH  32  33
ATOM     33  C   LIG    1       26.835 -28.694   9.527  0.00  0.00    +0.005 C 
BRANCH  33  34
ATOM     34  C   LIG    1       26.752 -27.948  10.859  0.00  0.00    +0.035 C 
BRANCH  34  35
ATOM     35  C   LIG    1       26.085 -28.761  11.939  0.00  0.00    -0.047 A 
ATOM     36  C   LIG    1       25.004 -28.239  12.662  0.00  0.00    +0.003 A 
ATOM     37  C   LIG    1       24.360 -29.011  13.631  0.00  0.00    +0.000 A 
ATOM     38  C   LIG    1       24.808 -30.301  13.908  0.00  0.00    +0.000 A 
ATOM     39  C   LIG    1       25.907 -30.816  13.223  0.00  0.00    +0.000 A 
ATOM     40  C   LIG    1       26.532 -30.058  12.231  0.00  0.00    +0.003 A 
ENDBRANCH  34  35
ENDBRANCH  33  34
ENDBRANCH  32  33
ENDBRANCH  31  32
ENDBRANCH   1  31
TORSDOF 16
ENDMDL
