MODEL 1
REMARK VINA RESULT:       3.8      0.000      0.000
REMARK  Name = *****
REMARK                            x       y       z     vdW  Elec       q    Type
REMARK                         _______ _______ _______ _____ _____    ______ ____
ROOT
ATOM      1  C   LIG    1       23.597 -19.336   3.913  0.00  0.00    +0.107 A 
ATOM      2  C   LIG    1       24.808 -18.632   3.814  0.00  0.00    +0.053 A 
ATOM      3  C   LIG    1       24.860 -17.219   3.832  0.00  0.00    +0.050 A 
ATOM      4  N   LIG    1       26.088 -16.493   3.740  0.00  0.00    -0.298 N 
ATOM      5  C   LIG    1       26.219 -15.070   3.827  0.00  0.00    +0.048 A 
ATOM      6  C   LIG    1       25.096 -14.223   3.915  0.00  0.00    +0.034 A 
ATOM      7  S   LIG    1       23.419 -14.798   3.951  0.00  0.00    -0.086 S 
ATOM      8  C   LIG    1       25.238 -12.821   3.984  0.00  0.00    +0.017 A 
ATOM      9  C   LIG    1       26.491 -12.223   3.971  0.00  0.00    +0.001 A 
ATOM     10  C   LIG    1       27.613 -13.026   3.894  0.00  0.00    +0.002 A 
ATOM     11  C   LIG    1       27.476 -14.419   3.829  0.00  0.00    +0.024 A 
ATOM     12  C   LIG    1       23.614 -16.561   3.952  0.00  0.00    +0.034 A 
ATOM     13  C   LIG    1       22.405 -17.281   4.071  0.00  0.00    +0.019 A 
ATOM     14  C   LIG    1       22.391 -18.668   4.054  0.00  0.00    +0.030 A 
ENDROOT
BRANCH   1  15
ATOM     15  S   LIG    1       23.591 -21.112   3.899  0.00  0.00    +0.060 S 
ATOM     16  O   LIG    1       22.929 -21.560   2.694  0.00  0.00    -0.153 OA
ATOM     17  O   LIG    1       24.938 -21.535   4.221  0.00  0.00    -0.153 OA
BRANCH  15  19
ATOM     18  C   LIG    1       22.907 -20.814   6.490  0.00  0.00    +0.131 C 
ATOM     19  N   LIG    1       22.574 -21.496   5.221  0.00  0.00    -0.183 NA
ATOM     20  C   LIG    1       21.133 -21.411   4.896  0.00  0.00    +0.131 C 
ENDBRANCH  15  19
ENDBRANCH   1  15
BRANCH   4  21
ATOM     21  C   LIG    1       27.344 -17.275   3.640  0.00  0.00    +0.112 C 
BRANCH  21  22
ATOM     22  C   LIG    1       28.267 -17.016   4.844  0.00  0.00    +0.035 C 
BRANCH  22  23
ATOM     23  C   LIG    1       29.420 -18.029   4.863  0.00  0.00    +0.086 C 
BRANCH  23  24
ATOM     24  N   LIG    1       29.026 -19.433   4.629  0.00  0.00    -0.300 NA
ATOM     25  C   LIG    1       29.475 -20.360   5.692  0.00  0.00    +0.100 C 
ATOM     26  C   LIG    1       28.792 -20.135   7.062  0.00  0.00    +0.099 C 
ATOM     27  N   LIG    1       27.314 -20.141   7.031  0.00  0.00    -0.303 NA
ATOM     28  C   LIG    1       26.787 -21.503   6.993  0.00  0.00    +0.105 C 
ATOM     29  C   LIG    1       26.810 -19.337   5.899  0.00  0.00    +0.099 C 
ATOM     30  C   LIG    1       27.547 -19.545   4.550  0.00  0.00    +0.100 C 
ENDBRANCH  23  24
ENDBRANCH  22  23
ENDBRANCH  21  22
ENDBRANCH   4  21
TORSDOF 6
ENDMDL
MODEL 2
REMARK VINA RESULT:       6.7      1.366      1.965
REMARK  Name = *****
REMARK                            x       y       z     vdW  Elec       q    Type
REMARK                         _______ _______ _______ _____ _____    ______ ____
ROOT
ATOM      1  C   LIG    1       22.552 -19.169   4.605  0.00  0.00    +0.107 A 
ATOM      2  C   LIG    1       23.803 -18.673   4.200  0.00  0.00    +0.053 A 
ATOM      3  C   LIG    1       24.060 -17.287   4.087  0.00  0.00    +0.050 A 
ATOM      4  N   LIG    1       25.332 -16.771   3.685  0.00  0.00    -0.298 N 
ATOM      5  C   LIG    1       25.683 -15.385   3.623  0.00  0.00    +0.048 A 
ATOM      6  C   LIG    1       24.739 -14.366   3.868  0.00  0.00    +0.034 A 
ATOM      7  S   LIG    1       23.045 -14.664   4.295  0.00  0.00    -0.086 S 
ATOM      8  C   LIG    1       25.094 -13.003   3.788  0.00  0.00    +0.017 A 
ATOM      9  C   LIG    1       26.387 -12.613   3.467  0.00  0.00    +0.001 A 
ATOM     10  C   LIG    1       27.338 -13.588   3.229  0.00  0.00    +0.002 A 
ATOM     11  C   LIG    1       26.991 -14.943   3.311  0.00  0.00    +0.024 A 
ATOM     12  C   LIG    1       22.979 -16.434   4.405  0.00  0.00    +0.034 A 
ATOM     13  C   LIG    1       21.733 -16.945   4.831  0.00  0.00    +0.019 A 
ATOM     14  C   LIG    1       21.515 -18.311   4.934  0.00  0.00    +0.030 A 
ENDROOT
BRANCH   1  15
ATOM     15  S   LIG    1       22.287 -20.919   4.742  0.00  0.00    +0.060 S 
ATOM     16  O   LIG    1       22.391 -21.293   6.135  0.00  0.00    -0.153 OA
ATOM     17  O   LIG    1       21.101 -21.223   3.966  0.00  0.00    -0.153 OA
BRANCH  15  19
ATOM     18  C   LIG    1       23.866 -21.056   2.560  0.00  0.00    +0.131 C 
ATOM     19  N   LIG    1       23.644 -21.572   3.928  0.00  0.00    -0.183 NA
ATOM     20  C   LIG    1       24.879 -21.555   4.744  0.00  0.00    +0.131 C 
ENDBRANCH  15  19
ENDBRANCH   1  15
BRANCH   4  21
ATOM     21  C   LIG    1       26.410 -17.747   3.395  0.00  0.00    +0.112 C 
BRANCH  21  22
ATOM     22  C   LIG    1       27.785 -17.061   3.319  0.00  0.00    +0.035 C 
BRANCH  22  23
ATOM     23  C   LIG    1       28.741 -17.661   4.360  0.00  0.00    +0.086 C 
BRANCH  23  24
ATOM     24  N   LIG    1       28.124 -17.994   5.660  0.00  0.00    -0.300 NA
ATOM     25  C   LIG    1       26.940 -18.875   5.547  0.00  0.00    +0.100 C 
ATOM     26  C   LIG    1       27.256 -20.305   5.049  0.00  0.00    +0.099 C 
ATOM     27  N   LIG    1       28.297 -21.018   5.821  0.00  0.00    -0.303 NA
ATOM     28  C   LIG    1       27.756 -21.570   7.060  0.00  0.00    +0.105 C 
ATOM     29  C   LIG    1       29.452 -20.137   6.083  0.00  0.00    +0.099 C 
ATOM     30  C   LIG    1       29.104 -18.692   6.531  0.00  0.00    +0.100 C 
ENDBRANCH  23  24
ENDBRANCH  22  23
ENDBRANCH  21  22
ENDBRANCH   4  21
TORSDOF 6
ENDMDL
