MODEL 1
REMARK VINA RESULT:      19.4      0.000      0.000
REMARK  Name = *****
REMARK                            x       y       z     vdW  Elec       q    Type
REMARK                         _______ _______ _______ _____ _____    ______ ____
ROOT
ATOM      1  C   LIG    1       22.843 -18.241   4.648  0.00  0.00    +0.165 C 
ATOM      2  C   LIG    1       22.599 -16.842   3.921  0.00  0.00    +0.012 C 
ATOM      3  C   LIG    1       23.872 -16.568   3.050  0.00  0.00    +0.007 C 
ATOM      4  C   LIG    1       24.953 -15.572   3.569  0.00  0.00    +0.037 C 
ATOM      5  C   LIG    1       24.381 -14.310   4.249  0.00  0.00    +0.153 C 
ATOM      6  C   LIG    1       23.402 -14.775   5.361  0.00  0.00    +0.154 C 
ATOM      7  F   LIG    1       23.604 -13.683   3.291  0.00  0.00    -0.238 F 
ATOM      8  C   LIG    1       25.508 -13.249   4.676  0.00  0.00    +0.047 C 
ATOM      9  C   LIG    1       26.582 -13.048   3.564  0.00  0.00    -0.020 C 
ATOM     10  C   LIG    1       27.608 -12.192   3.793  0.00  0.00    +0.054 C 
ATOM     11  C   LIG    1       28.339 -12.529   5.072  0.00  0.00    +0.179 C 
ATOM     12  C   LIG    1       27.585 -13.282   6.118  0.00  0.00    +0.047 C 
ATOM     13  O   LIG    1       29.474 -12.115   5.275  0.00  0.00    -0.288 OA
ATOM     14  C   LIG    1       26.984 -14.285   2.795  0.00  0.00    +0.194 C 
ATOM     15  F   LIG    1       27.799 -15.071   3.557  0.00  0.00    -0.241 F 
ATOM     16  C   LIG    1       24.834 -11.872   4.950  0.00  0.00    +0.023 C 
ATOM     17  C   LIG    1       26.286 -13.601   5.949  0.00  0.00    -0.009 C 
ATOM     18  C   LIG    1       25.816 -15.139   2.361  0.00  0.00    +0.048 C 
ATOM     19  C   LIG    1       24.482 -17.960   2.858  0.00  0.00    +0.039 C 
ATOM     20  C   LIG    1       21.390 -17.017   2.953  0.00  0.00    +0.015 C 
ATOM     21  C   LIG    1       22.249 -15.622   4.803  0.00  0.00    +0.044 C 
ATOM     22  C   LIG    1       24.234 -18.677   4.183  0.00  0.00    +0.162 C 
ATOM     23  O   LIG    1       24.179 -20.083   3.981  0.00  0.00    -0.343 OA
ATOM     24  C   LIG    1       22.802 -20.413   3.819  0.00  0.00    +0.166 C 
ATOM     25  C   LIG    1       22.524 -20.832   2.378  0.00  0.00    +0.073 C 
ATOM     26  C   LIG    1       22.459 -21.572   4.745  0.00  0.00    +0.073 C 
ATOM     27  O   LIG    1       21.991 -19.278   4.138  0.00  0.00    -0.332 OA
ENDROOT
BRANCH   1  28
ATOM     28  C   LIG    1       22.760 -18.204   6.184  0.00  0.00    +0.205 C 
ATOM     29  O   LIG    1       22.012 -17.390   6.743  0.00  0.00    -0.291 OA
BRANCH  28  30
ATOM     30  C   LIG    1       23.550 -19.210   7.062  0.00  0.00    +0.309 C 
BRANCH  30  31
ATOM     31  O   LIG    1       23.899 -20.537   6.679  0.00  0.00    -0.457 OA
BRANCH  31  33
ATOM     32  C   LIG    1       26.128 -19.821   7.057  0.00  0.00    +0.136 C 
ATOM     33  C   LIG    1       25.196 -20.727   6.311  0.00  0.00    +0.304 C 
ATOM     34  O   LIG    1       25.590 -21.518   5.450  0.00  0.00    -0.251 OA
ENDBRANCH  31  33
ENDBRANCH  30  31
ENDBRANCH  28  30
ENDBRANCH   1  28
BRANCH   6  35
ATOM     35  O   LIG    1       22.789 -13.677   6.040  0.00  0.00    -0.389 OA
ATOM     36  H   LIG    1       23.501 -13.098   6.373  0.00  0.00    +0.210 HD
ENDBRANCH   6  35
TORSDOF 5
ENDMDL
MODEL 2
REMARK VINA RESULT:      21.6      1.391      2.807
REMARK  Name = *****
REMARK                            x       y       z     vdW  Elec       q    Type
REMARK                         _______ _______ _______ _____ _____    ______ ____
ROOT
ATOM      1  C   LIG    1       23.296 -18.402   4.493  0.00  0.00    +0.165 C 
ATOM      2  C   LIG    1       23.418 -17.313   3.334  0.00  0.00    +0.012 C 
ATOM      3  C   LIG    1       24.943 -17.200   2.991  0.00  0.00    +0.007 C 
ATOM      4  C   LIG    1       25.766 -16.002   3.554  0.00  0.00    +0.037 C 
ATOM      5  C   LIG    1       25.021 -14.651   3.529  0.00  0.00    +0.153 C 
ATOM      6  C   LIG    1       23.662 -14.847   4.254  0.00  0.00    +0.154 C 
ATOM      7  F   LIG    1       24.716 -14.411   2.201  0.00  0.00    -0.238 F 
ATOM      8  C   LIG    1       25.926 -13.414   4.011  0.00  0.00    +0.047 C 
ATOM      9  C   LIG    1       27.360 -13.461   3.404  0.00  0.00    -0.020 C 
ATOM     10  C   LIG    1       28.244 -12.488   3.738  0.00  0.00    +0.054 C 
ATOM     11  C   LIG    1       28.390 -12.360   5.237  0.00  0.00    +0.179 C 
ATOM     12  C   LIG    1       27.252 -12.829   6.083  0.00  0.00    +0.047 C 
ATOM     13  O   LIG    1       29.365 -11.805   5.727  0.00  0.00    -0.288 OA
ATOM     14  C   LIG    1       27.987 -14.830   3.278  0.00  0.00    +0.194 C 
ATOM     15  F   LIG    1       28.398 -15.276   4.501  0.00  0.00    -0.241 F 
ATOM     16  C   LIG    1       25.254 -12.084   3.558  0.00  0.00    +0.023 C 
ATOM     17  C   LIG    1       26.117 -13.298   5.527  0.00  0.00    -0.009 C 
ATOM     18  C   LIG    1       27.055 -15.876   2.711  0.00  0.00    +0.048 C 
ATOM     19  C   LIG    1       25.522 -18.526   3.495  0.00  0.00    +0.039 C 
ATOM     20  C   LIG    1       22.689 -17.877   2.077  0.00  0.00    +0.015 C 
ATOM     21  C   LIG    1       22.794 -15.921   3.583  0.00  0.00    +0.044 C 
ATOM     22  C   LIG    1       24.739 -18.832   4.768  0.00  0.00    +0.162 C 
ATOM     23  O   LIG    1       24.713 -20.233   5.008  0.00  0.00    -0.343 OA
ATOM     24  C   LIG    1       23.503 -20.717   4.431  0.00  0.00    +0.166 C 
ATOM     25  C   LIG    1       23.806 -21.571   3.204  0.00  0.00    +0.073 C 
ATOM     26  C   LIG    1       22.773 -21.571   5.459  0.00  0.00    +0.073 C 
ATOM     27  O   LIG    1       22.678 -19.616   4.039  0.00  0.00    -0.332 OA
ENDROOT
BRANCH   1  28
ATOM     28  C   LIG    1       22.609 -17.915   5.780  0.00  0.00    +0.205 C 
ATOM     29  O   LIG    1       22.693 -18.589   6.817  0.00  0.00    -0.291 OA
BRANCH  28  30
ATOM     30  C   LIG    1       21.858 -16.559   5.834  0.00  0.00    +0.309 C 
BRANCH  30  31
ATOM     31  O   LIG    1       22.075 -15.537   6.803  0.00  0.00    -0.457 OA
BRANCH  31  33
ATOM     32  C   LIG    1       21.558 -13.237   7.059  0.00  0.00    +0.136 C 
ATOM     33  C   LIG    1       21.058 -14.646   6.964  0.00  0.00    +0.304 C 
ATOM     34  O   LIG    1       19.860 -14.932   7.054  0.00  0.00    -0.251 OA
ENDBRANCH  31  33
ENDBRANCH  30  31
ENDBRANCH  28  30
ENDBRANCH   1  28
BRANCH   6  35
ATOM     35  O   LIG    1       22.873 -13.655   4.263  0.00  0.00    -0.389 OA
ATOM     36  H   LIG    1       22.104 -13.803   3.681  0.00  0.00    +0.210 HD
ENDBRANCH   6  35
TORSDOF 5
ENDMDL
