MODEL 1
REMARK VINA RESULT:       0.4      0.000      0.000
REMARK  Name = *****
REMARK                            x       y       z     vdW  Elec       q    Type
REMARK                         _______ _______ _______ _____ _____    ______ ____
ROOT
ATOM      1  C   LIG    1       26.007 -20.426   5.245  0.00  0.00    +0.162 A 
ATOM      2  C   LIG    1       24.987 -20.122   4.334  0.00  0.00    +0.162 A 
ATOM      3  C   LIG    1       25.019 -18.889   3.675  0.00  0.00    +0.054 A 
ATOM      4  C   LIG    1       26.034 -17.935   3.899  0.00  0.00    -0.023 A 
ATOM      5  C   LIG    1       26.019 -16.618   3.116  0.00  0.00    +0.094 C 
ATOM      6  N   LIG    1       27.119 -15.670   3.434  0.00  0.00    -0.294 NA
ATOM      7  C   LIG    1       28.376 -16.398   3.692  0.00  0.00    +0.089 C 
ATOM      8  C   LIG    1       28.293 -17.381   4.872  0.00  0.00    +0.051 C 
ATOM      9  C   LIG    1       26.830 -14.722   4.518  0.00  0.00    +0.096 C 
ATOM     10  C   LIG    1       25.568 -13.899   4.283  0.00  0.00    +0.070 C 
ATOM     11  C   LIG    1       24.458 -14.913   4.155  0.00  0.00    +0.139 C 
ATOM     12  O   LIG    1       23.430 -14.833   4.820  0.00  0.00    -0.297 OA
ATOM     13  C   LIG    1       24.628 -15.951   3.077  0.00  0.00    +0.098 C 
ATOM     14  C   LIG    1       27.096 -18.287   4.743  0.00  0.00    -0.038 A 
ATOM     15  C   LIG    1       27.046 -19.502   5.447  0.00  0.00    +0.053 A 
ENDROOT
BRANCH   1  17
ATOM     16  C   LIG    1       27.086 -21.553   7.052  0.00  0.00    +0.277 C 
ATOM     17  O   LIG    1       26.134 -21.572   5.993  0.00  0.00    -0.491 OA
ENDBRANCH   1  17
BRANCH   2  18
ATOM     18  O   LIG    1       23.981 -21.030   4.156  0.00  0.00    -0.491 OA
ATOM     19  C   LIG    1       22.854 -20.977   5.017  0.00  0.00    +0.277 C 
ENDBRANCH   2  18
BRANCH  10  20
ATOM     20  C   LIG    1       25.550 -12.986   3.043  0.00  0.00    +0.015 C 
BRANCH  20  21
ATOM     21  C   LIG    1       24.732 -11.689   3.142  0.00  0.00    -0.016 C 
ATOM     22  C   LIG    1       23.779 -11.678   4.334  0.00  0.00    +0.007 C 
ATOM     23  C   LIG    1       23.935 -11.503   1.845  0.00  0.00    +0.007 C 
ENDBRANCH  20  21
ENDBRANCH  10  20
TORSDOF 4
ENDMDL
MODEL 2
REMARK VINA RESULT:       1.2      2.133      6.959
REMARK  Name = *****
REMARK                            x       y       z     vdW  Elec       q    Type
REMARK                         _______ _______ _______ _____ _____    ______ ____
ROOT
ATOM      1  C   LIG    1       25.108 -13.526   4.197  0.00  0.00    +0.162 A 
ATOM      2  C   LIG    1       26.044 -14.188   3.392  0.00  0.00    +0.162 A 
ATOM      3  C   LIG    1       25.878 -15.556   3.154  0.00  0.00    +0.054 A 
ATOM      4  C   LIG    1       24.810 -16.297   3.701  0.00  0.00    -0.023 A 
ATOM      5  C   LIG    1       24.677 -17.788   3.371  0.00  0.00    +0.094 C 
ATOM      6  N   LIG    1       23.530 -18.487   4.008  0.00  0.00    -0.294 NA
ATOM      7  C   LIG    1       22.350 -17.604   4.067  0.00  0.00    +0.089 C 
ATOM      8  C   LIG    1       22.579 -16.315   4.876  0.00  0.00    +0.051 C 
ATOM      9  C   LIG    1       23.813 -19.075   5.324  0.00  0.00    +0.096 C 
ATOM     10  C   LIG    1       24.992 -20.041   5.315  0.00  0.00    +0.070 C 
ATOM     11  C   LIG    1       26.165 -19.222   4.837  0.00  0.00    +0.139 C 
ATOM     12  O   LIG    1       27.223 -19.185   5.457  0.00  0.00    -0.297 OA
ATOM     13  C   LIG    1       26.009 -18.558   3.494  0.00  0.00    +0.098 C 
ATOM     14  C   LIG    1       23.831 -15.607   4.429  0.00  0.00    -0.038 A 
ATOM     15  C   LIG    1       24.015 -14.242   4.714  0.00  0.00    +0.053 A 
ENDROOT
BRANCH   1  17
ATOM     16  C   LIG    1       23.849 -11.571   4.742  0.00  0.00    +0.277 C 
ATOM     17  O   LIG    1       25.114 -12.198   4.551  0.00  0.00    -0.491 OA
ENDBRANCH   1  17
BRANCH   2  18
ATOM     18  O   LIG    1       27.103 -13.475   2.903  0.00  0.00    -0.491 OA
ATOM     19  C   LIG    1       28.278 -13.373   3.692  0.00  0.00    +0.277 C 
ENDBRANCH   2  18
BRANCH  10  20
ATOM     20  C   LIG    1       24.865 -21.290   4.424  0.00  0.00    +0.015 C 
BRANCH  20  21
ATOM     21  C   LIG    1       23.485 -21.571   3.808  0.00  0.00    -0.016 C 
ATOM     22  C   LIG    1       23.252 -20.817   2.502  0.00  0.00    +0.007 C 
ATOM     23  C   LIG    1       22.400 -21.188   4.823  0.00  0.00    +0.007 C 
ENDBRANCH  20  21
ENDBRANCH  10  20
TORSDOF 4
ENDMDL
MODEL 3
REMARK VINA RESULT:       2.0      1.666      2.306
REMARK  Name = *****
REMARK                            x       y       z     vdW  Elec       q    Type
REMARK                         _______ _______ _______ _____ _____    ______ ____
ROOT
ATOM      1  C   LIG    1       24.485 -20.592   5.450  0.00  0.00    +0.162 A 
ATOM      2  C   LIG    1       23.936 -19.958   4.328  0.00  0.00    +0.162 A 
ATOM      3  C   LIG    1       24.682 -18.966   3.684  0.00  0.00    +0.054 A 
ATOM      4  C   LIG    1       25.962 -18.572   4.125  0.00  0.00    -0.023 A 
ATOM      5  C   LIG    1       26.732 -17.499   3.350  0.00  0.00    +0.094 C 
ATOM      6  N   LIG    1       28.065 -17.139   3.902  0.00  0.00    -0.294 NA
ATOM      7  C   LIG    1       28.743 -18.331   4.444  0.00  0.00    +0.089 C 
ATOM      8  C   LIG    1       27.971 -19.020   5.583  0.00  0.00    +0.051 C 
ATOM      9  C   LIG    1       28.057 -16.047   4.884  0.00  0.00    +0.096 C 
ATOM     10  C   LIG    1       27.415 -14.766   4.361  0.00  0.00    +0.070 C 
ATOM     11  C   LIG    1       26.006 -15.157   3.992  0.00  0.00    +0.139 C 
ATOM     12  O   LIG    1       25.033 -14.534   4.405  0.00  0.00    -0.297 OA
ATOM     13  C   LIG    1       25.867 -16.272   2.989  0.00  0.00    +0.098 C 
ATOM     14  C   LIG    1       26.538 -19.276   5.192  0.00  0.00    -0.038 A 
ATOM     15  C   LIG    1       25.777 -20.240   5.876  0.00  0.00    +0.053 A 
ENDROOT
BRANCH   1  17
ATOM     16  C   LIG    1       22.821 -21.178   7.059  0.00  0.00    +0.277 C 
ATOM     17  O   LIG    1       23.900 -21.572   6.216  0.00  0.00    -0.491 OA
ENDBRANCH   1  17
BRANCH   2  18
ATOM     18  O   LIG    1       22.675 -20.310   3.932  0.00  0.00    -0.491 OA
ATOM     19  C   LIG    1       21.631 -19.356   4.053  0.00  0.00    +0.277 C 
ENDBRANCH   2  18
BRANCH  10  20
ATOM     20  C   LIG    1       28.079 -14.099   3.143  0.00  0.00    +0.015 C 
BRANCH  20  21
ATOM     21  C   LIG    1       28.252 -12.573   3.190  0.00  0.00    -0.016 C 
ATOM     22  C   LIG    1       28.847 -12.083   4.507  0.00  0.00    +0.007 C 
ATOM     23  C   LIG    1       26.887 -11.910   2.965  0.00  0.00    +0.007 C 
ENDBRANCH  20  21
ENDBRANCH  10  20
TORSDOF 4
ENDMDL
MODEL 4
REMARK VINA RESULT:       2.1      2.568      6.876
REMARK  Name = *****
REMARK                            x       y       z     vdW  Elec       q    Type
REMARK                         _______ _______ _______ _____ _____    ______ ____
ROOT
ATOM      1  C   LIG    1       25.192 -13.620   2.980  0.00  0.00    +0.162 A 
ATOM      2  C   LIG    1       24.127 -13.581   3.888  0.00  0.00    +0.162 A 
ATOM      3  C   LIG    1       23.686 -14.778   4.462  0.00  0.00    +0.054 A 
ATOM      4  C   LIG    1       24.267 -16.026   4.153  0.00  0.00    -0.023 A 
ATOM      5  C   LIG    1       23.751 -17.292   4.844  0.00  0.00    +0.094 C 
ATOM      6  N   LIG    1       24.414 -18.560   4.441  0.00  0.00    -0.294 NA
ATOM      7  C   LIG    1       25.855 -18.343   4.209  0.00  0.00    +0.089 C 
ATOM      8  C   LIG    1       26.158 -17.320   3.100  0.00  0.00    +0.051 C 
ATOM      9  C   LIG    1       23.796 -19.250   3.301  0.00  0.00    +0.096 C 
ATOM     10  C   LIG    1       22.315 -19.550   3.504  0.00  0.00    +0.070 C 
ATOM     11  C   LIG    1       21.670 -18.205   3.723  0.00  0.00    +0.139 C 
ATOM     12  O   LIG    1       20.693 -17.844   3.074  0.00  0.00    -0.297 OA
ATOM     13  C   LIG    1       22.211 -17.386   4.866  0.00  0.00    +0.098 C 
ATOM     14  C   LIG    1       25.390 -16.042   3.314  0.00  0.00    -0.038 A 
ATOM     15  C   LIG    1       25.808 -14.851   2.695  0.00  0.00    +0.053 A 
ENDROOT
BRANCH   1  17
ATOM     16  C   LIG    1       24.854 -11.566   1.812  0.00  0.00    +0.277 C 
ATOM     17  O   LIG    1       25.748 -12.557   2.310  0.00  0.00    -0.491 OA
ENDBRANCH   1  17
BRANCH   2  18
ATOM     18  O   LIG    1       23.536 -12.375   4.148  0.00  0.00    -0.491 OA
ATOM     19  C   LIG    1       23.922 -11.666   5.316  0.00  0.00    +0.277 C 
ENDBRANCH   2  18
BRANCH  10  20
ATOM     20  C   LIG    1       21.945 -20.474   4.679  0.00  0.00    +0.015 C 
BRANCH  20  21
ATOM     21  C   LIG    1       23.060 -21.370   5.241  0.00  0.00    -0.016 C 
ATOM     22  C   LIG    1       23.704 -20.797   6.501  0.00  0.00    +0.007 C 
ATOM     23  C   LIG    1       24.133 -21.567   4.161  0.00  0.00    +0.007 C 
ENDBRANCH  20  21
ENDBRANCH  10  20
TORSDOF 4
ENDMDL
MODEL 5
REMARK VINA RESULT:       3.2      1.327      1.718
REMARK  Name = *****
REMARK                            x       y       z     vdW  Elec       q    Type
REMARK                         _______ _______ _______ _____ _____    ______ ____
ROOT
ATOM      1  C   LIG    1       23.890 -20.384   5.054  0.00  0.00    +0.162 A 
ATOM      2  C   LIG    1       22.932 -19.620   4.377  0.00  0.00    +0.162 A 
ATOM      3  C   LIG    1       23.328 -18.421   3.775  0.00  0.00    +0.054 A 
ATOM      4  C   LIG    1       24.655 -17.946   3.834  0.00  0.00    -0.023 A 
ATOM      5  C   LIG    1       25.022 -16.638   3.125  0.00  0.00    +0.094 C 
ATOM      6  N   LIG    1       26.440 -16.211   3.258  0.00  0.00    -0.294 NA
ATOM      7  C   LIG    1       27.340 -17.379   3.231  0.00  0.00    +0.089 C 
ATOM      8  C   LIG    1       27.081 -18.388   4.363  0.00  0.00    +0.051 C 
ATOM      9  C   LIG    1       26.725 -15.354   4.416  0.00  0.00    +0.096 C 
ATOM     10  C   LIG    1       25.860 -14.099   4.470  0.00  0.00    +0.070 C 
ATOM     11  C   LIG    1       24.440 -14.605   4.522  0.00  0.00    +0.139 C 
ATOM     12  O   LIG    1       23.650 -14.225   5.380  0.00  0.00    -0.297 OA
ATOM     13  C   LIG    1       24.012 -15.501   3.389  0.00  0.00    +0.098 C 
ATOM     14  C   LIG    1       25.623 -18.762   4.436  0.00  0.00    -0.038 A 
ATOM     15  C   LIG    1       25.224 -19.944   5.085  0.00  0.00    +0.053 A 
ENDROOT
BRANCH   1  17
ATOM     16  C   LIG    1       23.212 -21.496   7.055  0.00  0.00    +0.277 C 
ATOM     17  O   LIG    1       23.686 -21.572   5.714  0.00  0.00    -0.491 OA
ENDBRANCH   1  17
BRANCH   2  18
ATOM     18  O   LIG    1       21.637 -20.061   4.363  0.00  0.00    -0.491 OA
ATOM     19  C   LIG    1       20.671 -19.314   3.639  0.00  0.00    +0.277 C 
ENDBRANCH   2  18
BRANCH  10  20
ATOM     20  C   LIG    1       25.991 -13.110   3.297  0.00  0.00    +0.015 C 
BRANCH  20  21
ATOM     21  C   LIG    1       24.849 -12.101   3.104  0.00  0.00    -0.016 C 
ATOM     22  C   LIG    1       24.007 -11.909   4.362  0.00  0.00    +0.007 C 
ATOM     23  C   LIG    1       23.952 -12.578   1.954  0.00  0.00    +0.007 C 
ENDBRANCH  20  21
ENDBRANCH  10  20
TORSDOF 4
ENDMDL
