MODEL 1
REMARK VINA RESULT:      -1.4      0.000      0.000
REMARK  Name = *****
REMARK                            x       y       z     vdW  Elec       q    Type
REMARK                         _______ _______ _______ _____ _____    ______ ____
ROOT
ATOM      1  C   LIG    1       26.479 -28.254   7.937  0.00  0.00    +0.210 C 
ATOM      2  C   LIG    1       25.529 -29.211   7.112  0.00  0.00    +0.126 C 
ATOM      3  C   LIG    1       24.148 -28.541   6.912  0.00  0.00    +0.048 C 
ATOM      4  C   LIG    1       25.450 -30.745   7.523  0.00  0.00    +0.160 C 
ATOM      5  C   LIG    1       25.409 -31.178   9.004  0.00  0.00    +0.035 C 
ATOM      6  C   LIG    1       24.309 -30.490   9.783  0.00  0.00    +0.012 C 
ATOM      7  C   LIG    1       25.319 -32.733   9.100  0.00  0.00    +0.064 C 
ATOM      8  N   LIG    1       24.277 -33.226   8.225  0.00  0.00    -0.286 NA
ATOM      9  H   LIG    1       23.476 -32.793   8.637  0.00  0.00    +0.125 HD
ATOM     10  C   LIG    1       24.258 -32.729   6.866  0.00  0.00    +0.213 C 
ATOM     11  C   LIG    1       25.069 -33.410  10.529  0.00  0.00    +0.006 C 
ATOM     12  C   LIG    1       23.625 -33.637  10.996  0.00  0.00    +0.009 C 
ATOM     13  C   LIG    1       26.105 -32.966  11.598  0.00  0.00    +0.042 C 
ATOM     14  C   LIG    1       25.857 -32.144  12.922  0.00  0.00    +0.090 C 
ATOM     15  C   LIG    1       24.394 -32.062  13.360  0.00  0.00    +0.044 C 
ATOM     16  C   LIG    1       26.672 -30.686  12.798  0.00  0.00    +0.158 C 
ATOM     17  C   LIG    1       25.989 -29.530  13.583  0.00  0.00    +0.047 C 
ATOM     18  C   LIG    1       26.426 -29.490  15.066  0.00  0.00    +0.013 C 
ATOM     19  C   LIG    1       25.855 -28.052  13.015  0.00  0.00    +0.140 C 
ATOM     20  C   LIG    1       25.943 -27.471  11.562  0.00  0.00    +0.124 C 
ATOM     21  C   LIG    1       26.575 -26.065  11.662  0.00  0.00    +0.022 C 
ATOM     22  C   LIG    1       26.520 -28.189  10.343  0.00  0.00    +0.313 C 
ATOM     23  O   LIG    1       27.382 -28.981  10.313  0.00  0.00    -0.250 OA
ATOM     24  O   LIG    1       24.318 -31.313   6.824  0.00  0.00    -0.353 OA
ATOM     25  O   LIG    1       25.870 -27.798   9.192  0.00  0.00    -0.458 OA
ENDROOT
BRANCH   1  27
ATOM     26  C   LIG    1       25.491 -26.064   6.923  0.00  0.00    +0.007 C 
ATOM     27  C   LIG    1       26.726 -26.923   7.170  0.00  0.00    +0.044 C 
ENDBRANCH   1  27
BRANCH  14  28
ATOM     28  O   LIG    1       26.430 -32.866  14.042  0.00  0.00    -0.386 OA
ATOM     29  H   LIG    1       25.739 -33.063  14.693  0.00  0.00    +0.210 HD
ENDBRANCH  14  28
BRANCH   2  30
ATOM     30  O   LIG    1       26.097 -29.280   5.762  0.00  0.00    -0.383 OA
ATOM     31  H   LIG    1       25.419 -28.912   5.164  0.00  0.00    +0.210 HD
ENDBRANCH   2  30
BRANCH  16  32
ATOM     32  O   LIG    1       28.084 -30.893  13.113  0.00  0.00    -0.342 OA
BRANCH  32  33
ATOM     33  C   LIG    1       28.980 -29.759  12.997  0.00  0.00    +0.281 C 
ATOM     34  C   LIG    1       29.429 -29.177  14.373  0.00  0.00    +0.187 C 
ATOM     35  C   LIG    1       30.937 -29.443  14.733  0.00  0.00    +0.092 C 
ATOM     36  C   LIG    1       31.904 -29.212  13.548  0.00  0.00    +0.053 C 
ATOM     37  C   LIG    1       31.135 -29.052  12.257  0.00  0.00    +0.120 C 
ATOM     38  C   LIG    1       32.078 -29.185  11.063  0.00  0.00    +0.038 C 
ATOM     39  O   LIG    1       30.161 -30.092  12.290  0.00  0.00    -0.346 OA
BRANCH  35  40
ATOM     40  N   LIG    1       31.103 -30.694  15.500  0.00  0.00    -0.303 NA
ATOM     41  C   LIG    1       32.343 -31.404  15.209  0.00  0.00    +0.105 C 
ATOM     42  C   LIG    1       29.965 -31.610  15.468  0.00  0.00    +0.105 C 
ENDBRANCH  35  40
BRANCH  34  43
ATOM     43  O   LIG    1       29.275 -27.733  14.311  0.00  0.00    -0.385 OA
ATOM     44  H   LIG    1       30.122 -27.386  13.980  0.00  0.00    +0.210 HD
ENDBRANCH  34  43
ENDBRANCH  32  33
ENDBRANCH  16  32
BRANCH  19  45
ATOM     45  O   LIG    1       24.653 -27.422  13.649  0.00  0.00    -0.347 OA
BRANCH  45  46
ATOM     46  C   LIG    1       23.392 -28.150  13.751  0.00  0.00    +0.254 C 
ATOM     47  O   LIG    1       22.862 -28.366  12.436  0.00  0.00    -0.346 OA
ATOM     48  C   LIG    1       21.561 -28.988  12.368  0.00  0.00    +0.150 C 
ATOM     49  C   LIG    1       21.586 -30.479  12.678  0.00  0.00    +0.040 C 
ATOM     50  C   LIG    1       20.502 -28.172  13.137  0.00  0.00    +0.175 C 
ATOM     51  C   LIG    1       20.946 -27.833  14.574  0.00  0.00    +0.099 C 
ATOM     52  C   LIG    1       20.820 -29.058  15.497  0.00  0.00    +0.044 C 
ATOM     53  C   LIG    1       22.392 -27.359  14.563  0.00  0.00    +0.098 C 
BRANCH  51  54
ATOM     54  O   LIG    1       20.088 -26.874  15.242  0.00  0.00    -0.374 OA
ATOM     55  C   LIG    1       18.731 -27.208  15.500  0.00  0.00    +0.195 C 
ENDBRANCH  51  54
BRANCH  50  56
ATOM     56  O   LIG    1       20.319 -26.975  12.357  0.00  0.00    -0.386 OA
ATOM     57  H   LIG    1       20.388 -27.228  11.417  0.00  0.00    +0.210 HD
ENDBRANCH  50  56
ENDBRANCH  45  46
ENDBRANCH  19  45
BRANCH  10  58
ATOM     58  C   LIG    1       22.927 -33.198   6.184  0.00  0.00    +0.207 C 
BRANCH  58  59
ATOM     59  O   LIG    1       23.025 -33.603   4.796  0.00  0.00    -0.374 OA
BRANCH  59  60
ATOM     60  C   LIG    1       24.332 -33.823   4.260  0.00  0.00    +0.188 C 
BRANCH  60  61
ATOM     61  C   LIG    1       24.869 -32.669   3.408  0.00  0.00    +0.187 C 
BRANCH  61  62
ATOM     62  O   LIG    1       25.918 -32.005   4.107  0.00  0.00    -0.381 OA
ATOM     63  C   LIG    1       26.812 -32.925   4.719  0.00  0.00    +0.194 C 
ENDBRANCH  61  62
ENDBRANCH  60  61
ENDBRANCH  59  60
ENDBRANCH  58  59
ENDBRANCH  10  58
TORSDOF 16
ENDMDL
MODEL 2
REMARK VINA RESULT:      -0.5      1.410      2.522
REMARK  Name = *****
REMARK                            x       y       z     vdW  Elec       q    Type
REMARK                         _______ _______ _______ _____ _____    ______ ____
ROOT
ATOM      1  C   LIG    1       26.402 -28.702   8.294  0.00  0.00    +0.210 C 
ATOM      2  C   LIG    1       25.373 -29.720   7.657  0.00  0.00    +0.126 C 
ATOM      3  C   LIG    1       23.992 -29.041   7.492  0.00  0.00    +0.048 C 
ATOM      4  C   LIG    1       25.303 -31.197   8.242  0.00  0.00    +0.160 C 
ATOM      5  C   LIG    1       25.374 -31.463   9.761  0.00  0.00    +0.035 C 
ATOM      6  C   LIG    1       24.350 -30.665  10.542  0.00  0.00    +0.012 C 
ATOM      7  C   LIG    1       25.265 -32.995  10.037  0.00  0.00    +0.064 C 
ATOM      8  N   LIG    1       24.148 -33.555   9.307  0.00  0.00    -0.286 NA
ATOM      9  H   LIG    1       23.391 -33.059   9.728  0.00  0.00    +0.125 HD
ATOM     10  C   LIG    1       24.029 -33.210   7.906  0.00  0.00    +0.213 C 
ATOM     11  C   LIG    1       25.119 -33.504  11.548  0.00  0.00    +0.006 C 
ATOM     12  C   LIG    1       23.714 -33.642  12.148  0.00  0.00    +0.009 C 
ATOM     13  C   LIG    1       26.245 -32.972  12.477  0.00  0.00    +0.042 C 
ATOM     14  C   LIG    1       26.117 -32.003  13.716  0.00  0.00    +0.090 C 
ATOM     15  C   LIG    1       24.696 -31.836  14.254  0.00  0.00    +0.044 C 
ATOM     16  C   LIG    1       26.944 -30.589  13.367  0.00  0.00    +0.158 C 
ATOM     17  C   LIG    1       26.345 -29.336  14.069  0.00  0.00    +0.047 C 
ATOM     18  C   LIG    1       26.900 -29.144  15.499  0.00  0.00    +0.013 C 
ATOM     19  C   LIG    1       26.190 -27.927  13.351  0.00  0.00    +0.140 C 
ATOM     20  C   LIG    1       26.171 -27.512  11.840  0.00  0.00    +0.124 C 
ATOM     21  C   LIG    1       26.832 -26.120  11.732  0.00  0.00    +0.022 C 
ATOM     22  C   LIG    1       26.637 -28.374  10.667  0.00  0.00    +0.313 C 
ATOM     23  O   LIG    1       27.481 -29.186  10.659  0.00  0.00    -0.250 OA
ATOM     24  O   LIG    1       24.109 -31.809   7.701  0.00  0.00    -0.353 OA
ATOM     25  O   LIG    1       25.904 -28.095   9.534  0.00  0.00    -0.458 OA
ENDROOT
BRANCH   1  27
ATOM     26  C   LIG    1       25.600 -26.340   7.534  0.00  0.00    +0.007 C 
ATOM     27  C   LIG    1       26.609 -27.470   7.367  0.00  0.00    +0.044 C 
ENDBRANCH   1  27
BRANCH  14  28
ATOM     28  O   LIG    1       26.766 -32.611  14.861  0.00  0.00    -0.386 OA
ATOM     29  H   LIG    1       27.625 -32.188  15.015  0.00  0.00    +0.210 HD
ENDBRANCH  14  28
BRANCH   2  30
ATOM     30  O   LIG    1       25.830 -29.951   6.284  0.00  0.00    -0.383 OA
ATOM     31  H   LIG    1       25.030 -30.158   5.764  0.00  0.00    +0.210 HD
ENDBRANCH   2  30
BRANCH  16  32
ATOM     32  O   LIG    1       28.373 -30.795  13.592  0.00  0.00    -0.342 OA
BRANCH  32  33
ATOM     33  C   LIG    1       29.266 -29.675  13.369  0.00  0.00    +0.281 C 
ATOM     34  C   LIG    1       29.929 -29.138  14.675  0.00  0.00    +0.187 C 
ATOM     35  C   LIG    1       31.468 -29.441  14.796  0.00  0.00    +0.092 C 
ATOM     36  C   LIG    1       32.251 -29.195  13.485  0.00  0.00    +0.053 C 
ATOM     37  C   LIG    1       31.299 -28.988  12.329  0.00  0.00    +0.120 C 
ATOM     38  C   LIG    1       32.049 -29.105  11.003  0.00  0.00    +0.038 C 
ATOM     39  O   LIG    1       30.319 -30.010  12.484  0.00  0.00    -0.346 OA
BRANCH  35  40
ATOM     40  N   LIG    1       31.721 -30.714  15.499  0.00  0.00    -0.303 NA
ATOM     41  C   LIG    1       32.961 -31.371  15.104  0.00  0.00    +0.105 C 
ATOM     42  C   LIG    1       30.611 -31.665  15.500  0.00  0.00    +0.105 C 
ENDBRANCH  35  40
BRANCH  34  43
ATOM     43  O   LIG    1       29.800 -27.690  14.671  0.00  0.00    -0.385 OA
ATOM     44  H   LIG    1       30.497 -27.359  14.078  0.00  0.00    +0.210 HD
ENDBRANCH  34  43
ENDBRANCH  32  33
ENDBRANCH  16  32
BRANCH  19  45
ATOM     45  O   LIG    1       25.054 -27.200  14.003  0.00  0.00    -0.347 OA
BRANCH  45  46
ATOM     46  C   LIG    1       23.778 -27.868  14.242  0.00  0.00    +0.254 C 
ATOM     47  O   LIG    1       23.765 -29.126  13.553  0.00  0.00    -0.346 OA
ATOM     48  C   LIG    1       22.528 -29.869  13.607  0.00  0.00    +0.150 C 
ATOM     49  C   LIG    1       22.273 -30.525  14.957  0.00  0.00    +0.040 C 
ATOM     50  C   LIG    1       21.352 -29.049  13.039  0.00  0.00    +0.175 C 
ATOM     51  C   LIG    1       21.252 -27.645  13.668  0.00  0.00    +0.099 C 
ATOM     52  C   LIG    1       20.655 -27.712  15.085  0.00  0.00    +0.044 C 
ATOM     53  C   LIG    1       22.636 -27.016  13.735  0.00  0.00    +0.098 C 
BRANCH  51  54
ATOM     54  O   LIG    1       20.313 -26.766  12.997  0.00  0.00    -0.374 OA
ATOM     55  C   LIG    1       19.270 -26.154  13.744  0.00  0.00    +0.195 C 
ENDBRANCH  51  54
BRANCH  50  56
ATOM     56  O   LIG    1       21.607 -28.964  11.624  0.00  0.00    -0.386 OA
ATOM     57  H   LIG    1       22.286 -29.631  11.412  0.00  0.00    +0.210 HD
ENDBRANCH  50  56
ENDBRANCH  45  46
ENDBRANCH  19  45
BRANCH  10  58
ATOM     58  C   LIG    1       22.640 -33.718   7.386  0.00  0.00    +0.207 C 
BRANCH  58  59
ATOM     59  O   LIG    1       21.581 -33.810   8.369  0.00  0.00    -0.374 OA
BRANCH  59  60
ATOM     60  C   LIG    1       21.360 -32.679   9.215  0.00  0.00    +0.188 C 
BRANCH  60  61
ATOM     61  C   LIG    1       20.343 -32.916  10.335  0.00  0.00    +0.187 C 
BRANCH  61  62
ATOM     62  O   LIG    1       20.320 -31.789  11.208  0.00  0.00    -0.381 OA
ATOM     63  C   LIG    1       19.091 -31.693  11.916  0.00  0.00    +0.194 C 
ENDBRANCH  61  62
ENDBRANCH  60  61
ENDBRANCH  59  60
ENDBRANCH  58  59
ENDBRANCH  10  58
TORSDOF 16
ENDMDL
