MODEL 1
REMARK VINA RESULT:      -6.8      0.000      0.000
REMARK  Name = *****
REMARK                            x       y       z     vdW  Elec       q    Type
REMARK                         _______ _______ _______ _____ _____    ______ ____
ROOT
ATOM      1  N   LIG    1       22.356 -19.147   5.517  0.00  0.00    -0.313 NA
ATOM      2  H   LIG    1       21.416 -19.201   5.914  0.00  0.00    +0.122 HD
ENDROOT
BRANCH   1   3
ATOM      3  C   LIG    1       22.356 -18.141   4.432  0.00  0.00    +0.081 C 
BRANCH   3   4
ATOM      4  C   LIG    1       22.369 -16.701   4.964  0.00  0.00    +0.015 C 
BRANCH   4   5
ATOM      5  C   LIG    1       23.105 -15.741   4.008  0.00  0.00    +0.006 C 
BRANCH   5   6
ATOM      6  C   LIG    1       23.685 -14.491   4.690  0.00  0.00    +0.035 C 
BRANCH   6  10
ATOM      7  C   LIG    1       27.780 -13.634   3.668  0.00  0.00    +0.117 A 
ATOM      8  C   LIG    1       26.968 -14.308   2.760  0.00  0.00    +0.045 A 
ATOM      9  C   LIG    1       25.649 -14.600   3.106  0.00  0.00    +0.007 A 
ATOM     10  C   LIG    1       25.128 -14.211   4.346  0.00  0.00    -0.047 A 
ATOM     11  C   LIG    1       25.967 -13.540   5.252  0.00  0.00    +0.007 A 
ATOM     12  C   LIG    1       27.293 -13.258   4.912  0.00  0.00    +0.045 A 
BRANCH   7  13
ATOM     13  O   LIG    1       29.059 -13.360   3.286  0.00  0.00    -0.507 OA
ATOM     14  H   LIG    1       29.484 -12.842   3.990  0.00  0.00    +0.292 HD
ENDBRANCH   7  13
ENDBRANCH   6  10
ENDBRANCH   5   6
ENDBRANCH   4   5
ENDBRANCH   3   4
ENDBRANCH   1   3
BRANCH   1  15
ATOM     15  C   LIG    1       22.727 -20.472   4.952  0.00  0.00    +0.117 C 
BRANCH  15  16
ATOM     16  C   LIG    1       23.993 -20.448   4.047  0.00  0.00    +0.158 C 
BRANCH  16  17
ATOM     17  C   LIG    1       25.282 -20.450   4.864  0.00  0.00    -0.014 A 
ATOM     18  C   LIG    1       26.366 -19.641   4.474  0.00  0.00    +0.055 A 
ATOM     19  C   LIG    1       27.536 -19.628   5.228  0.00  0.00    +0.159 A 
ATOM     20  C   LIG    1       27.666 -20.423   6.362  0.00  0.00    +0.158 A 
ATOM     21  C   LIG    1       26.621 -21.242   6.760  0.00  0.00    +0.049 A 
ATOM     22  C   LIG    1       25.436 -21.253   6.011  0.00  0.00    +0.010 A 
BRANCH  19  23
ATOM     23  O   LIG    1       28.570 -18.822   4.843  0.00  0.00    -0.503 OA
ATOM     24  H   LIG    1       28.603 -18.920   3.871  0.00  0.00    +0.292 HD
ENDBRANCH  19  23
BRANCH  20  25
ATOM     25  O   LIG    1       28.848 -20.365   7.050  0.00  0.00    -0.503 OA
ATOM     26  H   LIG    1       29.223 -21.263   7.075  0.00  0.00    +0.292 HD
ENDBRANCH  20  25
ENDBRANCH  16  17
BRANCH  16  27
ATOM     27  O   LIG    1       23.951 -21.571   3.160  0.00  0.00    -0.386 OA
ATOM     28  H   LIG    1       24.845 -21.963   3.201  0.00  0.00    +0.210 HD
ENDBRANCH  16  27
ENDBRANCH  15  16
ENDBRANCH   1  15
TORSDOF 12
ENDMDL
MODEL 2
REMARK VINA RESULT:      -6.0      1.686      6.429
REMARK  Name = *****
REMARK                            x       y       z     vdW  Elec       q    Type
REMARK                         _______ _______ _______ _____ _____    ______ ____
ROOT
ATOM      1  N   LIG    1       22.200 -16.671   4.568  0.00  0.00    -0.313 NA
ATOM      2  H   LIG    1       22.140 -16.584   5.584  0.00  0.00    +0.122 HD
ENDROOT
BRANCH   1   3
ATOM      3  C   LIG    1       22.066 -18.099   4.205  0.00  0.00    +0.081 C 
BRANCH   3   4
ATOM      4  C   LIG    1       22.331 -19.036   5.392  0.00  0.00    +0.015 C 
BRANCH   4   5
ATOM      5  C   LIG    1       22.672 -20.467   4.931  0.00  0.00    +0.006 C 
BRANCH   5   6
ATOM      6  C   LIG    1       23.549 -21.257   5.916  0.00  0.00    +0.035 C 
BRANCH   6  10
ATOM      7  C   LIG    1       27.692 -20.082   5.984  0.00  0.00    +0.117 A 
ATOM      8  C   LIG    1       27.154 -20.781   7.061  0.00  0.00    +0.045 A 
ATOM      9  C   LIG    1       25.807 -21.140   7.042  0.00  0.00    +0.007 A 
ATOM     10  C   LIG    1       24.993 -20.820   5.947  0.00  0.00    -0.047 A 
ATOM     11  C   LIG    1       25.553 -20.107   4.873  0.00  0.00    +0.007 A 
ATOM     12  C   LIG    1       26.900 -19.735   4.897  0.00  0.00    +0.045 A 
BRANCH   7  13
ATOM     13  O   LIG    1       29.014 -19.759   6.039  0.00  0.00    -0.507 OA
ATOM     14  H   LIG    1       29.528 -20.514   5.708  0.00  0.00    +0.292 HD
ENDBRANCH   7  13
ENDBRANCH   6  10
ENDBRANCH   5   6
ENDBRANCH   4   5
ENDBRANCH   3   4
ENDBRANCH   1   3
BRANCH   1  15
ATOM     15  C   LIG    1       23.525 -16.176   4.111  0.00  0.00    +0.117 C 
BRANCH  15  16
ATOM     16  C   LIG    1       23.666 -14.626   4.121  0.00  0.00    +0.158 C 
BRANCH  16  17
ATOM     17  C   LIG    1       25.115 -14.181   3.946  0.00  0.00    -0.014 A 
ATOM     18  C   LIG    1       25.864 -13.758   5.061  0.00  0.00    +0.055 A 
ATOM     19  C   LIG    1       27.191 -13.369   4.905  0.00  0.00    +0.159 A 
ATOM     20  C   LIG    1       27.796 -13.370   3.653  0.00  0.00    +0.158 A 
ATOM     21  C   LIG    1       27.078 -13.766   2.535  0.00  0.00    +0.049 A 
ATOM     22  C   LIG    1       25.744 -14.168   2.685  0.00  0.00    +0.010 A 
BRANCH  19  23
ATOM     23  O   LIG    1       27.906 -12.979   6.003  0.00  0.00    -0.503 OA
ATOM     24  H   LIG    1       28.415 -12.202   5.696  0.00  0.00    +0.292 HD
ENDBRANCH  19  23
BRANCH  20  25
ATOM     25  O   LIG    1       29.102 -12.967   3.574  0.00  0.00    -0.503 OA
ATOM     26  H   LIG    1       29.578 -13.345   4.333  0.00  0.00    +0.292 HD
ENDBRANCH  20  25
ENDBRANCH  16  17
BRANCH  16  27
ATOM     27  O   LIG    1       22.838 -14.076   3.091  0.00  0.00    -0.386 OA
ATOM     28  H   LIG    1       22.124 -13.604   3.561  0.00  0.00    +0.210 HD
ENDBRANCH  16  27
ENDBRANCH  15  16
ENDBRANCH   1  15
TORSDOF 12
ENDMDL
MODEL 3
REMARK VINA RESULT:      -5.1      1.850      6.958
REMARK  Name = *****
REMARK                            x       y       z     vdW  Elec       q    Type
REMARK                         _______ _______ _______ _____ _____    ______ ____
ROOT
ATOM      1  N   LIG    1       23.275 -15.340   4.638  0.00  0.00    -0.313 NA
ATOM      2  H   LIG    1       24.149 -15.789   4.359  0.00  0.00    +0.122 HD
ENDROOT
BRANCH   1   3
ATOM      3  C   LIG    1       22.167 -16.303   4.453  0.00  0.00    +0.081 C 
BRANCH   3   4
ATOM      4  C   LIG    1       22.564 -17.737   4.832  0.00  0.00    +0.015 C 
BRANCH   4   5
ATOM      5  C   LIG    1       21.636 -18.782   4.180  0.00  0.00    +0.006 C 
BRANCH   5   6
ATOM      6  C   LIG    1       22.009 -20.240   4.492  0.00  0.00    +0.035 C 
BRANCH   6  10
ATOM      7  C   LIG    1       25.891 -20.802   6.272  0.00  0.00    +0.117 A 
ATOM      8  C   LIG    1       24.748 -20.898   7.062  0.00  0.00    +0.045 A 
ATOM      9  C   LIG    1       23.496 -20.694   6.483  0.00  0.00    +0.007 A 
ATOM     10  C   LIG    1       23.373 -20.411   5.117  0.00  0.00    -0.047 A 
ATOM     11  C   LIG    1       24.539 -20.310   4.339  0.00  0.00    +0.007 A 
ATOM     12  C   LIG    1       25.795 -20.501   4.921  0.00  0.00    +0.045 A 
BRANCH   7  13
ATOM     13  O   LIG    1       27.093 -21.018   6.875  0.00  0.00    -0.507 OA
ATOM     14  H   LIG    1       27.601 -20.189   6.852  0.00  0.00    +0.292 HD
ENDBRANCH   7  13
ENDBRANCH   6  10
ENDBRANCH   5   6
ENDBRANCH   4   5
ENDBRANCH   3   4
ENDBRANCH   1   3
BRANCH   1  15
ATOM     15  C   LIG    1       23.036 -14.152   3.776  0.00  0.00    +0.117 C 
BRANCH  15  16
ATOM     16  C   LIG    1       23.863 -12.896   4.177  0.00  0.00    +0.158 C 
BRANCH  16  17
ATOM     17  C   LIG    1       25.358 -13.095   3.945  0.00  0.00    -0.014 A 
ATOM     18  C   LIG    1       26.290 -12.585   4.867  0.00  0.00    +0.055 A 
ATOM     19  C   LIG    1       27.654 -12.781   4.666  0.00  0.00    +0.159 A 
ATOM     20  C   LIG    1       28.122 -13.463   3.547  0.00  0.00    +0.158 A 
ATOM     21  C   LIG    1       27.227 -13.962   2.614  0.00  0.00    +0.049 A 
ATOM     22  C   LIG    1       25.852 -13.777   2.815  0.00  0.00    +0.010 A 
BRANCH  19  23
ATOM     23  O   LIG    1       28.542 -12.293   5.583  0.00  0.00    -0.503 OA
ATOM     24  H   LIG    1       28.164 -11.432   5.850  0.00  0.00    +0.292 HD
ENDBRANCH  19  23
BRANCH  20  25
ATOM     25  O   LIG    1       29.475 -13.611   3.410  0.00  0.00    -0.503 OA
ATOM     26  H   LIG    1       29.810 -14.054   4.209  0.00  0.00    +0.292 HD
ENDBRANCH  20  25
ENDBRANCH  16  17
BRANCH  16  27
ATOM     27  O   LIG    1       23.380 -11.766   3.441  0.00  0.00    -0.386 OA
ATOM     28  H   LIG    1       22.412 -11.774   3.566  0.00  0.00    +0.210 HD
ENDBRANCH  16  27
ENDBRANCH  15  16
ENDBRANCH   1  15
TORSDOF 12
ENDMDL
MODEL 4
REMARK VINA RESULT:      -5.0      2.656      4.473
REMARK  Name = *****
REMARK                            x       y       z     vdW  Elec       q    Type
REMARK                         _______ _______ _______ _____ _____    ______ ____
ROOT
ATOM      1  N   LIG    1       29.233 -19.377   5.665  0.00  0.00    -0.313 NA
ATOM      2  H   LIG    1       29.418 -19.605   6.644  0.00  0.00    +0.122 HD
ENDROOT
BRANCH   1   3
ATOM      3  C   LIG    1       29.232 -17.905   5.514  0.00  0.00    +0.081 C 
BRANCH   3   4
ATOM      4  C   LIG    1       28.279 -17.427   4.408  0.00  0.00    +0.015 C 
BRANCH   4   5
ATOM      5  C   LIG    1       28.085 -15.898   4.437  0.00  0.00    +0.006 C 
BRANCH   5   6
ATOM      6  C   LIG    1       27.178 -15.355   3.321  0.00  0.00    +0.035 C 
BRANCH   6  10
ATOM      7  C   LIG    1       24.348 -12.380   4.622  0.00  0.00    +0.117 A 
ATOM      8  C   LIG    1       24.309 -12.844   3.310  0.00  0.00    +0.045 A 
ATOM      9  C   LIG    1       25.241 -13.792   2.890  0.00  0.00    +0.007 A 
ATOM     10  C   LIG    1       26.205 -14.294   3.774  0.00  0.00    -0.047 A 
ATOM     11  C   LIG    1       26.234 -13.806   5.091  0.00  0.00    +0.007 A 
ATOM     12  C   LIG    1       25.308 -12.846   5.510  0.00  0.00    +0.045 A 
BRANCH   7  13
ATOM     13  O   LIG    1       23.414 -11.461   4.994  0.00  0.00    -0.507 OA
ATOM     14  H   LIG    1       23.267 -10.855   4.249  0.00  0.00    +0.292 HD
ENDBRANCH   7  13
ENDBRANCH   6  10
ENDBRANCH   5   6
ENDBRANCH   4   5
ENDBRANCH   3   4
ENDBRANCH   1   3
BRANCH   1  15
ATOM     15  C   LIG    1       27.897 -19.906   5.282  0.00  0.00    +0.117 C 
BRANCH  15  16
ATOM     16  C   LIG    1       27.030 -20.383   6.484  0.00  0.00    +0.158 C 
BRANCH  16  17
ATOM     17  C   LIG    1       25.589 -20.671   6.073  0.00  0.00    -0.014 A 
ATOM     18  C   LIG    1       25.254 -20.789   4.711  0.00  0.00    +0.055 A 
ATOM     19  C   LIG    1       23.943 -21.070   4.336  0.00  0.00    +0.159 A 
ATOM     20  C   LIG    1       22.941 -21.218   5.288  0.00  0.00    +0.158 A 
ATOM     21  C   LIG    1       23.239 -21.092   6.636  0.00  0.00    +0.049 A 
ATOM     22  C   LIG    1       24.559 -20.819   7.023  0.00  0.00    +0.010 A 
BRANCH  19  23
ATOM     23  O   LIG    1       23.641 -21.198   3.009  0.00  0.00    -0.503 OA
ATOM     24  H   LIG    1       22.669 -21.304   2.992  0.00  0.00    +0.292 HD
ENDBRANCH  19  23
BRANCH  20  25
ATOM     25  O   LIG    1       21.674 -21.485   4.846  0.00  0.00    -0.503 OA
ATOM     26  H   LIG    1       21.675 -21.417   3.875  0.00  0.00    +0.292 HD
ENDBRANCH  20  25
ENDBRANCH  16  17
BRANCH  16  27
ATOM     27  O   LIG    1       27.636 -21.545   7.062  0.00  0.00    -0.386 OA
ATOM     28  H   LIG    1       26.896 -22.060   7.436  0.00  0.00    +0.210 HD
ENDBRANCH  16  27
ENDBRANCH  15  16
ENDBRANCH   1  15
TORSDOF 12
ENDMDL
MODEL 5
REMARK VINA RESULT:      -4.7      2.457      7.206
REMARK  Name = *****
REMARK                            x       y       z     vdW  Elec       q    Type
REMARK                         _______ _______ _______ _____ _____    ______ ____
ROOT
ATOM      1  N   LIG    1       26.923 -18.606   4.454  0.00  0.00    -0.313 NA
ATOM      2  H   LIG    1       27.870 -18.773   4.108  0.00  0.00    +0.122 HD
ENDROOT
BRANCH   1   3
ATOM      3  C   LIG    1       26.194 -19.893   4.484  0.00  0.00    +0.081 C 
BRANCH   3   4
ATOM      4  C   LIG    1       26.100 -20.483   5.899  0.00  0.00    +0.015 C 
BRANCH   4   5
ATOM      5  C   LIG    1       24.950 -21.502   6.021  0.00  0.00    +0.006 C 
BRANCH   5   6
ATOM      6  C   LIG    1       23.661 -20.931   6.636  0.00  0.00    +0.035 C 
BRANCH   6  10
ATOM      7  C   LIG    1       20.990 -19.019   3.850  0.00  0.00    +0.117 A 
ATOM      8  C   LIG    1       20.879 -20.386   4.086  0.00  0.00    +0.045 A 
ATOM      9  C   LIG    1       21.761 -21.002   4.974  0.00  0.00    +0.007 A 
ATOM     10  C   LIG    1       22.745 -20.261   5.641  0.00  0.00    -0.047 A 
ATOM     11  C   LIG    1       22.846 -18.884   5.382  0.00  0.00    +0.007 A 
ATOM     12  C   LIG    1       21.971 -18.267   4.483  0.00  0.00    +0.045 A 
BRANCH   7  13
ATOM     13  O   LIG    1       20.104 -18.455   2.983  0.00  0.00    -0.507 OA
ATOM     14  H   LIG    1       20.043 -17.505   3.181  0.00  0.00    +0.292 HD
ENDBRANCH   7  13
ENDBRANCH   6  10
ENDBRANCH   5   6
ENDBRANCH   4   5
ENDBRANCH   3   4
ENDBRANCH   1   3
BRANCH   1  15
ATOM     15  C   LIG    1       26.222 -17.671   3.533  0.00  0.00    +0.117 C 
BRANCH  15  16
ATOM     16  C   LIG    1       26.961 -16.320   3.311  0.00  0.00    +0.158 C 
BRANCH  16  17
ATOM     17  C   LIG    1       26.001 -15.134   3.319  0.00  0.00    -0.014 A 
ATOM     18  C   LIG    1       26.298 -13.980   2.569  0.00  0.00    +0.055 A 
ATOM     19  C   LIG    1       25.414 -12.904   2.561  0.00  0.00    +0.159 A 
ATOM     20  C   LIG    1       24.238 -12.937   3.303  0.00  0.00    +0.158 A 
ATOM     21  C   LIG    1       23.928 -14.054   4.063  0.00  0.00    +0.049 A 
ATOM     22  C   LIG    1       24.808 -15.145   4.069  0.00  0.00    +0.010 A 
BRANCH  19  23
ATOM     23  O   LIG    1       25.712 -11.801   1.812  0.00  0.00    -0.503 OA
ATOM     24  H   LIG    1       25.244 -11.949   0.966  0.00  0.00    +0.292 HD
ENDBRANCH  19  23
BRANCH  20  25
ATOM     25  O   LIG    1       23.421 -11.841   3.254  0.00  0.00    -0.503 OA
ATOM     26  H   LIG    1       22.931 -11.795   4.093  0.00  0.00    +0.292 HD
ENDBRANCH  20  25
ENDBRANCH  16  17
BRANCH  16  27
ATOM     27  O   LIG    1       27.965 -16.167   4.321  0.00  0.00    -0.386 OA
ATOM     28  H   LIG    1       28.608 -15.534   3.948  0.00  0.00    +0.210 HD
ENDBRANCH  16  27
ENDBRANCH  15  16
ENDBRANCH   1  15
TORSDOF 12
ENDMDL
MODEL 6
REMARK VINA RESULT:      -4.7      2.194      6.423
REMARK  Name = *****
REMARK                            x       y       z     vdW  Elec       q    Type
REMARK                         _______ _______ _______ _____ _____    ______ ____
ROOT
ATOM      1  N   LIG    1       21.892 -18.269   4.455  0.00  0.00    -0.313 NA
ATOM      2  H   LIG    1       21.747 -17.998   5.430  0.00  0.00    +0.122 HD
ENDROOT
BRANCH   1   3
ATOM      3  C   LIG    1       22.534 -19.601   4.423  0.00  0.00    +0.081 C 
BRANCH   3   4
ATOM      4  C   LIG    1       22.885 -20.119   5.825  0.00  0.00    +0.015 C 
BRANCH   4   5
ATOM      5  C   LIG    1       23.682 -21.438   5.768  0.00  0.00    +0.006 C 
BRANCH   5   6
ATOM      6  C   LIG    1       24.858 -21.509   6.756  0.00  0.00    +0.035 C 
BRANCH   6  10
ATOM      7  C   LIG    1       28.341 -19.307   5.504  0.00  0.00    +0.117 A 
ATOM      8  C   LIG    1       27.179 -19.256   4.739  0.00  0.00    +0.045 A 
ATOM      9  C   LIG    1       26.062 -19.988   5.139  0.00  0.00    +0.007 A 
ATOM     10  C   LIG    1       26.089 -20.760   6.308  0.00  0.00    -0.047 A 
ATOM     11  C   LIG    1       27.274 -20.805   7.062  0.00  0.00    +0.007 A 
ATOM     12  C   LIG    1       28.399 -20.082   6.655  0.00  0.00    +0.045 A 
BRANCH   7  13
ATOM     13  O   LIG    1       29.406 -18.569   5.083  0.00  0.00    -0.507 OA
ATOM     14  H   LIG    1       29.601 -18.810   4.162  0.00  0.00    +0.292 HD
ENDBRANCH   7  13
ENDBRANCH   6  10
ENDBRANCH   5   6
ENDBRANCH   4   5
ENDBRANCH   3   4
ENDBRANCH   1   3
BRANCH   1  15
ATOM     15  C   LIG    1       22.789 -17.281   3.799  0.00  0.00    +0.117 C 
BRANCH  15  16
ATOM     16  C   LIG    1       23.309 -16.162   4.748  0.00  0.00    +0.158 C 
BRANCH  16  17
ATOM     17  C   LIG    1       24.139 -15.120   4.005  0.00  0.00    -0.014 A 
ATOM     18  C   LIG    1       23.572 -13.878   3.662  0.00  0.00    +0.055 A 
ATOM     19  C   LIG    1       24.333 -12.920   2.999  0.00  0.00    +0.159 A 
ATOM     20  C   LIG    1       25.654 -13.173   2.646  0.00  0.00    +0.158 A 
ATOM     21  C   LIG    1       26.235 -14.393   2.957  0.00  0.00    +0.049 A 
ATOM     22  C   LIG    1       25.477 -15.360   3.633  0.00  0.00    +0.010 A 
BRANCH  19  23
ATOM     23  O   LIG    1       23.769 -11.714   2.691  0.00  0.00    -0.503 OA
ATOM     24  H   LIG    1       22.839 -11.802   2.981  0.00  0.00    +0.292 HD
ENDBRANCH  19  23
BRANCH  20  25
ATOM     25  O   LIG    1       26.340 -12.188   1.989  0.00  0.00    -0.503 OA
ATOM     26  H   LIG    1       25.803 -11.906   1.229  0.00  0.00    +0.292 HD
ENDBRANCH  20  25
ENDBRANCH  16  17
BRANCH  16  27
ATOM     27  O   LIG    1       22.191 -15.549   5.402  0.00  0.00    -0.386 OA
ATOM     28  H   LIG    1       21.432 -15.704   4.808  0.00  0.00    +0.210 HD
ENDBRANCH  16  27
ENDBRANCH  15  16
ENDBRANCH   1  15
TORSDOF 12
ENDMDL
MODEL 7
REMARK VINA RESULT:      -4.7      2.769      7.912
REMARK  Name = *****
REMARK                            x       y       z     vdW  Elec       q    Type
REMARK                         _______ _______ _______ _____ _____    ______ ____
ROOT
ATOM      1  N   LIG    1       26.519 -16.909   3.309  0.00  0.00    -0.313 NA
ATOM      2  H   LIG    1       25.599 -16.524   3.528  0.00  0.00    +0.122 HD
ENDROOT
BRANCH   1   3
ATOM      3  C   LIG    1       26.592 -18.291   3.832  0.00  0.00    +0.081 C 
BRANCH   3   4
ATOM      4  C   LIG    1       27.620 -18.441   4.962  0.00  0.00    +0.015 C 
BRANCH   4   5
ATOM      5  C   LIG    1       27.813 -19.914   5.373  0.00  0.00    +0.006 C 
BRANCH   5   6
ATOM      6  C   LIG    1       26.917 -20.368   6.537  0.00  0.00    +0.035 C 
BRANCH   6  10
ATOM      7  C   LIG    1       22.878 -21.310   5.372  0.00  0.00    +0.117 A 
ATOM      8  C   LIG    1       23.150 -20.937   6.685  0.00  0.00    +0.045 A 
ATOM      9  C   LIG    1       24.462 -20.653   7.060  0.00  0.00    +0.007 A 
ATOM     10  C   LIG    1       25.507 -20.724   6.130  0.00  0.00    -0.047 A 
ATOM     11  C   LIG    1       25.214 -21.112   4.812  0.00  0.00    +0.007 A 
ATOM     12  C   LIG    1       23.901 -21.409   4.437  0.00  0.00    +0.045 A 
BRANCH   7  13
ATOM     13  O   LIG    1       21.582 -21.569   5.045  0.00  0.00    -0.507 OA
ATOM     14  H   LIG    1       21.259 -20.849   4.478  0.00  0.00    +0.292 HD
ENDBRANCH   7  13
ENDBRANCH   6  10
ENDBRANCH   5   6
ENDBRANCH   4   5
ENDBRANCH   3   4
ENDBRANCH   1   3
BRANCH   1  15
ATOM     15  C   LIG    1       27.566 -16.084   3.970  0.00  0.00    +0.117 C 
BRANCH  15  16
ATOM     16  C   LIG    1       27.709 -14.649   3.386  0.00  0.00    +0.158 C 
BRANCH  16  17
ATOM     17  C   LIG    1       26.480 -13.789   3.669  0.00  0.00    -0.014 A 
ATOM     18  C   LIG    1       25.708 -13.289   2.603  0.00  0.00    +0.055 A 
ATOM     19  C   LIG    1       24.577 -12.520   2.860  0.00  0.00    +0.159 A 
ATOM     20  C   LIG    1       24.198 -12.215   4.163  0.00  0.00    +0.158 A 
ATOM     21  C   LIG    1       24.949 -12.681   5.231  0.00  0.00    +0.049 A 
ATOM     22  C   LIG    1       26.084 -13.464   4.981  0.00  0.00    +0.010 A 
BRANCH  19  23
ATOM     23  O   LIG    1       23.831 -12.058   1.812  0.00  0.00    -0.503 OA
ATOM     24  H   LIG    1       23.541 -12.868   1.347  0.00  0.00    +0.292 HD
ENDBRANCH  19  23
BRANCH  20  25
ATOM     25  O   LIG    1       23.079 -11.447   4.340  0.00  0.00    -0.503 OA
ATOM     26  H   LIG    1       22.565 -11.473   3.515  0.00  0.00    +0.292 HD
ENDBRANCH  20  25
ENDBRANCH  16  17
BRANCH  16  27
ATOM     27  O   LIG    1       28.889 -14.042   3.927  0.00  0.00    -0.386 OA
ATOM     28  H   LIG    1       29.499 -13.952   3.171  0.00  0.00    +0.210 HD
ENDBRANCH  16  27
ENDBRANCH  15  16
ENDBRANCH   1  15
TORSDOF 12
ENDMDL
