MODEL 1
REMARK VINA RESULT:      -7.9      0.000      0.000
REMARK  Name = *****
REMARK                            x       y       z     vdW  Elec       q    Type
REMARK                         _______ _______ _______ _____ _____    ______ ____
ROOT
ATOM      1  C   LIG    1       25.399 -24.696   7.152  0.00  0.00    +0.104 C 
ATOM      2  C   LIG    1       24.005 -24.966   6.481  0.00  0.00    +0.152 C 
ATOM      3  C   LIG    1       24.014 -26.100   5.422  0.00  0.00    +0.117 C 
ATOM      4  N   LIG    1       24.709 -27.301   5.892  0.00  0.00    -0.300 NA
ATOM      5  C   LIG    1       26.120 -26.938   6.088  0.00  0.00    +0.086 C 
ATOM      6  C   LIG    1       26.260 -25.974   7.260  0.00  0.00    +0.040 C 
ENDROOT
BRANCH   1   8
ATOM      7  C   LIG    1       26.489 -22.452   7.384  0.00  0.00    +0.248 C 
ATOM      8  N   LIG    1       26.184 -23.566   6.596  0.00  0.00    -0.306 N 
ATOM      9  H   LIG    1       26.223 -23.469   5.585  0.00  0.00    +0.149 HD
ATOM     10  O   LIG    1       26.176 -22.394   8.561  0.00  0.00    -0.270 OA
BRANCH   7  12
ATOM     11  C   LIG    1       26.769 -20.417   5.773  0.00  0.00    +0.134 A 
ATOM     12  C   LIG    1       27.235 -21.285   6.777  0.00  0.00    +0.080 A 
ATOM     13  C   LIG    1       28.549 -21.075   7.280  0.00  0.00    +0.038 A 
ATOM     14  C   LIG    1       29.364 -20.042   6.801  0.00  0.00    +0.062 A 
ATOM     15 CL   LIG    1       30.953 -19.844   7.454  0.00  0.00    -0.082 Cl
ATOM     16  C   LIG    1       28.916 -19.203   5.782  0.00  0.00    +0.047 A 
ATOM     17  C   LIG    1       27.605 -19.367   5.337  0.00  0.00    +0.070 A 
BRANCH  16  18
ATOM     18  N   LIG    1       29.636 -18.083   5.329  0.00  0.00    -0.357 N 
ATOM     19  H   LIG    1       29.223 -17.201   5.624  0.00  0.00    +0.142 HD
ATOM     20  H   LIG    1       30.632 -18.127   5.525  0.00  0.00    +0.142 HD
ENDBRANCH  16  18
BRANCH  11  22
ATOM     21  C   LIG    1       25.234 -19.863   4.035  0.00  0.00    +0.277 C 
ATOM     22  O   LIG    1       25.526 -20.615   5.221  0.00  0.00    -0.494 OA
ENDBRANCH  11  22
ENDBRANCH   7  12
ENDBRANCH   1   8
BRANCH   2  23
ATOM     23  O   LIG    1       23.461 -23.747   5.934  0.00  0.00    -0.377 OA
ATOM     24  C   LIG    1       22.784 -22.945   6.904  0.00  0.00    +0.194 C 
ENDBRANCH   2  23
BRANCH   4  25
ATOM     25  C   LIG    1       24.595 -28.462   4.987  0.00  0.00    +0.088 C 
BRANCH  25  26
ATOM     26  C   LIG    1       24.942 -29.830   5.603  0.00  0.00    +0.056 C 
BRANCH  26  27
ATOM     27  C   LIG    1       24.497 -29.903   7.069  0.00  0.00    +0.230 C 
BRANCH  27  28
ATOM     28  O   LIG    1       25.592 -30.281   7.915  0.00  0.00    -0.492 OA
BRANCH  28  29
ATOM     29  C   LIG    1       25.685 -29.682   9.143  0.00  0.00    +0.121 A 
ATOM     30  C   LIG    1       26.667 -28.760   9.510  0.00  0.00    +0.048 A 
ATOM     31  C   LIG    1       26.700 -28.235  10.801  0.00  0.00    +0.042 A 
ATOM     32  C   LIG    1       25.726 -28.604  11.718  0.00  0.00    +0.124 A 
ATOM     33  F   LIG    1       25.766 -28.099  12.957  0.00  0.00    -0.205 F 
ATOM     34  C   LIG    1       24.710 -29.481  11.360  0.00  0.00    +0.042 A 
ATOM     35  C   LIG    1       24.686 -30.017  10.068  0.00  0.00    +0.048 A 
ENDBRANCH  28  29
ENDBRANCH  27  28
ENDBRANCH  26  27
ENDBRANCH  25  26
ENDBRANCH   4  25
TORSDOF 10
ENDMDL
MODEL 2
REMARK VINA RESULT:      -7.3      1.334      2.040
REMARK  Name = *****
REMARK                            x       y       z     vdW  Elec       q    Type
REMARK                         _______ _______ _______ _____ _____    ______ ____
ROOT
ATOM      1  C   LIG    1       25.414 -24.754   7.240  0.00  0.00    +0.104 C 
ATOM      2  C   LIG    1       24.021 -24.956   6.544  0.00  0.00    +0.152 C 
ATOM      3  C   LIG    1       24.000 -26.074   5.469  0.00  0.00    +0.117 C 
ATOM      4  N   LIG    1       24.637 -27.310   5.931  0.00  0.00    -0.300 NA
ATOM      5  C   LIG    1       26.058 -27.008   6.155  0.00  0.00    +0.086 C 
ATOM      6  C   LIG    1       26.219 -26.067   7.343  0.00  0.00    +0.040 C 
ENDROOT
BRANCH   1   8
ATOM      7  C   LIG    1       26.409 -22.463   7.436  0.00  0.00    +0.248 C 
ATOM      8  N   LIG    1       26.253 -23.649   6.714  0.00  0.00    -0.306 N 
ATOM      9  H   LIG    1       26.448 -23.637   5.716  0.00  0.00    +0.149 HD
ATOM     10  O   LIG    1       25.914 -22.315   8.541  0.00  0.00    -0.270 OA
BRANCH   7  12
ATOM     11  C   LIG    1       28.492 -20.899   7.261  0.00  0.00    +0.134 A 
ATOM     12  C   LIG    1       27.217 -21.327   6.850  0.00  0.00    +0.080 A 
ATOM     13  C   LIG    1       26.594 -20.626   5.781  0.00  0.00    +0.038 A 
ATOM     14  C   LIG    1       27.216 -19.541   5.150  0.00  0.00    +0.062 A 
ATOM     15 CL   LIG    1       26.401 -18.728   3.860  0.00  0.00    -0.082 Cl
ATOM     16  C   LIG    1       28.465 -19.094   5.581  0.00  0.00    +0.047 A 
ATOM     17  C   LIG    1       29.104 -19.825   6.583  0.00  0.00    +0.070 A 
BRANCH  16  18
ATOM     18  N   LIG    1       29.194 -18.085   4.927  0.00  0.00    -0.357 N 
ATOM     19  H   LIG    1       28.632 -17.556   4.264  0.00  0.00    +0.142 HD
ATOM     20  H   LIG    1       29.719 -17.483   5.555  0.00  0.00    +0.142 HD
ENDBRANCH  16  18
BRANCH  11  22
ATOM     21  C   LIG    1       30.520 -21.290   8.453  0.00  0.00    +0.277 C 
ATOM     22  O   LIG    1       29.110 -21.516   8.325  0.00  0.00    -0.494 OA
ENDBRANCH  11  22
ENDBRANCH   7  12
ENDBRANCH   1   8
BRANCH   2  23
ATOM     23  O   LIG    1       23.536 -23.707   6.007  0.00  0.00    -0.377 OA
ATOM     24  C   LIG    1       22.549 -23.083   6.831  0.00  0.00    +0.194 C 
ENDBRANCH   2  23
BRANCH   4  25
ATOM     25  C   LIG    1       24.490 -28.451   5.007  0.00  0.00    +0.088 C 
BRANCH  25  26
ATOM     26  C   LIG    1       25.148 -29.769   5.458  0.00  0.00    +0.056 C 
BRANCH  26  27
ATOM     27  C   LIG    1       24.657 -30.181   6.851  0.00  0.00    +0.230 C 
BRANCH  27  28
ATOM     28  O   LIG    1       25.765 -30.419   7.731  0.00  0.00    -0.492 OA
BRANCH  28  29
ATOM     29  C   LIG    1       25.717 -29.861   8.981  0.00  0.00    +0.121 A 
ATOM     30  C   LIG    1       26.693 -29.018   9.517  0.00  0.00    +0.048 A 
ATOM     31  C   LIG    1       26.572 -28.531  10.818  0.00  0.00    +0.042 A 
ATOM     32  C   LIG    1       25.455 -28.856  11.572  0.00  0.00    +0.124 A 
ATOM     33  F   LIG    1       25.348 -28.388  12.822  0.00  0.00    -0.205 F 
ATOM     34  C   LIG    1       24.447 -29.652  11.042  0.00  0.00    +0.042 A 
ATOM     35  C   LIG    1       24.575 -30.151   9.741  0.00  0.00    +0.048 A 
ENDBRANCH  28  29
ENDBRANCH  27  28
ENDBRANCH  26  27
ENDBRANCH  25  26
ENDBRANCH   4  25
TORSDOF 10
ENDMDL
MODEL 3
REMARK VINA RESULT:      -7.3      5.042     10.229
REMARK  Name = *****
REMARK                            x       y       z     vdW  Elec       q    Type
REMARK                         _______ _______ _______ _____ _____    ______ ____
ROOT
ATOM      1  C   LIG    1       24.847 -29.776   7.775  0.00  0.00    +0.104 C 
ATOM      2  C   LIG    1       24.578 -29.979   6.241  0.00  0.00    +0.152 C 
ATOM      3  C   LIG    1       24.576 -28.668   5.413  0.00  0.00    +0.117 C 
ATOM      4  N   LIG    1       25.719 -27.805   5.724  0.00  0.00    -0.300 NA
ATOM      5  C   LIG    1       25.576 -27.384   7.125  0.00  0.00    +0.086 C 
ATOM      6  C   LIG    1       25.773 -28.573   8.058  0.00  0.00    +0.040 C 
ENDROOT
BRANCH   1   8
ATOM      7  C   LIG    1       23.628 -30.456   9.855  0.00  0.00    +0.248 C 
ATOM      8  N   LIG    1       23.649 -29.749   8.650  0.00  0.00    -0.306 N 
ATOM      9  H   LIG    1       22.762 -29.482   8.230  0.00  0.00    +0.149 HD
ATOM     10  O   LIG    1       24.604 -31.068  10.257  0.00  0.00    -0.270 OA
BRANCH   7  12
ATOM     11  C   LIG    1       22.116 -29.678  11.836  0.00  0.00    +0.134 A 
ATOM     12  C   LIG    1       22.373 -30.465  10.699  0.00  0.00    +0.080 A 
ATOM     13  C   LIG    1       21.369 -31.384  10.286  0.00  0.00    +0.038 A 
ATOM     14  C   LIG    1       20.160 -31.514  10.981  0.00  0.00    +0.062 A 
ATOM     15 CL   LIG    1       18.983 -32.654  10.428  0.00  0.00    -0.082 Cl
ATOM     16  C   LIG    1       19.919 -30.760  12.129  0.00  0.00    +0.047 A 
ATOM     17  C   LIG    1       20.875 -29.811  12.492  0.00  0.00    +0.070 A 
BRANCH  16  18
ATOM     18  N   LIG    1       18.689 -30.759  12.811  0.00  0.00    -0.357 N 
ATOM     19  H   LIG    1       18.671 -31.407  13.595  0.00  0.00    +0.142 HD
ATOM     20  H   LIG    1       18.361 -29.832  13.067  0.00  0.00    +0.142 HD
ENDBRANCH  16  18
BRANCH  11  22
ATOM     21  C   LIG    1       22.615 -27.732  13.121  0.00  0.00    +0.277 C 
ATOM     22  O   LIG    1       23.080 -28.814  12.301  0.00  0.00    -0.494 OA
ENDBRANCH  11  22
ENDBRANCH   7  12
ENDBRANCH   1   8
BRANCH   2  23
ATOM     23  O   LIG    1       23.363 -30.729   6.033  0.00  0.00    -0.377 OA
ATOM     24  C   LIG    1       23.575 -32.139   5.952  0.00  0.00    +0.194 C 
ENDBRANCH   2  23
BRANCH   4  25
ATOM     25  C   LIG    1       25.851 -26.629   4.841  0.00  0.00    +0.088 C 
BRANCH  25  26
ATOM     26  C   LIG    1       24.782 -25.534   5.017  0.00  0.00    +0.056 C 
BRANCH  26  27
ATOM     27  C   LIG    1       25.375 -24.290   5.690  0.00  0.00    +0.230 C 
BRANCH  27  28
ATOM     28  O   LIG    1       24.358 -23.555   6.386  0.00  0.00    -0.492 OA
BRANCH  28  29
ATOM     29  C   LIG    1       24.020 -22.319   5.899  0.00  0.00    +0.121 A 
ATOM     30  C   LIG    1       23.123 -21.439   6.509  0.00  0.00    +0.048 A 
ATOM     31  C   LIG    1       22.814 -20.217   5.913  0.00  0.00    +0.042 A 
ATOM     32  C   LIG    1       23.430 -19.857   4.724  0.00  0.00    +0.124 A 
ATOM     33  F   LIG    1       23.124 -18.684   4.155  0.00  0.00    -0.205 F 
ATOM     34  C   LIG    1       24.362 -20.695   4.125  0.00  0.00    +0.042 A 
ATOM     35  C   LIG    1       24.662 -21.927   4.717  0.00  0.00    +0.048 A 
ENDBRANCH  28  29
ENDBRANCH  27  28
ENDBRANCH  26  27
ENDBRANCH  25  26
ENDBRANCH   4  25
TORSDOF 10
ENDMDL
MODEL 4
REMARK VINA RESULT:      -7.3      4.665     10.091
REMARK  Name = *****
REMARK                            x       y       z     vdW  Elec       q    Type
REMARK                         _______ _______ _______ _____ _____    ______ ____
ROOT
ATOM      1  C   LIG    1       24.715 -30.126   7.915  0.00  0.00    +0.104 C 
ATOM      2  C   LIG    1       24.483 -30.352   6.378  0.00  0.00    +0.152 C 
ATOM      3  C   LIG    1       24.541 -29.058   5.525  0.00  0.00    +0.117 C 
ATOM      4  N   LIG    1       25.699 -28.222   5.851  0.00  0.00    -0.300 NA
ATOM      5  C   LIG    1       25.531 -27.769   7.239  0.00  0.00    +0.086 C 
ATOM      6  C   LIG    1       25.668 -28.944   8.200  0.00  0.00    +0.040 C 
ENDROOT
BRANCH   1   8
ATOM      7  C   LIG    1       23.532 -30.414  10.104  0.00  0.00    +0.248 C 
ATOM      8  N   LIG    1       23.495 -30.047   8.755  0.00  0.00    -0.306 N 
ATOM      9  H   LIG    1       22.595 -30.030   8.283  0.00  0.00    +0.149 HD
ATOM     10  O   LIG    1       24.569 -30.752  10.649  0.00  0.00    -0.270 OA
BRANCH   7  12
ATOM     11  C   LIG    1       21.114 -31.175  10.729  0.00  0.00    +0.134 A 
ATOM     12  C   LIG    1       22.262 -30.385  10.924  0.00  0.00    +0.080 A 
ATOM     13  C   LIG    1       22.246 -29.443  11.989  0.00  0.00    +0.038 A 
ATOM     14  C   LIG    1       21.131 -29.293  12.823  0.00  0.00    +0.062 A 
ATOM     15 CL   LIG    1       21.176 -28.125  14.097  0.00  0.00    -0.082 Cl
ATOM     16  C   LIG    1       19.980 -30.050  12.608  0.00  0.00    +0.047 A 
ATOM     17  C   LIG    1       20.022 -31.021  11.608  0.00  0.00    +0.070 A 
BRANCH  16  18
ATOM     18  N   LIG    1       18.868 -30.030  13.469  0.00  0.00    -0.357 N 
ATOM     19  H   LIG    1       18.057 -30.505  13.080  0.00  0.00    +0.142 HD
ATOM     20  H   LIG    1       19.076 -30.332  14.416  0.00  0.00    +0.142 HD
ENDBRANCH  16  18
BRANCH  11  22
ATOM     21  C   LIG    1       21.317 -33.437  10.002  0.00  0.00    +0.277 C 
ATOM     22  O   LIG    1       21.066 -32.062   9.679  0.00  0.00    -0.494 OA
ENDBRANCH  11  22
ENDBRANCH   7  12
ENDBRANCH   1   8
BRANCH   2  23
ATOM     23  O   LIG    1       23.253 -31.071   6.152  0.00  0.00    -0.377 OA
ATOM     24  C   LIG    1       23.444 -32.474   5.960  0.00  0.00    +0.194 C 
ENDBRANCH   2  23
BRANCH   4  25
ATOM     25  C   LIG    1       25.889 -27.068   4.950  0.00  0.00    +0.088 C 
BRANCH  25  26
ATOM     26  C   LIG    1       26.251 -25.736   5.632  0.00  0.00    +0.056 C 
BRANCH  26  27
ATOM     27  C   LIG    1       25.172 -24.676   5.379  0.00  0.00    +0.230 C 
BRANCH  27  28
ATOM     28  O   LIG    1       25.377 -23.531   6.218  0.00  0.00    -0.492 OA
BRANCH  28  29
ATOM     29  C   LIG    1       24.611 -22.420   5.978  0.00  0.00    +0.121 A 
ATOM     30  C   LIG    1       24.399 -21.853   4.720  0.00  0.00    +0.048 A 
ATOM     31  C   LIG    1       23.634 -20.696   4.584  0.00  0.00    +0.042 A 
ATOM     32  C   LIG    1       23.047 -20.124   5.703  0.00  0.00    +0.124 A 
ATOM     33  F   LIG    1       22.317 -19.011   5.566  0.00  0.00    -0.205 F 
ATOM     34  C   LIG    1       23.203 -20.699   6.959  0.00  0.00    +0.042 A 
ATOM     35  C   LIG    1       23.982 -21.853   7.096  0.00  0.00    +0.048 A 
ENDBRANCH  28  29
ENDBRANCH  27  28
ENDBRANCH  26  27
ENDBRANCH  25  26
ENDBRANCH   4  25
TORSDOF 10
ENDMDL
MODEL 5
REMARK VINA RESULT:      -7.1      4.446      9.579
REMARK  Name = *****
REMARK                            x       y       z     vdW  Elec       q    Type
REMARK                         _______ _______ _______ _____ _____    ______ ____
ROOT
ATOM      1  C   LIG    1       24.697 -30.349   8.707  0.00  0.00    +0.104 C 
ATOM      2  C   LIG    1       24.419 -31.011   7.310  0.00  0.00    +0.152 C 
ATOM      3  C   LIG    1       24.327 -30.006   6.133  0.00  0.00    +0.117 C 
ATOM      4  N   LIG    1       25.422 -29.032   6.139  0.00  0.00    -0.300 NA
ATOM      5  C   LIG    1       25.276 -28.223   7.358  0.00  0.00    +0.086 C 
ATOM      6  C   LIG    1       25.556 -29.070   8.593  0.00  0.00    +0.040 C 
ENDROOT
BRANCH   1   8
ATOM      7  C   LIG    1       23.639 -30.103  10.964  0.00  0.00    +0.248 C 
ATOM      8  N   LIG    1       23.513 -30.125   9.572  0.00  0.00    -0.306 N 
ATOM      9  H   LIG    1       22.595 -30.301   9.173  0.00  0.00    +0.149 HD
ATOM     10  O   LIG    1       24.724 -30.206  11.512  0.00  0.00    -0.270 OA
BRANCH   7  12
ATOM     11  C   LIG    1       21.405 -30.895  12.058  0.00  0.00    +0.134 A 
ATOM     12  C   LIG    1       22.408 -29.937  11.827  0.00  0.00    +0.080 A 
ATOM     13  C   LIG    1       22.266 -28.664  12.445  0.00  0.00    +0.038 A 
ATOM     14  C   LIG    1       21.168 -28.360  13.260  0.00  0.00    +0.062 A 
ATOM     15 CL   LIG    1       21.054 -26.791  13.978  0.00  0.00    -0.082 Cl
ATOM     16  C   LIG    1       20.155 -29.297  13.460  0.00  0.00    +0.047 A 
ATOM     17  C   LIG    1       20.329 -30.566  12.909  0.00  0.00    +0.070 A 
BRANCH  16  18
ATOM     18  N   LIG    1       19.083 -29.099  14.348  0.00  0.00    -0.357 N 
ATOM     19  H   LIG    1       18.713 -28.152  14.320  0.00  0.00    +0.142 HD
ATOM     20  H   LIG    1       18.352 -29.801  14.274  0.00  0.00    +0.142 HD
ENDBRANCH  16  18
BRANCH  11  22
ATOM     21  C   LIG    1       20.630 -32.299  10.293  0.00  0.00    +0.277 C 
ATOM     22  O   LIG    1       21.475 -32.121  11.438  0.00  0.00    -0.494 OA
ENDBRANCH  11  22
ENDBRANCH   7  12
ENDBRANCH   1   8
BRANCH   2  23
ATOM     23  O   LIG    1       23.246 -31.850   7.372  0.00  0.00    -0.377 OA
ATOM     24  C   LIG    1       23.238 -32.883   6.385  0.00  0.00    +0.194 C 
ENDBRANCH   2  23
BRANCH   4  25
ATOM     25  C   LIG    1       25.472 -28.166   4.945  0.00  0.00    +0.088 C 
BRANCH  25  26
ATOM     26  C   LIG    1       26.065 -26.760   5.160  0.00  0.00    +0.056 C 
BRANCH  26  27
ATOM     27  C   LIG    1       25.043 -25.672   4.809  0.00  0.00    +0.230 C 
BRANCH  27  28
ATOM     28  O   LIG    1       24.196 -25.389   5.933  0.00  0.00    -0.492 OA
BRANCH  28  29
ATOM     29  C   LIG    1       24.327 -24.167   6.538  0.00  0.00    +0.121 A 
ATOM     30  C   LIG    1       23.279 -23.273   6.767  0.00  0.00    +0.048 A 
ATOM     31  C   LIG    1       23.522 -22.033   7.355  0.00  0.00    +0.042 A 
ATOM     32  C   LIG    1       24.809 -21.699   7.751  0.00  0.00    +0.124 A 
ATOM     33  F   LIG    1       25.035 -20.505   8.311  0.00  0.00    -0.205 F 
ATOM     34  C   LIG    1       25.858 -22.593   7.579  0.00  0.00    +0.042 A 
ATOM     35  C   LIG    1       25.616 -23.833   6.976  0.00  0.00    +0.048 A 
ENDBRANCH  28  29
ENDBRANCH  27  28
ENDBRANCH  26  27
ENDBRANCH  25  26
ENDBRANCH   4  25
TORSDOF 10
ENDMDL
MODEL 6
REMARK VINA RESULT:      -7.1      2.047      2.891
REMARK  Name = *****
REMARK                            x       y       z     vdW  Elec       q    Type
REMARK                         _______ _______ _______ _____ _____    ______ ____
ROOT
ATOM      1  C   LIG    1       25.536 -21.936   7.169  0.00  0.00    +0.104 C 
ATOM      2  C   LIG    1       24.714 -21.948   5.831  0.00  0.00    +0.152 C 
ATOM      3  C   LIG    1       24.837 -23.261   5.015  0.00  0.00    +0.117 C 
ATOM      4  N   LIG    1       24.668 -24.456   5.846  0.00  0.00    -0.300 NA
ATOM      5  C   LIG    1       25.784 -24.482   6.802  0.00  0.00    +0.086 C 
ATOM      6  C   LIG    1       25.651 -23.340   7.803  0.00  0.00    +0.040 C 
ENDROOT
BRANCH   1   8
ATOM      7  C   LIG    1       27.263 -20.413   8.155  0.00  0.00    +0.248 C 
ATOM      8  N   LIG    1       26.855 -21.260   7.120  0.00  0.00    -0.306 N 
ATOM      9  H   LIG    1       27.306 -21.167   6.214  0.00  0.00    +0.149 HD
ATOM     10  O   LIG    1       26.583 -20.248   9.154  0.00  0.00    -0.270 OA
BRANCH   7  12
ATOM     11  C   LIG    1       29.325 -19.443   6.881  0.00  0.00    +0.134 A 
ATOM     12  C   LIG    1       28.584 -19.685   8.052  0.00  0.00    +0.080 A 
ATOM     13  C   LIG    1       29.119 -19.219   9.285  0.00  0.00    +0.038 A 
ATOM     14  C   LIG    1       30.343 -18.541   9.347  0.00  0.00    +0.062 A 
ATOM     15 CL   LIG    1       30.939 -18.004  10.879  0.00  0.00    -0.082 Cl
ATOM     16  C   LIG    1       31.095 -18.332   8.191  0.00  0.00    +0.047 A 
ATOM     17  C   LIG    1       30.538 -18.729   6.976  0.00  0.00    +0.070 A 
BRANCH  16  18
ATOM     18  N   LIG    1       32.275 -17.568   8.163  0.00  0.00    -0.357 N 
ATOM     19  H   LIG    1       32.747 -17.533   9.064  0.00  0.00    +0.142 HD
ATOM     20  H   LIG    1       32.907 -17.813   7.406  0.00  0.00    +0.142 HD
ENDBRANCH  16  18
BRANCH  11  22
ATOM     21  C   LIG    1       28.097 -19.009   4.884  0.00  0.00    +0.277 C 
ATOM     22  O   LIG    1       28.871 -19.922   5.675  0.00  0.00    -0.494 OA
ENDBRANCH  11  22
ENDBRANCH   7  12
ENDBRANCH   1   8
BRANCH   2  23
ATOM     23  O   LIG    1       25.045 -20.799   5.022  0.00  0.00    -0.377 OA
ATOM     24  C   LIG    1       24.247 -20.689   3.842  0.00  0.00    +0.194 C 
ENDBRANCH   2  23
BRANCH   4  25
ATOM     25  C   LIG    1       24.608 -25.721   5.087  0.00  0.00    +0.088 C 
BRANCH  25  26
ATOM     26  C   LIG    1       25.915 -26.533   5.030  0.00  0.00    +0.056 C 
BRANCH  26  27
ATOM     27  C   LIG    1       25.652 -28.019   5.304  0.00  0.00    +0.230 C 
BRANCH  27  28
ATOM     28  O   LIG    1       24.669 -28.179   6.338  0.00  0.00    -0.492 OA
BRANCH  28  29
ATOM     29  C   LIG    1       25.090 -28.669   7.546  0.00  0.00    +0.121 A 
ATOM     30  C   LIG    1       26.158 -28.159   8.287  0.00  0.00    +0.048 A 
ATOM     31  C   LIG    1       26.535 -28.754   9.490  0.00  0.00    +0.042 A 
ATOM     32  C   LIG    1       25.818 -29.839   9.974  0.00  0.00    +0.124 A 
ATOM     33  F   LIG    1       26.189 -30.408  11.128  0.00  0.00    -0.205 F 
ATOM     34  C   LIG    1       24.721 -30.332   9.279  0.00  0.00    +0.042 A 
ATOM     35  C   LIG    1       24.352 -29.742   8.065  0.00  0.00    +0.048 A 
ENDBRANCH  28  29
ENDBRANCH  27  28
ENDBRANCH  26  27
ENDBRANCH  25  26
ENDBRANCH   4  25
TORSDOF 10
ENDMDL
MODEL 7
REMARK VINA RESULT:      -6.7      2.515      3.520
REMARK  Name = *****
REMARK                            x       y       z     vdW  Elec       q    Type
REMARK                         _______ _______ _______ _____ _____    ______ ____
ROOT
ATOM      1  C   LIG    1       25.496 -21.847   7.083  0.00  0.00    +0.104 C 
ATOM      2  C   LIG    1       24.725 -21.938   5.718  0.00  0.00    +0.152 C 
ATOM      3  C   LIG    1       24.871 -23.300   4.990  0.00  0.00    +0.117 C 
ATOM      4  N   LIG    1       24.663 -24.440   5.887  0.00  0.00    -0.300 NA
ATOM      5  C   LIG    1       25.741 -24.411   6.884  0.00  0.00    +0.086 C 
ATOM      6  C   LIG    1       25.578 -23.209   7.806  0.00  0.00    +0.040 C 
ENDROOT
BRANCH   1   8
ATOM      7  C   LIG    1       27.253 -20.383   8.108  0.00  0.00    +0.248 C 
ATOM      8  N   LIG    1       26.821 -21.180   7.043  0.00  0.00    -0.306 N 
ATOM      9  H   LIG    1       27.259 -21.052   6.135  0.00  0.00    +0.149 HD
ATOM     10  O   LIG    1       26.590 -20.256   9.124  0.00  0.00    -0.270 OA
BRANCH   7  12
ATOM     11  C   LIG    1       29.319 -19.404   6.848  0.00  0.00    +0.134 A 
ATOM     12  C   LIG    1       28.579 -19.663   8.016  0.00  0.00    +0.080 A 
ATOM     13  C   LIG    1       29.120 -19.225   9.257  0.00  0.00    +0.038 A 
ATOM     14  C   LIG    1       30.349 -18.557   9.329  0.00  0.00    +0.062 A 
ATOM     15 CL   LIG    1       30.952 -18.055  10.870  0.00  0.00    -0.082 Cl
ATOM     16  C   LIG    1       31.100 -18.332   8.176  0.00  0.00    +0.047 A 
ATOM     17  C   LIG    1       30.537 -18.700   6.954  0.00  0.00    +0.070 A 
BRANCH  16  18
ATOM     18  N   LIG    1       32.286 -17.575   8.160  0.00  0.00    -0.357 N 
ATOM     19  H   LIG    1       32.816 -17.652   9.025  0.00  0.00    +0.142 HD
ATOM     20  H   LIG    1       32.862 -17.731   7.338  0.00  0.00    +0.142 HD
ENDBRANCH  16  18
BRANCH  11  22
ATOM     21  C   LIG    1       28.082 -18.924   4.867  0.00  0.00    +0.277 C 
ATOM     22  O   LIG    1       28.859 -19.855   5.634  0.00  0.00    -0.494 OA
ENDBRANCH  11  22
ENDBRANCH   7  12
ENDBRANCH   1   8
BRANCH   2  23
ATOM     23  O   LIG    1       25.095 -20.843   4.853  0.00  0.00    -0.377 OA
ATOM     24  C   LIG    1       24.238 -20.705   3.718  0.00  0.00    +0.194 C 
ENDBRANCH   2  23
BRANCH   4  25
ATOM     25  C   LIG    1       24.623 -25.749   5.205  0.00  0.00    +0.088 C 
BRANCH  25  26
ATOM     26  C   LIG    1       24.445 -26.976   6.119  0.00  0.00    +0.056 C 
BRANCH  26  27
ATOM     27  C   LIG    1       24.501 -28.277   5.310  0.00  0.00    +0.230 C 
BRANCH  27  28
ATOM     28  O   LIG    1       25.319 -29.253   5.972  0.00  0.00    -0.492 OA
BRANCH  28  29
ATOM     29  C   LIG    1       24.685 -30.244   6.675  0.00  0.00    +0.121 A 
ATOM     30  C   LIG    1       24.266 -31.463   6.137  0.00  0.00    +0.048 A 
ATOM     31  C   LIG    1       23.592 -32.392   6.927  0.00  0.00    +0.042 A 
ATOM     32  C   LIG    1       23.369 -32.120   8.269  0.00  0.00    +0.124 A 
ATOM     33  F   LIG    1       22.717 -33.015   9.021  0.00  0.00    -0.205 F 
ATOM     34  C   LIG    1       23.821 -30.936   8.838  0.00  0.00    +0.042 A 
ATOM     35  C   LIG    1       24.486 -29.998   8.041  0.00  0.00    +0.048 A 
ENDBRANCH  28  29
ENDBRANCH  27  28
ENDBRANCH  26  27
ENDBRANCH  25  26
ENDBRANCH   4  25
TORSDOF 10
ENDMDL
MODEL 8
REMARK VINA RESULT:      -6.6      4.391     10.132
REMARK  Name = *****
REMARK                            x       y       z     vdW  Elec       q    Type
REMARK                         _______ _______ _______ _____ _____    ______ ____
ROOT
ATOM      1  C   LIG    1       25.452 -28.885   7.411  0.00  0.00    +0.104 C 
ATOM      2  C   LIG    1       24.734 -28.883   6.014  0.00  0.00    +0.152 C 
ATOM      3  C   LIG    1       24.329 -27.475   5.505  0.00  0.00    +0.117 C 
ATOM      4  N   LIG    1       25.413 -26.498   5.636  0.00  0.00    -0.300 NA
ATOM      5  C   LIG    1       25.678 -26.334   7.073  0.00  0.00    +0.086 C 
ATOM      6  C   LIG    1       26.286 -27.608   7.648  0.00  0.00    +0.040 C 
ENDROOT
BRANCH   1   8
ATOM      7  C   LIG    1       24.787 -30.369   9.317  0.00  0.00    +0.248 C 
ATOM      8  N   LIG    1       24.597 -29.194   8.584  0.00  0.00    -0.306 N 
ATOM      9  H   LIG    1       23.702 -28.718   8.655  0.00  0.00    +0.149 HD
ATOM     10  O   LIG    1       25.689 -31.148   9.059  0.00  0.00    -0.270 OA
BRANCH   7  12
ATOM     11  C   LIG    1       22.675 -31.444  10.414  0.00  0.00    +0.134 A 
ATOM     12  C   LIG    1       23.863 -30.692  10.470  0.00  0.00    +0.080 A 
ATOM     13  C   LIG    1       24.250 -30.154  11.728  0.00  0.00    +0.038 A 
ATOM     14  C   LIG    1       23.483 -30.357  12.883  0.00  0.00    +0.062 A 
ATOM     15 CL   LIG    1       24.008 -29.671  14.381  0.00  0.00    -0.082 Cl
ATOM     16  C   LIG    1       22.288 -31.072  12.821  0.00  0.00    +0.047 A 
ATOM     17  C   LIG    1       21.945 -31.656  11.602  0.00  0.00    +0.070 A 
BRANCH  16  18
ATOM     18  N   LIG    1       21.526 -31.406  13.955  0.00  0.00    -0.357 N 
ATOM     19  H   LIG    1       21.243 -32.383  13.969  0.00  0.00    +0.142 HD
ATOM     20  H   LIG    1       21.945 -31.112  14.833  0.00  0.00    +0.142 HD
ENDBRANCH  16  18
BRANCH  11  22
ATOM     21  C   LIG    1       22.200 -33.368   9.088  0.00  0.00    +0.277 C 
ATOM     22  O   LIG    1       22.236 -31.939   9.208  0.00  0.00    -0.494 OA
ENDBRANCH  11  22
ENDBRANCH   7  12
ENDBRANCH   1   8
BRANCH   2  23
ATOM     23  O   LIG    1       23.602 -29.779   6.024  0.00  0.00    -0.377 OA
ATOM     24  C   LIG    1       23.965 -31.151   5.859  0.00  0.00    +0.194 C 
ENDBRANCH   2  23
BRANCH   4  25
ATOM     25  C   LIG    1       25.132 -25.191   5.009  0.00  0.00    +0.088 C 
BRANCH  25  26
ATOM     26  C   LIG    1       24.593 -24.097   5.950  0.00  0.00    +0.056 C 
BRANCH  26  27
ATOM     27  C   LIG    1       25.711 -23.137   6.375  0.00  0.00    +0.230 C 
BRANCH  27  28
ATOM     28  O   LIG    1       25.163 -21.910   6.880  0.00  0.00    -0.492 OA
BRANCH  28  29
ATOM     29  C   LIG    1       24.565 -21.064   5.984  0.00  0.00    +0.121 A 
ATOM     30  C   LIG    1       25.157 -20.597   4.808  0.00  0.00    +0.048 A 
ATOM     31  C   LIG    1       24.479 -19.704   3.980  0.00  0.00    +0.042 A 
ATOM     32  C   LIG    1       23.191 -19.305   4.306  0.00  0.00    +0.124 A 
ATOM     33  F   LIG    1       22.549 -18.444   3.508  0.00  0.00    -0.205 F 
ATOM     34  C   LIG    1       22.563 -19.796   5.444  0.00  0.00    +0.042 A 
ATOM     35  C   LIG    1       23.249 -20.682   6.282  0.00  0.00    +0.048 A 
ENDBRANCH  28  29
ENDBRANCH  27  28
ENDBRANCH  26  27
ENDBRANCH  25  26
ENDBRANCH   4  25
TORSDOF 10
ENDMDL
MODEL 9
REMARK VINA RESULT:      -6.6      4.718     10.131
REMARK  Name = *****
REMARK                            x       y       z     vdW  Elec       q    Type
REMARK                         _______ _______ _______ _____ _____    ______ ____
ROOT
ATOM      1  C   LIG    1       24.811 -30.204   8.111  0.00  0.00    +0.104 C 
ATOM      2  C   LIG    1       24.479 -30.478   6.601  0.00  0.00    +0.152 C 
ATOM      3  C   LIG    1       24.448 -29.208   5.712  0.00  0.00    +0.117 C 
ATOM      4  N   LIG    1       25.606 -28.338   5.934  0.00  0.00    -0.300 NA
ATOM      5  C   LIG    1       25.523 -27.850   7.318  0.00  0.00    +0.086 C 
ATOM      6  C   LIG    1       25.753 -28.995   8.298  0.00  0.00    +0.040 C 
ENDROOT
BRANCH   1   8
ATOM      7  C   LIG    1       23.448 -31.106  10.010  0.00  0.00    +0.248 C 
ATOM      8  N   LIG    1       23.650 -30.128   9.032  0.00  0.00    -0.306 N 
ATOM      9  H   LIG    1       22.859 -29.556   8.750  0.00  0.00    +0.149 HD
ATOM     10  O   LIG    1       24.242 -32.017  10.180  0.00  0.00    -0.270 OA
BRANCH   7  12
ATOM     11  C   LIG    1       22.200 -30.888  12.293  0.00  0.00    +0.134 A 
ATOM     12  C   LIG    1       22.224 -31.042  10.895  0.00  0.00    +0.080 A 
ATOM     13  C   LIG    1       20.978 -31.166  10.219  0.00  0.00    +0.038 A 
ATOM     14  C   LIG    1       19.760 -31.140  10.910  0.00  0.00    +0.062 A 
ATOM     15 CL   LIG    1       18.281 -31.301  10.028  0.00  0.00    -0.082 Cl
ATOM     16  C   LIG    1       19.738 -31.024  12.300  0.00  0.00    +0.047 A 
ATOM     17  C   LIG    1       20.955 -30.833  12.953  0.00  0.00    +0.070 A 
BRANCH  16  18
ATOM     18  N   LIG    1       18.554 -30.882  13.045  0.00  0.00    -0.357 N 
ATOM     19  H   LIG    1       17.717 -31.077  12.501  0.00  0.00    +0.142 HD
ATOM     20  H   LIG    1       18.563 -31.380  13.931  0.00  0.00    +0.142 HD
ENDBRANCH  16  18
BRANCH  11  22
ATOM     21  C   LIG    1       23.820 -29.500  13.359  0.00  0.00    +0.277 C 
ATOM     22  O   LIG    1       23.382 -30.816  12.992  0.00  0.00    -0.494 OA
ENDBRANCH  11  22
ENDBRANCH   7  12
ENDBRANCH   1   8
BRANCH   2  23
ATOM     23  O   LIG    1       23.253 -31.229   6.479  0.00  0.00    -0.377 OA
ATOM     24  C   LIG    1       23.462 -32.606   6.158  0.00  0.00    +0.194 C 
ENDBRANCH   2  23
BRANCH   4  25
ATOM     25  C   LIG    1       25.706 -27.207   4.992  0.00  0.00    +0.088 C 
BRANCH  25  26
ATOM     26  C   LIG    1       25.895 -25.817   5.629  0.00  0.00    +0.056 C 
BRANCH  26  27
ATOM     27  C   LIG    1       24.982 -24.779   4.965  0.00  0.00    +0.230 C 
BRANCH  27  28
ATOM     28  O   LIG    1       24.346 -23.954   5.953  0.00  0.00    -0.492 OA
BRANCH  28  29
ATOM     29  C   LIG    1       25.041 -22.869   6.419  0.00  0.00    +0.121 A 
ATOM     30  C   LIG    1       25.236 -21.682   5.711  0.00  0.00    +0.048 A 
ATOM     31  C   LIG    1       25.994 -20.647   6.257  0.00  0.00    +0.042 A 
ATOM     32  C   LIG    1       26.527 -20.784   7.530  0.00  0.00    +0.124 A 
ATOM     33  F   LIG    1       27.258 -19.788   8.047  0.00  0.00    -0.205 F 
ATOM     34  C   LIG    1       26.304 -21.936   8.274  0.00  0.00    +0.042 A 
ATOM     35  C   LIG    1       25.554 -22.979   7.719  0.00  0.00    +0.048 A 
ENDBRANCH  28  29
ENDBRANCH  27  28
ENDBRANCH  26  27
ENDBRANCH  25  26
ENDBRANCH   4  25
TORSDOF 10
ENDMDL
