MODEL 1
REMARK VINA RESULT:      -1.6      0.000      0.000
REMARK  Name = *****
REMARK                            x       y       z     vdW  Elec       q    Type
REMARK                         _______ _______ _______ _____ _____    ______ ____
ROOT
ATOM      1  C   LIG    1       24.505 -29.851   8.293  0.00  0.00    +0.104 C 
ATOM      2  N   LIG    1       25.531 -28.896   8.789  0.00  0.00    -0.316 N 
ATOM      3  C   LIG    1       26.397 -28.607   7.598  0.00  0.00    +0.104 C 
ATOM      4  C   LIG    1       26.366 -29.930   6.792  0.00  0.00    +0.029 C 
ATOM      5  C   LIG    1       25.353 -30.831   7.487  0.00  0.00    +0.029 C 
ENDROOT
BRANCH   1   9
ATOM      6  C   LIG    1       21.349 -31.276  10.932  0.00  0.00    +0.034 A 
ATOM      7  C   LIG    1       21.736 -32.042   9.825  0.00  0.00    +0.023 A 
ATOM      8  C   LIG    1       22.779 -31.618   8.987  0.00  0.00    +0.007 A 
ATOM      9  C   LIG    1       23.466 -30.417   9.233  0.00  0.00    -0.027 A 
ATOM     10  C   LIG    1       23.113 -29.693  10.378  0.00  0.00    +0.007 A 
ATOM     11  C   LIG    1       22.090 -30.133  11.228  0.00  0.00    +0.023 A 
BRANCH   6  13
ATOM     12  C   LIG    1       20.163 -32.631  12.683  0.00  0.00    +0.238 C 
ATOM     13  N   LIG    1       20.204 -31.680  11.666  0.00  0.00    -0.284 N 
ATOM     14  H   LIG    1       19.335 -31.227  11.414  0.00  0.00    +0.155 HD
ATOM     15  O   LIG    1       21.126 -33.273  13.103  0.00  0.00    -0.273 OA
BRANCH  12  18
ATOM     16  C   LIG    1       18.721 -30.885  14.903  0.00  0.00    +0.237 C 
ATOM     17  N   LIG    1       18.225 -31.508  13.775  0.00  0.00    -0.288 N 
ATOM     18  C   LIG    1       18.774 -32.799  13.343  0.00  0.00    +0.162 C 
ATOM     19  C   LIG    1       17.755 -33.309  12.304  0.00  0.00    +0.033 C 
ATOM     20  C   LIG    1       16.498 -32.486  12.566  0.00  0.00    +0.021 C 
ATOM     21  C   LIG    1       17.064 -31.147  12.978  0.00  0.00    +0.109 C 
ATOM     22  O   LIG    1       19.734 -31.319  15.465  0.00  0.00    -0.274 OA
BRANCH  16  23
ATOM     23  C   LIG    1       17.972 -29.636  15.451  0.00  0.00    +0.165 C 
BRANCH  23  25
ATOM     24  C   LIG    1       19.688 -28.144  14.484  0.00  0.00    +0.401 C 
ATOM     25  N   LIG    1       18.373 -28.495  14.623  0.00  0.00    -0.270 N 
ATOM     26  H   LIG    1       17.773 -28.222  13.855  0.00  0.00    +0.153 HD
ATOM     27  O   LIG    1       20.589 -28.502  15.214  0.00  0.00    -0.227 OA
BRANCH  24  29
ATOM     28  C   LIG    1       20.755 -26.269  13.570  0.00  0.00    +0.282 C 
ATOM     29  O   LIG    1       19.825 -27.342  13.394  0.00  0.00    -0.454 OA
ENDBRANCH  24  29
ENDBRANCH  23  25
BRANCH  23  30
ATOM     30  C   LIG    1       16.437 -29.819  15.445  0.00  0.00    +0.012 C 
ATOM     31  C   LIG    1       16.067 -31.307  15.500  0.00  0.00    +0.009 C 
ATOM     32  C   LIG    1       15.775 -29.206  14.208  0.00  0.00    +0.009 C 
ENDBRANCH  23  30
ENDBRANCH  16  23
ENDBRANCH  12  18
ENDBRANCH   6  13
ENDBRANCH   1   9
BRANCH   2  33
ATOM     33  C   LIG    1       26.206 -28.960  10.011  0.00  0.00    +0.031 A 
ATOM     34  C   LIG    1       25.921 -28.033  11.026  0.00  0.00    +0.023 A 
ATOM     35  C   LIG    1       26.578 -28.016  12.258  0.00  0.00    +0.006 A 
ATOM     36  C   LIG    1       27.501 -29.002  12.604  0.00  0.00    -0.042 A 
ATOM     37  C   LIG    1       27.770 -29.964  11.626  0.00  0.00    +0.006 A 
ATOM     38  C   LIG    1       27.138 -29.936  10.368  0.00  0.00    +0.023 A 
BRANCH  36  39
ATOM     39  C   LIG    1       28.175 -29.013  13.978  0.00  0.00    -0.013 C 
ATOM     40  C   LIG    1       28.077 -27.605  14.592  0.00  0.00    +0.015 C 
ATOM     41  C   LIG    1       29.667 -29.407  13.907  0.00  0.00    +0.015 C 
ATOM     42  C   LIG    1       27.496 -30.028  14.928  0.00  0.00    +0.015 C 
ENDBRANCH  36  39
ENDBRANCH   2  33
BRANCH   3  43
ATOM     43  C   LIG    1       25.910 -27.360   6.860  0.00  0.00    -0.027 A 
ATOM     44  C   LIG    1       26.232 -26.067   7.296  0.00  0.00    +0.007 A 
ATOM     45  C   LIG    1       25.817 -24.932   6.579  0.00  0.00    +0.023 A 
ATOM     46  C   LIG    1       25.015 -25.056   5.437  0.00  0.00    +0.034 A 
ATOM     47  C   LIG    1       24.604 -26.333   5.064  0.00  0.00    +0.023 A 
ATOM     48  C   LIG    1       25.046 -27.465   5.760  0.00  0.00    +0.007 A 
BRANCH  46  49
ATOM     49  N   LIG    1       24.664 -23.882   4.724  0.00  0.00    -0.284 N 
ATOM     50  H   LIG    1       24.673 -23.966   3.714  0.00  0.00    +0.155 HD
ATOM     51  C   LIG    1       24.280 -22.646   5.269  0.00  0.00    +0.238 C 
ATOM     52  O   LIG    1       24.172 -22.400   6.467  0.00  0.00    -0.273 OA
BRANCH  51  53
ATOM     53  C   LIG    1       24.042 -21.558   4.186  0.00  0.00    +0.162 C 
ATOM     54  N   LIG    1       23.662 -20.206   4.616  0.00  0.00    -0.288 N 
ATOM     55  C   LIG    1       22.383 -19.967   5.109  0.00  0.00    +0.237 C 
ATOM     56  O   LIG    1       21.691 -20.893   5.539  0.00  0.00    -0.274 OA
ATOM     57  C   LIG    1       24.516 -19.199   4.022  0.00  0.00    +0.109 C 
ATOM     58  C   LIG    1       25.769 -19.920   3.591  0.00  0.00    +0.021 C 
ATOM     59  C   LIG    1       25.311 -21.351   3.338  0.00  0.00    +0.033 C 
BRANCH  55  60
ATOM     60  C   LIG    1       21.809 -18.513   4.974  0.00  0.00    +0.165 C 
BRANCH  60  61
ATOM     61  N   LIG    1       22.942 -17.612   4.715  0.00  0.00    -0.270 N 
ATOM     62  H   LIG    1       23.842 -17.986   4.426  0.00  0.00    +0.153 HD
ATOM     63  C   LIG    1       22.858 -16.264   4.825  0.00  0.00    +0.401 C 
ATOM     64  O   LIG    1       21.917 -15.656   5.371  0.00  0.00    -0.227 OA
BRANCH  63  65
ATOM     65  O   LIG    1       23.889 -15.667   4.201  0.00  0.00    -0.454 OA
ATOM     66  C   LIG    1       23.852 -14.241   4.305  0.00  0.00    +0.282 C 
ENDBRANCH  63  65
ENDBRANCH  60  61
BRANCH  60  67
ATOM     67  C   LIG    1       20.716 -18.403   3.858  0.00  0.00    +0.012 C 
ATOM     68  C   LIG    1       19.702 -19.562   3.789  0.00  0.00    +0.009 C 
ATOM     69  C   LIG    1       21.381 -18.290   2.477  0.00  0.00    +0.009 C 
ENDBRANCH  60  67
ENDBRANCH  55  60
ENDBRANCH  51  53
ENDBRANCH  46  49
ENDBRANCH   3  43
TORSDOF 16
ENDMDL
MODEL 2
REMARK VINA RESULT:      -1.5      2.708     12.584
REMARK  Name = *****
REMARK                            x       y       z     vdW  Elec       q    Type
REMARK                         _______ _______ _______ _____ _____    ______ ____
ROOT
ATOM      1  C   LIG    1       25.797 -29.182   9.060  0.00  0.00    +0.104 C 
ATOM      2  N   LIG    1       25.396 -30.557   8.662  0.00  0.00    -0.316 N 
ATOM      3  C   LIG    1       25.813 -31.429   9.809  0.00  0.00    +0.104 C 
ATOM      4  C   LIG    1       27.078 -30.726  10.363  0.00  0.00    +0.029 C 
ATOM      5  C   LIG    1       27.205 -29.412   9.603  0.00  0.00    +0.029 C 
ENDROOT
BRANCH   1   9
ATOM      6  C   LIG    1       24.961 -25.750   6.514  0.00  0.00    +0.034 A 
ATOM      7  C   LIG    1       26.167 -25.821   7.221  0.00  0.00    +0.023 A 
ATOM      8  C   LIG    1       26.472 -26.939   8.014  0.00  0.00    +0.007 A 
ATOM      9  C   LIG    1       25.578 -28.018   8.122  0.00  0.00    -0.027 A 
ATOM     10  C   LIG    1       24.405 -27.964   7.359  0.00  0.00    +0.007 A 
ATOM     11  C   LIG    1       24.117 -26.860   6.548  0.00  0.00    +0.023 A 
BRANCH   6  13
ATOM     12  C   LIG    1       23.668 -23.620   6.203  0.00  0.00    +0.238 C 
ATOM     13  N   LIG    1       24.643 -24.545   5.837  0.00  0.00    -0.284 N 
ATOM     14  H   LIG    1       25.184 -24.350   5.003  0.00  0.00    +0.155 HD
ATOM     15  O   LIG    1       22.925 -23.710   7.180  0.00  0.00    -0.273 OA
BRANCH  12  18
ATOM     16  C   LIG    1       25.304 -20.907   6.352  0.00  0.00    +0.237 C 
ATOM     17  N   LIG    1       24.900 -21.664   5.271  0.00  0.00    -0.288 N 
ATOM     18  C   LIG    1       23.610 -22.365   5.300  0.00  0.00    +0.162 C 
ATOM     19  C   LIG    1       23.377 -22.780   3.834  0.00  0.00    +0.033 C 
ATOM     20  C   LIG    1       24.324 -21.894   3.031  0.00  0.00    +0.021 C 
ATOM     21  C   LIG    1       25.512 -21.764   3.956  0.00  0.00    +0.109 C 
ATOM     22  O   LIG    1       24.669 -20.941   7.414  0.00  0.00    -0.274 OA
BRANCH  16  23
ATOM     23  C   LIG    1       26.565 -20.009   6.199  0.00  0.00    +0.165 C 
BRANCH  23  25
ATOM     24  C   LIG    1       28.413 -20.503   7.764  0.00  0.00    +0.401 C 
ATOM     25  N   LIG    1       27.718 -20.808   6.626  0.00  0.00    -0.270 N 
ATOM     26  H   LIG    1       27.762 -21.779   6.343  0.00  0.00    +0.153 HD
ATOM     27  O   LIG    1       28.369 -19.441   8.348  0.00  0.00    -0.227 OA
BRANCH  24  29
ATOM     28  C   LIG    1       30.415 -21.253   8.724  0.00  0.00    +0.282 C 
ATOM     29  O   LIG    1       29.150 -21.583   8.142  0.00  0.00    -0.454 OA
ENDBRANCH  24  29
ENDBRANCH  23  25
BRANCH  23  30
ATOM     30  C   LIG    1       26.749 -19.490   4.755  0.00  0.00    +0.012 C 
ATOM     31  C   LIG    1       28.044 -18.676   4.632  0.00  0.00    +0.009 C 
ATOM     32  C   LIG    1       25.584 -18.612   4.291  0.00  0.00    +0.009 C 
ENDBRANCH  23  30
ENDBRANCH  16  23
ENDBRANCH  12  18
ENDBRANCH   6  13
ENDBRANCH   1   9
BRANCH   2  33
ATOM     33  C   LIG    1       25.541 -31.133   7.397  0.00  0.00    +0.031 A 
ATOM     34  C   LIG    1       24.449 -31.194   6.517  0.00  0.00    +0.023 A 
ATOM     35  C   LIG    1       24.511 -31.784   5.253  0.00  0.00    +0.006 A 
ATOM     36  C   LIG    1       25.713 -32.264   4.734  0.00  0.00    -0.042 A 
ATOM     37  C   LIG    1       26.826 -32.175   5.573  0.00  0.00    +0.006 A 
ATOM     38  C   LIG    1       26.735 -31.626   6.867  0.00  0.00    +0.023 A 
BRANCH  36  39
ATOM     39  C   LIG    1       25.789 -32.857   3.324  0.00  0.00    -0.013 C 
ATOM     40  C   LIG    1       24.492 -33.637   3.041  0.00  0.00    +0.015 C 
ATOM     41  C   LIG    1       26.982 -33.821   3.147  0.00  0.00    +0.015 C 
ATOM     42  C   LIG    1       25.956 -31.748   2.258  0.00  0.00    +0.015 C 
ENDBRANCH  36  39
ENDBRANCH   2  33
BRANCH   3  43
ATOM     43  C   LIG    1       24.662 -31.615  10.798  0.00  0.00    -0.027 A 
ATOM     44  C   LIG    1       24.282 -30.606  11.693  0.00  0.00    +0.007 A 
ATOM     45  C   LIG    1       23.190 -30.776  12.562  0.00  0.00    +0.023 A 
ATOM     46  C   LIG    1       22.485 -31.985  12.604  0.00  0.00    +0.034 A 
ATOM     47  C   LIG    1       22.928 -33.027  11.794  0.00  0.00    +0.023 A 
ATOM     48  C   LIG    1       23.995 -32.845  10.904  0.00  0.00    +0.007 A 
BRANCH  46  49
ATOM     49  N   LIG    1       21.363 -32.088  13.464  0.00  0.00    -0.284 N 
ATOM     50  H   LIG    1       20.474 -31.830  13.054  0.00  0.00    +0.155 HD
ATOM     51  C   LIG    1       21.359 -32.534  14.796  0.00  0.00    +0.238 C 
ATOM     52  O   LIG    1       22.341 -32.926  15.418  0.00  0.00    -0.273 OA
BRANCH  51  53
ATOM     53  C   LIG    1       19.956 -32.439  15.459  0.00  0.00    +0.162 C 
ATOM     54  N   LIG    1       18.949 -31.557  14.854  0.00  0.00    -0.288 N 
ATOM     55  C   LIG    1       19.075 -30.176  14.970  0.00  0.00    +0.237 C 
ATOM     56  O   LIG    1       20.166 -29.663  15.230  0.00  0.00    -0.274 OA
ATOM     57  C   LIG    1       17.700 -32.253  14.628  0.00  0.00    +0.109 C 
ATOM     58  C   LIG    1       18.039 -33.723  14.626  0.00  0.00    +0.021 C 
ATOM     59  C   LIG    1       19.283 -33.823  15.500  0.00  0.00    +0.033 C 
BRANCH  55  60
ATOM     60  C   LIG    1       17.766 -29.315  14.891  0.00  0.00    +0.165 C 
BRANCH  60  61
ATOM     61  N   LIG    1       18.171 -27.905  14.781  0.00  0.00    -0.270 N 
ATOM     62  H   LIG    1       19.123 -27.624  14.996  0.00  0.00    +0.153 HD
ATOM     63  C   LIG    1       17.328 -26.921  14.382  0.00  0.00    +0.401 C 
ATOM     64  O   LIG    1       16.091 -27.041  14.293  0.00  0.00    -0.227 OA
BRANCH  63  65
ATOM     65  O   LIG    1       18.013 -25.820  14.024  0.00  0.00    -0.454 OA
ATOM     66  C   LIG    1       19.317 -26.116  13.517  0.00  0.00    +0.282 C 
ENDBRANCH  63  65
ENDBRANCH  60  61
BRANCH  60  67
ATOM     67  C   LIG    1       16.839 -29.744  13.704  0.00  0.00    +0.012 C 
ATOM     68  C   LIG    1       15.873 -30.911  13.990  0.00  0.00    +0.009 C 
ATOM     69  C   LIG    1       17.689 -30.138  12.485  0.00  0.00    +0.009 C 
ENDBRANCH  60  67
ENDBRANCH  55  60
ENDBRANCH  51  53
ENDBRANCH  46  49
ENDBRANCH   3  43
TORSDOF 16
ENDMDL
MODEL 3
REMARK VINA RESULT:      -0.5      2.211     12.534
REMARK  Name = *****
REMARK                            x       y       z     vdW  Elec       q    Type
REMARK                         _______ _______ _______ _____ _____    ______ ____
ROOT
ATOM      1  C   LIG    1       25.561 -29.586   9.188  0.00  0.00    +0.104 C 
ATOM      2  N   LIG    1       25.001 -30.833   8.605  0.00  0.00    -0.316 N 
ATOM      3  C   LIG    1       24.986 -31.816   9.739  0.00  0.00    +0.104 C 
ATOM      4  C   LIG    1       26.211 -31.407  10.595  0.00  0.00    +0.029 C 
ATOM      5  C   LIG    1       26.747 -30.118   9.986  0.00  0.00    +0.029 C 
ENDROOT
BRANCH   1   9
ATOM      6  C   LIG    1       26.127 -25.916   6.913  0.00  0.00    +0.034 A 
ATOM      7  C   LIG    1       27.206 -26.781   7.127  0.00  0.00    +0.023 A 
ATOM      8  C   LIG    1       27.034 -27.988   7.823  0.00  0.00    +0.007 A 
ATOM      9  C   LIG    1       25.776 -28.364   8.323  0.00  0.00    -0.027 A 
ATOM     10  C   LIG    1       24.692 -27.522   8.046  0.00  0.00    +0.007 A 
ATOM     11  C   LIG    1       24.862 -26.333   7.328  0.00  0.00    +0.023 A 
BRANCH   6  13
ATOM     12  C   LIG    1       26.328 -23.414   6.961  0.00  0.00    +0.238 C 
ATOM     13  N   LIG    1       26.380 -24.651   6.324  0.00  0.00    -0.284 N 
ATOM     14  H   LIG    1       26.618 -24.661   5.340  0.00  0.00    +0.155 HD
ATOM     15  O   LIG    1       26.051 -23.228   8.146  0.00  0.00    -0.273 OA
BRANCH  12  18
ATOM     16  C   LIG    1       24.523 -21.321   5.405  0.00  0.00    +0.237 C 
ATOM     17  N   LIG    1       25.709 -21.160   6.094  0.00  0.00    -0.288 N 
ATOM     18  C   LIG    1       26.728 -22.217   6.065  0.00  0.00    +0.162 C 
ATOM     19  C   LIG    1       27.990 -21.535   6.629  0.00  0.00    +0.033 C 
ATOM     20  C   LIG    1       27.703 -20.041   6.507  0.00  0.00    +0.021 C 
ATOM     21  C   LIG    1       26.215 -19.972   6.760  0.00  0.00    +0.109 C 
ATOM     22  O   LIG    1       24.235 -22.411   4.896  0.00  0.00    -0.274 OA
BRANCH  16  23
ATOM     23  C   LIG    1       23.567 -20.099   5.279  0.00  0.00    +0.165 C 
BRANCH  23  25
ATOM     24  C   LIG    1       24.828 -19.121   3.392  0.00  0.00    +0.401 C 
ATOM     25  N   LIG    1       24.336 -19.013   4.663  0.00  0.00    -0.270 N 
ATOM     26  H   LIG    1       24.168 -18.065   4.979  0.00  0.00    +0.153 HD
ATOM     27  O   LIG    1       24.957 -20.159   2.777  0.00  0.00    -0.227 OA
BRANCH  24  29
ATOM     28  C   LIG    1       26.360 -17.349   3.445  0.00  0.00    +0.282 C 
ATOM     29  O   LIG    1       25.139 -17.883   2.924  0.00  0.00    -0.454 OA
ENDBRANCH  24  29
ENDBRANCH  23  25
BRANCH  23  30
ATOM     30  C   LIG    1       22.300 -20.424   4.456  0.00  0.00    +0.012 C 
ATOM     31  C   LIG    1       21.440 -19.167   4.266  0.00  0.00    +0.009 C 
ATOM     32  C   LIG    1       21.433 -21.503   5.110  0.00  0.00    +0.009 C 
ENDBRANCH  23  30
ENDBRANCH  16  23
ENDBRANCH  12  18
ENDBRANCH   6  13
ENDBRANCH   1   9
BRANCH   2  33
ATOM     33  C   LIG    1       25.304 -31.376   7.355  0.00  0.00    +0.031 A 
ATOM     34  C   LIG    1       24.781 -30.799   6.186  0.00  0.00    +0.023 A 
ATOM     35  C   LIG    1       25.013 -31.307   4.906  0.00  0.00    +0.006 A 
ATOM     36  C   LIG    1       25.882 -32.377   4.696  0.00  0.00    -0.042 A 
ATOM     37  C   LIG    1       26.452 -32.942   5.840  0.00  0.00    +0.006 A 
ATOM     38  C   LIG    1       26.165 -32.452   7.128  0.00  0.00    +0.023 A 
BRANCH  36  39
ATOM     39  C   LIG    1       26.180 -32.893   3.286  0.00  0.00    -0.013 C 
ATOM     40  C   LIG    1       26.307 -31.691   2.332  0.00  0.00    +0.015 C 
ATOM     41  C   LIG    1       25.073 -33.824   2.746  0.00  0.00    +0.015 C 
ATOM     42  C   LIG    1       27.496 -33.707   3.253  0.00  0.00    +0.015 C 
ENDBRANCH  36  39
ENDBRANCH   2  33
BRANCH   3  43
ATOM     43  C   LIG    1       23.635 -31.803  10.453  0.00  0.00    -0.027 A 
ATOM     44  C   LIG    1       23.465 -31.205  11.710  0.00  0.00    +0.007 A 
ATOM     45  C   LIG    1       22.205 -31.160  12.331  0.00  0.00    +0.023 A 
ATOM     46  C   LIG    1       21.089 -31.766  11.740  0.00  0.00    +0.034 A 
ATOM     47  C   LIG    1       21.277 -32.454  10.544  0.00  0.00    +0.023 A 
ATOM     48  C   LIG    1       22.526 -32.469   9.910  0.00  0.00    +0.007 A 
BRANCH  46  49
ATOM     49  N   LIG    1       19.832 -31.650  12.385  0.00  0.00    -0.284 N 
ATOM     50  H   LIG    1       19.391 -30.741  12.321  0.00  0.00    +0.155 HD
ATOM     51  C   LIG    1       19.138 -32.663  13.067  0.00  0.00    +0.238 C 
ATOM     52  O   LIG    1       19.513 -33.825  13.190  0.00  0.00    -0.273 OA
BRANCH  51  53
ATOM     53  C   LIG    1       17.821 -32.156  13.720  0.00  0.00    +0.162 C 
ATOM     54  N   LIG    1       17.642 -30.711  13.914  0.00  0.00    -0.288 N 
ATOM     55  C   LIG    1       18.364 -30.048  14.902  0.00  0.00    +0.237 C 
ATOM     56  O   LIG    1       19.398 -30.537  15.362  0.00  0.00    -0.274 OA
ATOM     57  C   LIG    1       16.381 -30.254  13.370  0.00  0.00    +0.109 C 
ATOM     58  C   LIG    1       15.951 -31.305  12.378  0.00  0.00    +0.021 C 
ATOM     59  C   LIG    1       16.602 -32.587  12.884  0.00  0.00    +0.033 C 
BRANCH  55  60
ATOM     60  C   LIG    1       17.748 -28.733  15.497  0.00  0.00    +0.165 C 
BRANCH  60  61
ATOM     61  N   LIG    1       18.801 -27.706  15.481  0.00  0.00    -0.270 N 
ATOM     62  H   LIG    1       18.810 -26.966  16.178  0.00  0.00    +0.153 HD
ATOM     63  C   LIG    1       19.807 -27.690  14.574  0.00  0.00    +0.401 C 
ATOM     64  O   LIG    1       19.833 -28.374  13.533  0.00  0.00    -0.227 OA
BRANCH  63  65
ATOM     65  O   LIG    1       20.810 -26.890  14.984  0.00  0.00    -0.454 OA
ATOM     66  C   LIG    1       22.079 -27.548  14.989  0.00  0.00    +0.282 C 
ENDBRANCH  63  65
ENDBRANCH  60  61
BRANCH  60  67
ATOM     67  C   LIG    1       16.472 -28.265  14.719  0.00  0.00    +0.012 C 
ATOM     68  C   LIG    1       16.689 -27.859  13.248  0.00  0.00    +0.009 C 
ATOM     69  C   LIG    1       15.825 -27.069  15.436  0.00  0.00    +0.009 C 
ENDBRANCH  60  67
ENDBRANCH  55  60
ENDBRANCH  51  53
ENDBRANCH  46  49
ENDBRANCH   3  43
TORSDOF 16
ENDMDL
MODEL 4
REMARK VINA RESULT:      -0.5      1.682      2.840
REMARK  Name = *****
REMARK                            x       y       z     vdW  Elec       q    Type
REMARK                         _______ _______ _______ _____ _____    ______ ____
ROOT
ATOM      1  C   LIG    1       23.965 -29.852   8.358  0.00  0.00    +0.104 C 
ATOM      2  N   LIG    1       25.099 -29.130   8.990  0.00  0.00    -0.316 N 
ATOM      3  C   LIG    1       26.062 -28.867   7.870  0.00  0.00    +0.104 C 
ATOM      4  C   LIG    1       25.867 -30.080   6.926  0.00  0.00    +0.029 C 
ATOM      5  C   LIG    1       24.690 -30.870   7.483  0.00  0.00    +0.029 C 
ENDROOT
BRANCH   1   9
ATOM      6  C   LIG    1       20.788 -31.355  10.930  0.00  0.00    +0.034 A 
ATOM      7  C   LIG    1       21.004 -29.976  10.815  0.00  0.00    +0.023 A 
ATOM      8  C   LIG    1       21.996 -29.472   9.959  0.00  0.00    +0.007 A 
ATOM      9  C   LIG    1       22.800 -30.333   9.193  0.00  0.00    -0.027 A 
ATOM     10  C   LIG    1       22.532 -31.705   9.268  0.00  0.00    +0.007 A 
ATOM     11  C   LIG    1       21.524 -32.203  10.102  0.00  0.00    +0.023 A 
BRANCH   6  13
ATOM     12  C   LIG    1       20.162 -32.605  13.016  0.00  0.00    +0.238 C 
ATOM     13  N   LIG    1       19.868 -31.817  11.906  0.00  0.00    -0.284 N 
ATOM     14  H   LIG    1       18.903 -31.544  11.768  0.00  0.00    +0.155 HD
ATOM     15  O   LIG    1       21.278 -33.024  13.323  0.00  0.00    -0.273 OA
BRANCH  12  18
ATOM     16  C   LIG    1       18.650 -30.702  15.054  0.00  0.00    +0.237 C 
ATOM     17  N   LIG    1       18.173 -31.664  14.187  0.00  0.00    -0.288 N 
ATOM     18  C   LIG    1       18.951 -32.885  13.937  0.00  0.00    +0.162 C 
ATOM     19  C   LIG    1       17.955 -33.824  13.228  0.00  0.00    +0.033 C 
ATOM     20  C   LIG    1       16.584 -33.232  13.539  0.00  0.00    +0.021 C 
ATOM     21  C   LIG    1       16.865 -31.747  13.557  0.00  0.00    +0.109 C 
ATOM     22  O   LIG    1       19.802 -30.775  15.500  0.00  0.00    -0.274 OA
BRANCH  16  23
ATOM     23  C   LIG    1       17.705 -29.535  15.460  0.00  0.00    +0.165 C 
BRANCH  23  25
ATOM     24  C   LIG    1       19.249 -27.914  14.413  0.00  0.00    +0.401 C 
ATOM     25  N   LIG    1       18.517 -28.314  15.497  0.00  0.00    -0.270 N 
ATOM     26  H   LIG    1       18.242 -27.572  16.128  0.00  0.00    +0.153 HD
ATOM     27  O   LIG    1       19.548 -28.617  13.471  0.00  0.00    -0.227 OA
BRANCH  24  29
ATOM     28  C   LIG    1       20.408 -26.090  13.508  0.00  0.00    +0.282 C 
ATOM     29  O   LIG    1       19.577 -26.601  14.554  0.00  0.00    -0.454 OA
ENDBRANCH  24  29
ENDBRANCH  23  25
BRANCH  23  30
ATOM     30  C   LIG    1       16.509 -29.380  14.493  0.00  0.00    +0.012 C 
ATOM     31  C   LIG    1       16.924 -29.726  13.057  0.00  0.00    +0.009 C 
ATOM     32  C   LIG    1       15.927 -27.965  14.497  0.00  0.00    +0.009 C 
ENDBRANCH  23  30
ENDBRANCH  16  23
ENDBRANCH  12  18
ENDBRANCH   6  13
ENDBRANCH   1   9
BRANCH   2  33
ATOM     33  C   LIG    1       25.690 -29.424  10.222  0.00  0.00    +0.031 A 
ATOM     34  C   LIG    1       26.760 -28.649  10.697  0.00  0.00    +0.023 A 
ATOM     35  C   LIG    1       27.421 -28.904  11.901  0.00  0.00    +0.006 A 
ATOM     36  C   LIG    1       26.982 -29.899  12.773  0.00  0.00    -0.042 A 
ATOM     37  C   LIG    1       25.889 -30.657  12.344  0.00  0.00    +0.006 A 
ATOM     38  C   LIG    1       25.268 -30.422  11.103  0.00  0.00    +0.023 A 
BRANCH  36  39
ATOM     39  C   LIG    1       27.672 -30.136  14.119  0.00  0.00    -0.013 C 
ATOM     40  C   LIG    1       29.196 -30.095  13.911  0.00  0.00    +0.015 C 
ATOM     41  C   LIG    1       27.306 -31.501  14.744  0.00  0.00    +0.015 C 
ATOM     42  C   LIG    1       27.272 -29.056  15.153  0.00  0.00    +0.015 C 
ENDBRANCH  36  39
ENDBRANCH   2  33
BRANCH   3  43
ATOM     43  C   LIG    1       25.817 -27.490   7.253  0.00  0.00    -0.027 A 
ATOM     44  C   LIG    1       24.557 -27.107   6.772  0.00  0.00    +0.007 A 
ATOM     45  C   LIG    1       24.337 -25.820   6.251  0.00  0.00    +0.023 A 
ATOM     46  C   LIG    1       25.387 -24.899   6.141  0.00  0.00    +0.034 A 
ATOM     47  C   LIG    1       26.661 -25.314   6.518  0.00  0.00    +0.023 A 
ATOM     48  C   LIG    1       26.872 -26.585   7.067  0.00  0.00    +0.007 A 
BRANCH  46  49
ATOM     49  N   LIG    1       25.101 -23.598   5.654  0.00  0.00    -0.284 N 
ATOM     50  H   LIG    1       25.694 -23.275   4.899  0.00  0.00    +0.155 HD
ATOM     51  C   LIG    1       24.076 -22.742   6.087  0.00  0.00    +0.238 C 
ATOM     52  O   LIG    1       23.247 -23.005   6.954  0.00  0.00    -0.273 OA
BRANCH  51  53
ATOM     53  C   LIG    1       24.109 -21.357   5.381  0.00  0.00    +0.162 C 
ATOM     54  N   LIG    1       25.360 -20.919   4.749  0.00  0.00    -0.288 N 
ATOM     55  C   LIG    1       26.436 -20.521   5.536  0.00  0.00    +0.237 C 
ATOM     56  O   LIG    1       26.512 -20.866   6.718  0.00  0.00    -0.274 OA
ATOM     57  C   LIG    1       25.144 -20.502   3.379  0.00  0.00    +0.109 C 
ATOM     58  C   LIG    1       23.842 -21.132   2.953  0.00  0.00    +0.021 C 
ATOM     59  C   LIG    1       23.064 -21.301   4.252  0.00  0.00    +0.033 C 
BRANCH  55  60
ATOM     60  C   LIG    1       27.466 -19.518   4.910  0.00  0.00    +0.165 C 
BRANCH  60  61
ATOM     61  N   LIG    1       26.885 -18.170   5.004  0.00  0.00    -0.270 N 
ATOM     62  H   LIG    1       26.708 -17.747   5.911  0.00  0.00    +0.153 HD
ATOM     63  C   LIG    1       26.573 -17.420   3.919  0.00  0.00    +0.401 C 
ATOM     64  O   LIG    1       26.516 -17.853   2.752  0.00  0.00    -0.227 OA
BRANCH  63  65
ATOM     65  O   LIG    1       26.406 -16.129   4.261  0.00  0.00    -0.454 OA
ATOM     66  C   LIG    1       26.067 -15.299   3.147  0.00  0.00    +0.282 C 
ENDBRANCH  63  65
ENDBRANCH  60  61
BRANCH  60  67
ATOM     67  C   LIG    1       28.868 -19.592   5.603  0.00  0.00    +0.012 C 
ATOM     68  C   LIG    1       28.862 -19.568   7.145  0.00  0.00    +0.009 C 
ATOM     69  C   LIG    1       29.754 -18.428   5.129  0.00  0.00    +0.009 C 
ENDBRANCH  60  67
ENDBRANCH  55  60
ENDBRANCH  51  53
ENDBRANCH  46  49
ENDBRANCH   3  43
TORSDOF 16
ENDMDL
MODEL 5
REMARK VINA RESULT:       1.1      2.433     12.733
REMARK  Name = *****
REMARK                            x       y       z     vdW  Elec       q    Type
REMARK                         _______ _______ _______ _____ _____    ______ ____
ROOT
ATOM      1  C   LIG    1       25.789 -29.063   8.969  0.00  0.00    +0.104 C 
ATOM      2  N   LIG    1       25.399 -30.442   8.572  0.00  0.00    -0.316 N 
ATOM      3  C   LIG    1       25.843 -31.312   9.712  0.00  0.00    +0.104 C 
ATOM      4  C   LIG    1       27.107 -30.595  10.250  0.00  0.00    +0.029 C 
ATOM      5  C   LIG    1       27.207 -29.277   9.492  0.00  0.00    +0.029 C 
ENDROOT
BRANCH   1   9
ATOM      6  C   LIG    1       24.875 -25.634   6.446  0.00  0.00    +0.034 A 
ATOM      7  C   LIG    1       26.091 -25.691   7.137  0.00  0.00    +0.023 A 
ATOM      8  C   LIG    1       26.421 -26.808   7.923  0.00  0.00    +0.007 A 
ATOM      9  C   LIG    1       25.543 -27.899   8.038  0.00  0.00    -0.027 A 
ATOM     10  C   LIG    1       24.359 -27.858   7.291  0.00  0.00    +0.007 A 
ATOM     11  C   LIG    1       24.046 -26.755   6.487  0.00  0.00    +0.023 A 
BRANCH   6  13
ATOM     12  C   LIG    1       23.517 -23.546   6.130  0.00  0.00    +0.238 C 
ATOM     13  N   LIG    1       24.533 -24.431   5.777  0.00  0.00    -0.284 N 
ATOM     14  H   LIG    1       25.087 -24.206   4.961  0.00  0.00    +0.155 HD
ATOM     15  O   LIG    1       22.753 -23.675   7.086  0.00  0.00    -0.273 OA
BRANCH  12  18
ATOM     16  C   LIG    1       25.508 -21.091   5.875  0.00  0.00    +0.237 C 
ATOM     17  N   LIG    1       24.775 -21.767   4.920  0.00  0.00    -0.288 N 
ATOM     18  C   LIG    1       23.438 -22.280   5.243  0.00  0.00    +0.162 C 
ATOM     19  C   LIG    1       22.833 -22.636   3.870  0.00  0.00    +0.033 C 
ATOM     20  C   LIG    1       23.696 -21.878   2.865  0.00  0.00    +0.021 C 
ATOM     21  C   LIG    1       25.064 -21.929   3.505  0.00  0.00    +0.109 C 
ATOM     22  O   LIG    1       25.124 -21.052   7.050  0.00  0.00    -0.274 OA
BRANCH  16  23
ATOM     23  C   LIG    1       26.818 -20.375   5.435  0.00  0.00    +0.165 C 
BRANCH  23  25
ATOM     24  C   LIG    1       25.913 -18.859   3.706  0.00  0.00    +0.401 C 
ATOM     25  N   LIG    1       26.441 -19.042   4.954  0.00  0.00    -0.270 N 
ATOM     26  H   LIG    1       26.184 -18.339   5.636  0.00  0.00    +0.153 HD
ATOM     27  O   LIG    1       25.977 -19.658   2.795  0.00  0.00    -0.227 OA
BRANCH  24  29
ATOM     28  C   LIG    1       26.139 -16.583   3.198  0.00  0.00    +0.282 C 
ATOM     29  O   LIG    1       25.298 -17.647   3.653  0.00  0.00    -0.454 OA
ENDBRANCH  24  29
ENDBRANCH  23  25
BRANCH  23  30
ATOM     30  C   LIG    1       27.853 -20.284   6.579  0.00  0.00    +0.012 C 
ATOM     31  C   LIG    1       28.991 -19.324   6.206  0.00  0.00    +0.009 C 
ATOM     32  C   LIG    1       28.467 -21.642   6.928  0.00  0.00    +0.009 C 
ENDBRANCH  23  30
ENDBRANCH  16  23
ENDBRANCH  12  18
ENDBRANCH   6  13
ENDBRANCH   1   9
BRANCH   2  33
ATOM     33  C   LIG    1       25.535 -31.012   7.305  0.00  0.00    +0.031 A 
ATOM     34  C   LIG    1       24.415 -31.154   6.469  0.00  0.00    +0.023 A 
ATOM     35  C   LIG    1       24.468 -31.744   5.205  0.00  0.00    +0.006 A 
ATOM     36  C   LIG    1       25.679 -32.141   4.638  0.00  0.00    -0.042 A 
ATOM     37  C   LIG    1       26.816 -31.969   5.432  0.00  0.00    +0.006 A 
ATOM     38  C   LIG    1       26.738 -31.422   6.727  0.00  0.00    +0.023 A 
BRANCH  36  39
ATOM     39  C   LIG    1       25.740 -32.734   3.228  0.00  0.00    -0.013 C 
ATOM     40  C   LIG    1       27.066 -33.500   3.067  0.00  0.00    +0.015 C 
ATOM     41  C   LIG    1       25.669 -31.655   2.125  0.00  0.00    +0.015 C 
ATOM     42  C   LIG    1       24.561 -33.703   2.975  0.00  0.00    +0.015 C 
ENDBRANCH  36  39
ENDBRANCH   2  33
BRANCH   3  43
ATOM     43  C   LIG    1       24.708 -31.516  10.716  0.00  0.00    -0.027 A 
ATOM     44  C   LIG    1       24.288 -30.494  11.578  0.00  0.00    +0.007 A 
ATOM     45  C   LIG    1       23.211 -30.683  12.461  0.00  0.00    +0.023 A 
ATOM     46  C   LIG    1       22.562 -31.920  12.551  0.00  0.00    +0.034 A 
ATOM     47  C   LIG    1       23.047 -32.969  11.773  0.00  0.00    +0.023 A 
ATOM     48  C   LIG    1       24.098 -32.770  10.869  0.00  0.00    +0.007 A 
BRANCH  46  49
ATOM     49  N   LIG    1       21.451 -32.044  13.423  0.00  0.00    -0.284 N 
ATOM     50  H   LIG    1       20.564 -31.736  13.045  0.00  0.00    +0.155 HD
ATOM     51  C   LIG    1       21.456 -32.571  14.724  0.00  0.00    +0.238 C 
ATOM     52  O   LIG    1       22.436 -33.029  15.304  0.00  0.00    -0.273 OA
BRANCH  51  53
ATOM     53  C   LIG    1       20.067 -32.477  15.417  0.00  0.00    +0.162 C 
ATOM     54  N   LIG    1       19.104 -31.480  14.931  0.00  0.00    -0.288 N 
ATOM     55  C   LIG    1       19.305 -30.130  15.198  0.00  0.00    +0.237 C 
ATOM     56  O   LIG    1       20.425 -29.707  15.495  0.00  0.00    -0.274 OA
ATOM     57  C   LIG    1       17.816 -32.080  14.650  0.00  0.00    +0.109 C 
ATOM     58  C   LIG    1       18.074 -33.556  14.478  0.00  0.00    +0.021 C 
ATOM     59  C   LIG    1       19.320 -33.819  15.315  0.00  0.00    +0.033 C 
BRANCH  55  60
ATOM     60  C   LIG    1       18.044 -29.197  15.236  0.00  0.00    +0.165 C 
BRANCH  60  61
ATOM     61  N   LIG    1       18.504 -27.821  14.994  0.00  0.00    -0.270 N 
ATOM     62  H   LIG    1       18.086 -27.042  15.494  0.00  0.00    +0.153 HD
ATOM     63  C   LIG    1       19.500 -27.515  14.126  0.00  0.00    +0.401 C 
ATOM     64  O   LIG    1       19.968 -28.300  13.280  0.00  0.00    -0.227 OA
BRANCH  63  65
ATOM     65  O   LIG    1       19.965 -26.272  14.351  0.00  0.00    -0.454 OA
ATOM     66  C   LIG    1       21.309 -26.091  13.897  0.00  0.00    +0.282 C 
ENDBRANCH  63  65
ENDBRANCH  60  61
BRANCH  60  67
ATOM     67  C   LIG    1       16.949 -29.631  14.205  0.00  0.00    +0.012 C 
ATOM     68  C   LIG    1       16.011 -28.513  13.707  0.00  0.00    +0.009 C 
ATOM     69  C   LIG    1       16.067 -30.738  14.805  0.00  0.00    +0.009 C 
ENDBRANCH  60  67
ENDBRANCH  55  60
ENDBRANCH  51  53
ENDBRANCH  46  49
ENDBRANCH   3  43
TORSDOF 16
ENDMDL
