MODEL 1
REMARK VINA RESULT:     -10.0      0.000      0.000
REMARK  Name = *****
REMARK                            x       y       z     vdW  Elec       q    Type
REMARK                         _______ _______ _______ _____ _____    ______ ____
ROOT
ATOM      1  C   LIG    1       24.849 -23.131   6.508  0.00  0.00    +0.101 C 
ATOM      2  C   LIG    1       25.092 -22.315   5.215  0.00  0.00    +0.047 C 
ATOM      3  C   LIG    1       25.107 -20.805   5.477  0.00  0.00    +0.086 C 
ATOM      4  N   LIG    1       26.057 -20.353   6.495  0.00  0.00    -0.302 NA
ATOM      5  C   LIG    1       25.937 -21.137   7.732  0.00  0.00    +0.086 C 
ATOM      6  C   LIG    1       25.913 -22.665   7.540  0.00  0.00    +0.047 C 
ENDROOT
BRANCH   1   7
ATOM      7  N   LIG    1       24.869 -24.640   6.289  0.00  0.00    -0.289 NA
ATOM      8  C   LIG    1       25.909 -25.354   7.055  0.00  0.00    +0.085 C 
ATOM      9  C   LIG    1       25.761 -26.876   6.932  0.00  0.00    +0.015 C 
ATOM     10  C   LIG    1       25.792 -27.342   5.483  0.00  0.00    +0.002 C 
ATOM     11  C   LIG    1       24.834 -26.520   4.635  0.00  0.00    +0.015 C 
ATOM     12  C   LIG    1       25.011 -25.012   4.858  0.00  0.00    +0.085 C 
ENDBRANCH   1   7
BRANCH   1  16
ATOM     13  N   LIG    1       22.355 -23.474   6.591  0.00  0.00    -0.328 N 
ATOM     14  H   LIG    1       22.425 -23.997   5.729  0.00  0.00    +0.145 HD
ATOM     15  H   LIG    1       21.436 -23.182   6.901  0.00  0.00    +0.145 HD
ATOM     16  C   LIG    1       23.420 -22.772   7.080  0.00  0.00    +0.231 C 
ATOM     17  O   LIG    1       23.215 -21.875   7.895  0.00  0.00    -0.274 OA
ENDBRANCH   1  16
BRANCH   4  18
ATOM     18  C   LIG    1       27.448 -20.182   6.051  0.00  0.00    +0.085 C 
BRANCH  18  19
ATOM     19  C   LIG    1       28.482 -19.891   7.159  0.00  0.00    +0.023 C 
BRANCH  19  20
ATOM     20  C   LIG    1       29.530 -18.828   6.824  0.00  0.00    +0.081 C 
BRANCH  20  21
ATOM     21  C   LIG    1       30.863 -18.939   7.560  0.00  0.00    +0.163 C 
ATOM     22  O   LIG    1       31.773 -19.656   7.160  0.00  0.00    -0.292 OA
BRANCH  21  23
ATOM     23  C   LIG    1       31.086 -18.049   8.757  0.00  0.00    +0.018 A 
ATOM     24  C   LIG    1       32.279 -17.334   8.943  0.00  0.00    +0.014 A 
ATOM     25  C   LIG    1       32.488 -16.575  10.097  0.00  0.00    +0.039 A 
ATOM     26  C   LIG    1       31.507 -16.531  11.078  0.00  0.00    +0.123 A 
ATOM     27  F   LIG    1       31.728 -15.834  12.200  0.00  0.00    -0.205 F 
ATOM     28  C   LIG    1       30.307 -17.211  10.910  0.00  0.00    +0.039 A 
ATOM     29  C   LIG    1       30.090 -17.965   9.749  0.00  0.00    +0.014 A 
ENDBRANCH  21  23
ENDBRANCH  20  21
ENDBRANCH  19  20
ENDBRANCH  18  19
ENDBRANCH   4  18
TORSDOF 7
ENDMDL
MODEL 2
REMARK VINA RESULT:      -9.5      3.340      9.089
REMARK  Name = *****
REMARK                            x       y       z     vdW  Elec       q    Type
REMARK                         _______ _______ _______ _____ _____    ______ ____
ROOT
ATOM      1  C   LIG    1       29.970 -18.959   7.898  0.00  0.00    +0.101 C 
ATOM      2  C   LIG    1       29.283 -18.489   6.594  0.00  0.00    +0.047 C 
ATOM      3  C   LIG    1       28.760 -19.663   5.758  0.00  0.00    +0.086 C 
ATOM      4  N   LIG    1       27.855 -20.577   6.454  0.00  0.00    -0.302 NA
ATOM      5  C   LIG    1       28.410 -21.008   7.744  0.00  0.00    +0.086 C 
ATOM      6  C   LIG    1       28.955 -19.877   8.635  0.00  0.00    +0.047 C 
ENDROOT
BRANCH   1   7
ATOM      7  N   LIG    1       30.465 -17.813   8.774  0.00  0.00    -0.289 NA
ATOM      8  C   LIG    1       31.898 -17.498   8.615  0.00  0.00    +0.085 C 
ATOM      9  C   LIG    1       32.289 -16.229   9.383  0.00  0.00    +0.015 C 
ATOM     10  C   LIG    1       31.956 -16.326  10.864  0.00  0.00    +0.002 C 
ATOM     11  C   LIG    1       30.522 -16.796  11.061  0.00  0.00    +0.015 C 
ATOM     12  C   LIG    1       30.197 -18.036  10.218  0.00  0.00    +0.085 C 
ENDBRANCH   1   7
BRANCH   1  16
ATOM     13  N   LIG    1       31.536 -20.882   8.342  0.00  0.00    -0.328 N 
ATOM     14  H   LIG    1       31.147 -20.949   9.271  0.00  0.00    +0.145 HD
ATOM     15  H   LIG    1       32.395 -21.381   8.144  0.00  0.00    +0.145 HD
ATOM     16  C   LIG    1       31.237 -19.828   7.526  0.00  0.00    +0.231 C 
ATOM     17  O   LIG    1       31.984 -19.579   6.581  0.00  0.00    -0.274 OA
ENDBRANCH   1  16
BRANCH   4  18
ATOM     18  C   LIG    1       26.449 -20.154   6.541  0.00  0.00    +0.085 C 
BRANCH  18  19
ATOM     19  C   LIG    1       25.551 -20.535   5.346  0.00  0.00    +0.023 C 
BRANCH  19  20
ATOM     20  C   LIG    1       24.150 -21.035   5.704  0.00  0.00    +0.081 C 
BRANCH  20  21
ATOM     21  C   LIG    1       24.047 -21.933   6.934  0.00  0.00    +0.163 C 
ATOM     22  O   LIG    1       23.566 -21.542   7.990  0.00  0.00    -0.292 OA
BRANCH  21  23
ATOM     23  C   LIG    1       24.460 -23.377   6.791  0.00  0.00    +0.018 A 
ATOM     24  C   LIG    1       25.788 -23.794   6.970  0.00  0.00    +0.014 A 
ATOM     25  C   LIG    1       26.156 -25.125   6.760  0.00  0.00    +0.039 A 
ATOM     26  C   LIG    1       25.199 -26.048   6.361  0.00  0.00    +0.123 A 
ATOM     27  F   LIG    1       25.565 -27.314   6.122  0.00  0.00    -0.205 F 
ATOM     28  C   LIG    1       23.873 -25.668   6.198  0.00  0.00    +0.039 A 
ATOM     29  C   LIG    1       23.499 -24.335   6.418  0.00  0.00    +0.014 A 
ENDBRANCH  21  23
ENDBRANCH  20  21
ENDBRANCH  19  20
ENDBRANCH  18  19
ENDBRANCH   4  18
TORSDOF 7
ENDMDL
MODEL 3
REMARK VINA RESULT:      -9.1      1.888      3.658
REMARK  Name = *****
REMARK                            x       y       z     vdW  Elec       q    Type
REMARK                         _______ _______ _______ _____ _____    ______ ____
ROOT
ATOM      1  C   LIG    1       24.586 -21.366   6.454  0.00  0.00    +0.101 C 
ATOM      2  C   LIG    1       25.205 -20.412   7.504  0.00  0.00    +0.047 C 
ATOM      3  C   LIG    1       25.940 -21.171   8.615  0.00  0.00    +0.086 C 
ATOM      4  N   LIG    1       26.978 -22.097   8.163  0.00  0.00    -0.302 NA
ATOM      5  C   LIG    1       26.483 -22.989   7.105  0.00  0.00    +0.086 C 
ATOM      6  C   LIG    1       25.731 -22.291   5.956  0.00  0.00    +0.047 C 
ENDROOT
BRANCH   1   7
ATOM      7  N   LIG    1       23.882 -20.641   5.312  0.00  0.00    -0.289 NA
ATOM      8  C   LIG    1       24.783 -19.875   4.428  0.00  0.00    +0.085 C 
ATOM      9  C   LIG    1       24.043 -19.322   3.204  0.00  0.00    +0.015 C 
ATOM     10  C   LIG    1       22.858 -18.450   3.592  0.00  0.00    +0.002 C 
ATOM     11  C   LIG    1       21.987 -19.158   4.621  0.00  0.00    +0.015 C 
ATOM     12  C   LIG    1       22.810 -19.727   5.783  0.00  0.00    +0.085 C 
ENDBRANCH   1   7
BRANCH   1  16
ATOM     13  N   LIG    1       23.120 -23.413   6.517  0.00  0.00    -0.328 N 
ATOM     14  H   LIG    1       23.311 -23.547   5.534  0.00  0.00    +0.145 HD
ATOM     15  H   LIG    1       22.364 -23.942   6.935  0.00  0.00    +0.145 HD
ATOM     16  C   LIG    1       23.498 -22.269   7.160  0.00  0.00    +0.231 C 
ATOM     17  O   LIG    1       22.946 -21.975   8.219  0.00  0.00    -0.274 OA
ENDBRANCH   1  16
BRANCH   4  18
ATOM     18  C   LIG    1       28.286 -21.501   7.852  0.00  0.00    +0.085 C 
BRANCH  18  19
ATOM     19  C   LIG    1       28.357 -19.960   7.900  0.00  0.00    +0.023 C 
BRANCH  19  20
ATOM     20  C   LIG    1       29.447 -19.321   7.037  0.00  0.00    +0.081 C 
BRANCH  20  21
ATOM     21  C   LIG    1       30.835 -19.228   7.663  0.00  0.00    +0.163 C 
ATOM     22  O   LIG    1       31.793 -19.854   7.224  0.00  0.00    -0.292 OA
BRANCH  21  23
ATOM     23  C   LIG    1       31.039 -18.248   8.791  0.00  0.00    +0.018 A 
ATOM     24  C   LIG    1       32.179 -17.434   8.875  0.00  0.00    +0.014 A 
ATOM     25  C   LIG    1       32.376 -16.588   9.969  0.00  0.00    +0.039 A 
ATOM     26  C   LIG    1       31.438 -16.555  10.991  0.00  0.00    +0.123 A 
ATOM     27  F   LIG    1       31.651 -15.772  12.056  0.00  0.00    -0.205 F 
ATOM     28  C   LIG    1       30.289 -17.333  10.923  0.00  0.00    +0.039 A 
ATOM     29  C   LIG    1       30.083 -18.175   9.822  0.00  0.00    +0.014 A 
ENDBRANCH  21  23
ENDBRANCH  20  21
ENDBRANCH  19  20
ENDBRANCH  18  19
ENDBRANCH   4  18
TORSDOF 7
ENDMDL
MODEL 4
REMARK VINA RESULT:      -9.1      3.504      8.989
REMARK  Name = *****
REMARK                            x       y       z     vdW  Elec       q    Type
REMARK                         _______ _______ _______ _____ _____    ______ ____
ROOT
ATOM      1  C   LIG    1       30.114 -18.972   8.208  0.00  0.00    +0.101 C 
ATOM      2  C   LIG    1       29.382 -18.603   6.896  0.00  0.00    +0.047 C 
ATOM      3  C   LIG    1       28.880 -19.841   6.144  0.00  0.00    +0.086 C 
ATOM      4  N   LIG    1       28.021 -20.740   6.915  0.00  0.00    -0.302 NA
ATOM      5  C   LIG    1       28.618 -21.075   8.215  0.00  0.00    +0.086 C 
ATOM      6  C   LIG    1       29.146 -19.875   9.024  0.00  0.00    +0.047 C 
ENDROOT
BRANCH   1   7
ATOM      7  N   LIG    1       30.589 -17.760   9.002  0.00  0.00    -0.289 NA
ATOM      8  C   LIG    1       32.005 -17.403   8.781  0.00  0.00    +0.085 C 
ATOM      9  C   LIG    1       32.370 -16.079   9.463  0.00  0.00    +0.015 C 
ATOM     10  C   LIG    1       32.083 -16.102  10.958  0.00  0.00    +0.002 C 
ATOM     11  C   LIG    1       30.674 -16.611  11.225  0.00  0.00    +0.015 C 
ATOM     12  C   LIG    1       30.372 -17.908  10.464  0.00  0.00    +0.085 C 
ENDBRANCH   1   7
BRANCH   1  16
ATOM     13  N   LIG    1       31.840 -20.709   8.798  0.00  0.00    -0.328 N 
ATOM     14  H   LIG    1       31.538 -20.643   9.760  0.00  0.00    +0.145 HD
ATOM     15  H   LIG    1       32.710 -21.188   8.600  0.00  0.00    +0.145 HD
ATOM     16  C   LIG    1       31.399 -19.821   7.858  0.00  0.00    +0.231 C 
ATOM     17  O   LIG    1       32.043 -19.692   6.818  0.00  0.00    -0.274 OA
ENDBRANCH   1  16
BRANCH   4  18
ATOM     18  C   LIG    1       26.604 -20.357   7.011  0.00  0.00    +0.085 C 
BRANCH  18  19
ATOM     19  C   LIG    1       25.750 -21.166   8.009  0.00  0.00    +0.023 C 
BRANCH  19  20
ATOM     20  C   LIG    1       25.390 -22.588   7.572  0.00  0.00    +0.081 C 
BRANCH  20  21
ATOM     21  C   LIG    1       24.122 -22.735   6.736  0.00  0.00    +0.163 C 
ATOM     22  O   LIG    1       23.332 -23.656   6.904  0.00  0.00    -0.292 OA
BRANCH  21  23
ATOM     23  C   LIG    1       23.795 -21.643   5.748  0.00  0.00    +0.018 A 
ATOM     24  C   LIG    1       24.433 -21.550   4.502  0.00  0.00    +0.014 A 
ATOM     25  C   LIG    1       24.164 -20.487   3.636  0.00  0.00    +0.039 A 
ATOM     26  C   LIG    1       23.260 -19.504   4.015  0.00  0.00    +0.123 A 
ATOM     27  F   LIG    1       23.036 -18.466   3.199  0.00  0.00    -0.205 F 
ATOM     28  C   LIG    1       22.597 -19.583   5.233  0.00  0.00    +0.039 A 
ATOM     29  C   LIG    1       22.857 -20.654   6.099  0.00  0.00    +0.014 A 
ENDBRANCH  21  23
ENDBRANCH  20  21
ENDBRANCH  19  20
ENDBRANCH  18  19
ENDBRANCH   4  18
TORSDOF 7
ENDMDL
MODEL 5
REMARK VINA RESULT:      -9.0      3.889      8.965
REMARK  Name = *****
REMARK                            x       y       z     vdW  Elec       q    Type
REMARK                         _______ _______ _______ _____ _____    ______ ____
ROOT
ATOM      1  C   LIG    1       26.357 -21.280   7.086  0.00  0.00    +0.101 C 
ATOM      2  C   LIG    1       26.730 -22.766   7.300  0.00  0.00    +0.047 C 
ATOM      3  C   LIG    1       25.497 -23.677   7.317  0.00  0.00    +0.086 C 
ATOM      4  N   LIG    1       24.629 -23.583   6.143  0.00  0.00    -0.302 NA
ATOM      5  C   LIG    1       24.293 -22.187   5.830  0.00  0.00    +0.086 C 
ATOM      6  C   LIG    1       25.488 -21.215   5.799  0.00  0.00    +0.047 C 
ENDROOT
BRANCH   1   7
ATOM      7  N   LIG    1       27.565 -20.352   7.022  0.00  0.00    -0.289 NA
ATOM      8  C   LIG    1       27.876 -19.846   5.670  0.00  0.00    +0.085 C 
ATOM      9  C   LIG    1       28.982 -18.784   5.701  0.00  0.00    +0.015 C 
ATOM     10  C   LIG    1       30.257 -19.298   6.352  0.00  0.00    +0.002 C 
ATOM     11  C   LIG    1       29.948 -19.962   7.687  0.00  0.00    +0.015 C 
ATOM     12  C   LIG    1       28.796 -20.969   7.579  0.00  0.00    +0.085 C 
ENDBRANCH   1   7
BRANCH   1  16
ATOM     13  N   LIG    1       24.174 -20.456   8.036  0.00  0.00    -0.328 N 
ATOM     14  H   LIG    1       23.867 -20.266   7.093  0.00  0.00    +0.145 HD
ATOM     15  H   LIG    1       23.639 -20.067   8.802  0.00  0.00    +0.145 HD
ATOM     16  C   LIG    1       25.472 -20.793   8.301  0.00  0.00    +0.231 C 
ATOM     17  O   LIG    1       25.897 -20.657   9.447  0.00  0.00    -0.274 OA
ENDBRANCH   1  16
BRANCH   4  18
ATOM     18  C   LIG    1       25.049 -24.354   4.964  0.00  0.00    +0.085 C 
BRANCH  18  19
ATOM     19  C   LIG    1       25.443 -25.824   5.221  0.00  0.00    +0.023 C 
BRANCH  19  20
ATOM     20  C   LIG    1       24.346 -26.708   5.818  0.00  0.00    +0.081 C 
BRANCH  20  21
ATOM     21  C   LIG    1       24.682 -28.189   5.972  0.00  0.00    +0.163 C 
ATOM     22  O   LIG    1       24.747 -28.947   5.012  0.00  0.00    -0.292 OA
BRANCH  21  23
ATOM     23  C   LIG    1       25.047 -28.692   7.347  0.00  0.00    +0.018 A 
ATOM     24  C   LIG    1       24.315 -29.701   7.990  0.00  0.00    +0.014 A 
ATOM     25  C   LIG    1       24.630 -30.097   9.292  0.00  0.00    +0.039 A 
ATOM     26  C   LIG    1       25.676 -29.479   9.964  0.00  0.00    +0.123 A 
ATOM     27  F   LIG    1       25.949 -29.834  11.226  0.00  0.00    -0.205 F 
ATOM     28  C   LIG    1       26.433 -28.493   9.343  0.00  0.00    +0.039 A 
ATOM     29  C   LIG    1       26.125 -28.101   8.033  0.00  0.00    +0.014 A 
ENDBRANCH  21  23
ENDBRANCH  20  21
ENDBRANCH  19  20
ENDBRANCH  18  19
ENDBRANCH   4  18
TORSDOF 7
ENDMDL
MODEL 6
REMARK VINA RESULT:      -8.6      5.146      7.048
REMARK  Name = *****
REMARK                            x       y       z     vdW  Elec       q    Type
REMARK                         _______ _______ _______ _____ _____    ______ ____
ROOT
ATOM      1  C   LIG    1       25.363 -28.148   6.574  0.00  0.00    +0.101 C 
ATOM      2  C   LIG    1       26.562 -27.400   5.943  0.00  0.00    +0.047 C 
ATOM      3  C   LIG    1       26.163 -26.625   4.682  0.00  0.00    +0.086 C 
ATOM      4  N   LIG    1       25.062 -25.675   4.849  0.00  0.00    -0.302 NA
ATOM      5  C   LIG    1       23.910 -26.297   5.517  0.00  0.00    +0.086 C 
ATOM      6  C   LIG    1       24.241 -27.095   6.792  0.00  0.00    +0.047 C 
ENDROOT
BRANCH   1   7
ATOM      7  N   LIG    1       25.718 -28.896   7.855  0.00  0.00    -0.289 NA
ATOM      8  C   LIG    1       24.571 -29.545   8.521  0.00  0.00    +0.085 C 
ATOM      9  C   LIG    1       25.019 -30.425   9.694  0.00  0.00    +0.015 C 
ATOM     10  C   LIG    1       25.824 -29.646  10.724  0.00  0.00    +0.002 C 
ATOM     11  C   LIG    1       26.927 -28.844  10.047  0.00  0.00    +0.015 C 
ATOM     12  C   LIG    1       26.406 -28.036   8.852  0.00  0.00    +0.085 C 
ENDBRANCH   1   7
BRANCH   1  16
ATOM     13  N   LIG    1       23.511 -29.169   5.206  0.00  0.00    -0.328 N 
ATOM     14  H   LIG    1       22.849 -28.651   5.766  0.00  0.00    +0.145 HD
ATOM     15  H   LIG    1       23.162 -29.912   4.614  0.00  0.00    +0.145 HD
ATOM     16  C   LIG    1       24.833 -29.226   5.549  0.00  0.00    +0.231 C 
ATOM     17  O   LIG    1       25.526 -30.131   5.086  0.00  0.00    -0.274 OA
ENDBRANCH   1  16
BRANCH   4  18
ATOM     18  C   LIG    1       25.419 -24.365   5.413  0.00  0.00    +0.085 C 
BRANCH  18  19
ATOM     19  C   LIG    1       24.936 -24.092   6.853  0.00  0.00    +0.023 C 
BRANCH  19  20
ATOM     20  C   LIG    1       25.845 -23.197   7.697  0.00  0.00    +0.081 C 
BRANCH  20  21
ATOM     21  C   LIG    1       25.339 -21.783   7.966  0.00  0.00    +0.163 C 
ATOM     22  O   LIG    1       25.474 -21.236   9.054  0.00  0.00    -0.292 OA
BRANCH  21  23
ATOM     23  C   LIG    1       24.750 -21.011   6.812  0.00  0.00    +0.018 A 
ATOM     24  C   LIG    1       23.386 -20.688   6.749  0.00  0.00    +0.014 A 
ATOM     25  C   LIG    1       22.854 -20.036   5.633  0.00  0.00    +0.039 A 
ATOM     26  C   LIG    1       23.682 -19.711   4.568  0.00  0.00    +0.123 A 
ATOM     27  F   LIG    1       23.160 -19.122   3.485  0.00  0.00    -0.205 F 
ATOM     28  C   LIG    1       25.041 -19.998   4.613  0.00  0.00    +0.039 A 
ATOM     29  C   LIG    1       25.579 -20.643   5.735  0.00  0.00    +0.014 A 
ENDBRANCH  21  23
ENDBRANCH  20  21
ENDBRANCH  19  20
ENDBRANCH  18  19
ENDBRANCH   4  18
TORSDOF 7
ENDMDL
MODEL 7
REMARK VINA RESULT:      -8.5      2.890      4.675
REMARK  Name = *****
REMARK                            x       y       z     vdW  Elec       q    Type
REMARK                         _______ _______ _______ _____ _____    ______ ____
ROOT
ATOM      1  C   LIG    1       25.148 -26.540   6.209  0.00  0.00    +0.101 C 
ATOM      2  C   LIG    1       25.741 -25.657   7.333  0.00  0.00    +0.047 C 
ATOM      3  C   LIG    1       26.119 -24.258   6.833  0.00  0.00    +0.086 C 
ATOM      4  N   LIG    1       25.043 -23.512   6.179  0.00  0.00    -0.302 NA
ATOM      5  C   LIG    1       24.379 -24.318   5.145  0.00  0.00    +0.086 C 
ATOM      6  C   LIG    1       23.973 -25.739   5.581  0.00  0.00    +0.047 C 
ENDROOT
BRANCH   1   7
ATOM      7  N   LIG    1       24.723 -27.925   6.683  0.00  0.00    -0.289 NA
ATOM      8  C   LIG    1       25.522 -28.459   7.804  0.00  0.00    +0.085 C 
ATOM      9  C   LIG    1       24.934 -29.767   8.349  0.00  0.00    +0.015 C 
ATOM     10  C   LIG    1       24.804 -30.833   7.270  0.00  0.00    +0.002 C 
ATOM     11  C   LIG    1       24.115 -30.267   6.037  0.00  0.00    +0.015 C 
ATOM     12  C   LIG    1       24.728 -28.933   5.592  0.00  0.00    +0.085 C 
ENDBRANCH   1   7
BRANCH   1  16
ATOM     13  N   LIG    1       27.530 -26.968   5.510  0.00  0.00    -0.328 N 
ATOM     14  H   LIG    1       27.819 -26.735   6.449  0.00  0.00    +0.145 HD
ATOM     15  H   LIG    1       28.240 -27.023   4.789  0.00  0.00    +0.145 HD
ATOM     16  C   LIG    1       26.246 -26.756   5.094  0.00  0.00    +0.231 C 
ATOM     17  O   LIG    1       26.017 -26.697   3.886  0.00  0.00    -0.274 OA
ENDBRANCH   1  16
BRANCH   4  18
ATOM     18  C   LIG    1       24.099 -22.822   7.070  0.00  0.00    +0.085 C 
BRANCH  18  19
ATOM     19  C   LIG    1       24.162 -21.280   7.060  0.00  0.00    +0.023 C 
BRANCH  19  20
ATOM     20  C   LIG    1       25.529 -20.671   7.378  0.00  0.00    +0.081 C 
BRANCH  20  21
ATOM     21  C   LIG    1       26.441 -20.401   6.184  0.00  0.00    +0.163 C 
ATOM     22  O   LIG    1       26.012 -20.314   5.040  0.00  0.00    -0.292 OA
BRANCH  21  23
ATOM     23  C   LIG    1       27.900 -20.130   6.456  0.00  0.00    +0.018 A 
ATOM     24  C   LIG    1       28.597 -20.772   7.491  0.00  0.00    +0.014 A 
ATOM     25  C   LIG    1       29.928 -20.448   7.768  0.00  0.00    +0.039 A 
ATOM     26  C   LIG    1       30.568 -19.472   7.016  0.00  0.00    +0.123 A 
ATOM     27  F   LIG    1       31.830 -19.137   7.311  0.00  0.00    -0.205 F 
ATOM     28  C   LIG    1       29.909 -18.836   5.971  0.00  0.00    +0.039 A 
ATOM     29  C   LIG    1       28.577 -19.167   5.685  0.00  0.00    +0.014 A 
ENDBRANCH  21  23
ENDBRANCH  20  21
ENDBRANCH  19  20
ENDBRANCH  18  19
ENDBRANCH   4  18
TORSDOF 7
ENDMDL
MODEL 8
REMARK VINA RESULT:      -8.4      4.522      9.713
REMARK  Name = *****
REMARK                            x       y       z     vdW  Elec       q    Type
REMARK                         _______ _______ _______ _____ _____    ______ ____
ROOT
ATOM      1  C   LIG    1       26.366 -21.281   7.067  0.00  0.00    +0.101 C 
ATOM      2  C   LIG    1       26.766 -22.758   7.296  0.00  0.00    +0.047 C 
ATOM      3  C   LIG    1       25.552 -23.694   7.301  0.00  0.00    +0.086 C 
ATOM      4  N   LIG    1       24.700 -23.625   6.112  0.00  0.00    -0.302 NA
ATOM      5  C   LIG    1       24.341 -22.237   5.786  0.00  0.00    +0.086 C 
ATOM      6  C   LIG    1       25.516 -21.242   5.766  0.00  0.00    +0.047 C 
ENDROOT
BRANCH   1   7
ATOM      7  N   LIG    1       27.556 -20.329   7.016  0.00  0.00    -0.289 NA
ATOM      8  C   LIG    1       27.905 -19.860   5.660  0.00  0.00    +0.085 C 
ATOM      9  C   LIG    1       28.986 -18.772   5.696  0.00  0.00    +0.015 C 
ATOM     10  C   LIG    1       30.248 -19.237   6.408  0.00  0.00    +0.002 C 
ATOM     11  C   LIG    1       29.904 -19.865   7.752  0.00  0.00    +0.015 C 
ATOM     12  C   LIG    1       28.778 -20.900   7.636  0.00  0.00    +0.085 C 
ENDBRANCH   1   7
BRANCH   1  16
ATOM     13  N   LIG    1       24.118 -20.654   8.014  0.00  0.00    -0.328 N 
ATOM     14  H   LIG    1       23.769 -20.585   7.069  0.00  0.00    +0.145 HD
ATOM     15  H   LIG    1       23.554 -20.270   8.763  0.00  0.00    +0.145 HD
ATOM     16  C   LIG    1       25.452 -20.805   8.265  0.00  0.00    +0.231 C 
ATOM     17  O   LIG    1       25.881 -20.520   9.382  0.00  0.00    -0.274 OA
ENDBRANCH   1  16
BRANCH   4  18
ATOM     18  C   LIG    1       25.155 -24.394   4.945  0.00  0.00    +0.085 C 
BRANCH  18  19
ATOM     19  C   LIG    1       24.723 -25.875   4.900  0.00  0.00    +0.023 C 
BRANCH  19  20
ATOM     20  C   LIG    1       24.272 -26.474   6.234  0.00  0.00    +0.081 C 
BRANCH  20  21
ATOM     21  C   LIG    1       25.237 -27.454   6.895  0.00  0.00    +0.163 C 
ATOM     22  O   LIG    1       26.217 -27.080   7.529  0.00  0.00    -0.292 OA
BRANCH  21  23
ATOM     23  C   LIG    1       24.897 -28.923   6.846  0.00  0.00    +0.018 A 
ATOM     24  C   LIG    1       24.409 -29.613   7.966  0.00  0.00    +0.014 A 
ATOM     25  C   LIG    1       24.171 -30.989   7.913  0.00  0.00    +0.039 A 
ATOM     26  C   LIG    1       24.428 -31.685   6.740  0.00  0.00    +0.123 A 
ATOM     27  F   LIG    1       24.237 -33.011   6.707  0.00  0.00    -0.205 F 
ATOM     28  C   LIG    1       24.891 -31.024   5.610  0.00  0.00    +0.039 A 
ATOM     29  C   LIG    1       25.120 -29.642   5.657  0.00  0.00    +0.014 A 
ENDBRANCH  21  23
ENDBRANCH  20  21
ENDBRANCH  19  20
ENDBRANCH  18  19
ENDBRANCH   4  18
TORSDOF 7
ENDMDL
MODEL 9
REMARK VINA RESULT:      -8.4      6.079      9.272
REMARK  Name = *****
REMARK                            x       y       z     vdW  Elec       q    Type
REMARK                         _______ _______ _______ _____ _____    ______ ____
ROOT
ATOM      1  C   LIG    1       25.884 -28.818  11.833  0.00  0.00    +0.101 C 
ATOM      2  C   LIG    1       26.609 -28.383  10.537  0.00  0.00    +0.047 C 
ATOM      3  C   LIG    1       26.701 -29.520   9.514  0.00  0.00    +0.086 C 
ATOM      4  N   LIG    1       25.427 -30.138   9.144  0.00  0.00    -0.302 NA
ATOM      5  C   LIG    1       24.643 -30.510  10.331  0.00  0.00    +0.086 C 
ATOM      6  C   LIG    1       24.513 -29.412  11.402  0.00  0.00    +0.047 C 
ENDROOT
BRANCH   1   7
ATOM      7  N   LIG    1       25.739 -27.697  12.856  0.00  0.00    -0.289 NA
ATOM      8  C   LIG    1       24.348 -27.261  13.091  0.00  0.00    +0.085 C 
ATOM      9  C   LIG    1       24.254 -26.265  14.254  0.00  0.00    +0.015 C 
ATOM     10  C   LIG    1       25.136 -25.043  14.039  0.00  0.00    +0.002 C 
ATOM     11  C   LIG    1       26.545 -25.462  13.647  0.00  0.00    +0.015 C 
ATOM     12  C   LIG    1       26.548 -26.499  12.516  0.00  0.00    +0.085 C 
ENDBRANCH   1   7
BRANCH   1  16
ATOM     13  N   LIG    1       26.033 -30.865  13.294  0.00  0.00    -0.328 N 
ATOM     14  H   LIG    1       25.098 -30.665  13.622  0.00  0.00    +0.145 HD
ATOM     15  H   LIG    1       26.584 -31.545  13.801  0.00  0.00    +0.145 HD
ATOM     16  C   LIG    1       26.719 -29.965  12.528  0.00  0.00    +0.231 C 
ATOM     17  O   LIG    1       27.943 -30.061  12.456  0.00  0.00    -0.274 OA
ENDBRANCH   1  16
BRANCH   4  18
ATOM     18  C   LIG    1       24.635 -29.430   8.127  0.00  0.00    +0.085 C 
BRANCH  18  19
ATOM     19  C   LIG    1       25.438 -28.633   7.078  0.00  0.00    +0.023 C 
BRANCH  19  20
ATOM     20  C   LIG    1       24.732 -27.407   6.495  0.00  0.00    +0.081 C 
BRANCH  20  21
ATOM     21  C   LIG    1       25.599 -26.172   6.270  0.00  0.00    +0.163 C 
ATOM     22  O   LIG    1       26.721 -26.241   5.782  0.00  0.00    -0.292 OA
BRANCH  21  23
ATOM     23  C   LIG    1       24.997 -24.821   6.567  0.00  0.00    +0.018 A 
ATOM     24  C   LIG    1       25.774 -23.739   7.007  0.00  0.00    +0.014 A 
ATOM     25  C   LIG    1       25.179 -22.520   7.344  0.00  0.00    +0.039 A 
ATOM     26  C   LIG    1       23.802 -22.378   7.251  0.00  0.00    +0.123 A 
ATOM     27  F   LIG    1       23.233 -21.221   7.614  0.00  0.00    -0.205 F 
ATOM     28  C   LIG    1       23.011 -23.426   6.797  0.00  0.00    +0.039 A 
ATOM     29  C   LIG    1       23.605 -24.646   6.448  0.00  0.00    +0.014 A 
ENDBRANCH  21  23
ENDBRANCH  20  21
ENDBRANCH  19  20
ENDBRANCH  18  19
ENDBRANCH   4  18
TORSDOF 7
ENDMDL
