MODEL 1
REMARK VINA RESULT:      19.7      0.000      0.000
REMARK  Name = *****
REMARK                            x       y       z     vdW  Elec       q    Type
REMARK                         _______ _______ _______ _____ _____    ______ ____
ROOT
ATOM      1  C   LIG    1       24.752 -20.265   4.734  0.00  0.00    +0.183 C 
ATOM      2  C   LIG    1       25.369 -18.785   4.756  0.00  0.00    +0.021 C 
ATOM      3  C   LIG    1       26.236 -18.549   6.035  0.00  0.00    +0.016 C 
ATOM      4  C   LIG    1       24.180 -17.791   4.985  0.00  0.00    +0.003 C 
ATOM      5  C   LIG    1       23.809 -16.865   3.780  0.00  0.00    -0.000 C 
ATOM      6  C   LIG    1       25.044 -16.300   3.008  0.00  0.00    +0.035 C 
ATOM      7  C   LIG    1       25.948 -17.473   2.556  0.00  0.00    +0.120 C 
ATOM      8  C   LIG    1       25.734 -14.956   3.550  0.00  0.00    +0.013 C 
ATOM      9  C   LIG    1       26.382 -14.225   2.328  0.00  0.00    +0.020 C 
ATOM     10  C   LIG    1       24.751 -13.934   4.174  0.00  0.00    -0.056 C 
ATOM     11  C   LIG    1       25.265 -12.854   4.814  0.00  0.00    +0.051 C 
ATOM     12  C   LIG    1       26.069 -13.327   5.997  0.00  0.00    +0.179 C 
ATOM     13  O   LIG    1       26.105 -12.702   7.062  0.00  0.00    -0.288 OA
ATOM     14  C   LIG    1       26.904 -14.531   5.766  0.00  0.00    +0.047 C 
ATOM     15  C   LIG    1       23.445 -14.446   4.730  0.00  0.00    +0.032 C 
ATOM     16  C   LIG    1       26.793 -15.233   4.617  0.00  0.00    -0.012 C 
ATOM     17  C   LIG    1       22.860 -15.661   4.015  0.00  0.00    +0.008 C 
ATOM     18  C   LIG    1       23.105 -18.703   5.665  0.00  0.00    +0.009 C 
ATOM     19  C   LIG    1       26.328 -18.520   3.593  0.00  0.00    +0.043 C 
ATOM     20  C   LIG    1       23.674 -20.145   5.821  0.00  0.00    +0.057 C 
ENDROOT
BRANCH   1  21
ATOM     21  C   LIG    1       24.008 -20.816   3.431  0.00  0.00    +0.214 C 
ATOM     22  O   LIG    1       24.613 -20.922   2.352  0.00  0.00    -0.289 OA
BRANCH  21  23
ATOM     23  C   LIG    1       22.496 -21.160   3.439  0.00  0.00    +0.310 C 
BRANCH  23  24
ATOM     24  O   LIG    1       21.740 -19.964   3.107  0.00  0.00    -0.457 OA
BRANCH  24  25
ATOM     25  C   LIG    1       20.540 -19.771   3.730  0.00  0.00    +0.307 C 
ATOM     26  O   LIG    1       20.000 -20.601   4.455  0.00  0.00    -0.251 OA
BRANCH  25  27
ATOM     27  C   LIG    1       20.115 -18.327   3.555  0.00  0.00    +0.117 C 
ATOM     28  C   LIG    1       19.351 -17.980   2.291  0.00  0.00    +0.015 C 
ENDBRANCH  25  27
ENDBRANCH  24  25
ENDBRANCH  23  24
ENDBRANCH  21  23
ENDBRANCH   1  21
BRANCH   7  29
ATOM     29  O   LIG    1       27.155 -17.019   1.956  0.00  0.00    -0.391 OA
ATOM     30  H   LIG    1       27.075 -17.081   0.988  0.00  0.00    +0.210 HD
ENDBRANCH   7  29
BRANCH   1  31
ATOM     31  O   LIG    1       25.764 -21.325   4.936  0.00  0.00    -0.419 OA
BRANCH  31  32
ATOM     32  C   LIG    1       26.761 -21.325   5.841  0.00  0.00    +0.511 C 
ATOM     33  O   LIG    1       26.670 -21.400   7.061  0.00  0.00    -0.203 OA
BRANCH  32  34
ATOM     34  O   LIG    1       27.883 -20.997   5.152  0.00  0.00    -0.434 OA
BRANCH  34  36
ATOM     35  C   LIG    1       29.100 -18.947   5.738  0.00  0.00    +0.048 C 
ATOM     36  C   LIG    1       28.998 -20.449   5.883  0.00  0.00    +0.232 C 
ENDBRANCH  34  36
ENDBRANCH  32  34
ENDBRANCH  31  32
ENDBRANCH   1  31
TORSDOF 10
ENDMDL
MODEL 2
REMARK VINA RESULT:      21.4      2.336      7.558
REMARK  Name = *****
REMARK                            x       y       z     vdW  Elec       q    Type
REMARK                         _______ _______ _______ _____ _____    ______ ____
ROOT
ATOM      1  C   LIG    1       24.111 -14.594   3.997  0.00  0.00    +0.183 C 
ATOM      2  C   LIG    1       23.580 -16.081   3.716  0.00  0.00    +0.021 C 
ATOM      3  C   LIG    1       22.190 -16.063   3.002  0.00  0.00    +0.016 C 
ATOM      4  C   LIG    1       23.221 -16.714   5.103  0.00  0.00    +0.003 C 
ATOM      5  C   LIG    1       24.139 -17.883   5.590  0.00  0.00    -0.000 C 
ATOM      6  C   LIG    1       24.551 -18.881   4.460  0.00  0.00    +0.035 C 
ATOM      7  C   LIG    1       25.209 -18.098   3.298  0.00  0.00    +0.120 C 
ATOM      8  C   LIG    1       23.557 -20.092   4.111  0.00  0.00    +0.013 C 
ATOM      9  C   LIG    1       24.420 -21.276   3.562  0.00  0.00    +0.020 C 
ATOM     10  C   LIG    1       22.790 -20.667   5.329  0.00  0.00    -0.056 C 
ATOM     11  C   LIG    1       21.802 -21.568   5.101  0.00  0.00    +0.051 C 
ATOM     12  C   LIG    1       20.718 -20.908   4.289  0.00  0.00    +0.179 C 
ATOM     13  O   LIG    1       19.522 -21.164   4.455  0.00  0.00    -0.288 OA
ATOM     14  C   LIG    1       21.185 -20.014   3.201  0.00  0.00    +0.047 C 
ATOM     15  C   LIG    1       22.576 -19.773   6.525  0.00  0.00    +0.032 C 
ATOM     16  C   LIG    1       22.494 -19.698   3.086  0.00  0.00    -0.012 C 
ATOM     17  C   LIG    1       23.683 -18.755   6.789  0.00  0.00    +0.008 C 
ATOM     18  C   LIG    1       22.978 -15.451   5.997  0.00  0.00    +0.009 C 
ATOM     19  C   LIG    1       24.485 -16.870   2.767  0.00  0.00    +0.043 C 
ATOM     20  C   LIG    1       23.181 -14.165   5.141  0.00  0.00    +0.057 C 
ENDROOT
BRANCH   1  21
ATOM     21  C   LIG    1       25.601 -14.349   4.522  0.00  0.00    +0.214 C 
ATOM     22  O   LIG    1       25.866 -13.373   5.243  0.00  0.00    -0.289 OA
BRANCH  21  23
ATOM     23  C   LIG    1       26.778 -15.260   4.092  0.00  0.00    +0.310 C 
BRANCH  23  24
ATOM     24  O   LIG    1       28.031 -14.598   4.419  0.00  0.00    -0.457 OA
BRANCH  24  25
ATOM     25  C   LIG    1       28.517 -13.675   3.538  0.00  0.00    +0.307 C 
ATOM     26  O   LIG    1       28.300 -13.696   2.330  0.00  0.00    -0.251 OA
BRANCH  25  27
ATOM     27  C   LIG    1       29.161 -12.541   4.310  0.00  0.00    +0.117 C 
ATOM     28  C   LIG    1       28.481 -12.107   5.594  0.00  0.00    +0.015 C 
ENDBRANCH  25  27
ENDBRANCH  24  25
ENDBRANCH  23  24
ENDBRANCH  21  23
ENDBRANCH   1  21
BRANCH   7  29
ATOM     29  O   LIG    1       25.494 -18.933   2.182  0.00  0.00    -0.391 OA
ATOM     30  H   LIG    1       26.434 -18.845   1.948  0.00  0.00    +0.210 HD
ENDBRANCH   7  29
BRANCH   1  31
ATOM     31  O   LIG    1       24.103 -13.732   2.794  0.00  0.00    -0.419 OA
BRANCH  31  32
ATOM     32  C   LIG    1       25.107 -12.949   2.357  0.00  0.00    +0.511 C 
ATOM     33  O   LIG    1       26.183 -13.298   1.883  0.00  0.00    -0.203 OA
BRANCH  32  34
ATOM     34  O   LIG    1       24.790 -11.690   2.752  0.00  0.00    -0.434 OA
BRANCH  34  36
ATOM     35  C   LIG    1       23.714 -11.453   4.945  0.00  0.00    +0.048 C 
ATOM     36  C   LIG    1       23.541 -11.486   3.443  0.00  0.00    +0.232 C 
ENDBRANCH  34  36
ENDBRANCH  32  34
ENDBRANCH  31  32
ENDBRANCH   1  31
TORSDOF 10
ENDMDL
MODEL 3
REMARK VINA RESULT:      21.5      1.931      7.256
REMARK  Name = *****
REMARK                            x       y       z     vdW  Elec       q    Type
REMARK                         _______ _______ _______ _____ _____    ______ ____
ROOT
ATOM      1  C   LIG    1       24.969 -14.915   3.920  0.00  0.00    +0.183 C 
ATOM      2  C   LIG    1       24.210 -16.297   3.625  0.00  0.00    +0.021 C 
ATOM      3  C   LIG    1       22.865 -16.056   2.866  0.00  0.00    +0.016 C 
ATOM      4  C   LIG    1       23.708 -16.853   5.001  0.00  0.00    +0.003 C 
ATOM      5  C   LIG    1       24.406 -18.153   5.519  0.00  0.00    -0.000 C 
ATOM      6  C   LIG    1       24.684 -19.213   4.405  0.00  0.00    +0.035 C 
ATOM      7  C   LIG    1       25.498 -18.557   3.264  0.00  0.00    +0.120 C 
ATOM      8  C   LIG    1       23.517 -20.248   4.026  0.00  0.00    +0.013 C 
ATOM      9  C   LIG    1       24.191 -21.560   3.507  0.00  0.00    +0.020 C 
ATOM     10  C   LIG    1       22.628 -20.680   5.219  0.00  0.00    -0.056 C 
ATOM     11  C   LIG    1       21.513 -21.409   4.961  0.00  0.00    +0.051 C 
ATOM     12  C   LIG    1       20.579 -20.586   4.114  0.00  0.00    +0.179 C 
ATOM     13  O   LIG    1       19.352 -20.642   4.242  0.00  0.00    -0.288 OA
ATOM     14  C   LIG    1       21.219 -19.788   3.039  0.00  0.00    +0.047 C 
ATOM     15  C   LIG    1       22.526 -19.755   6.407  0.00  0.00    +0.032 C 
ATOM     16  C   LIG    1       22.565 -19.692   2.966  0.00  0.00    -0.012 C 
ATOM     17  C   LIG    1       23.776 -18.930   6.704  0.00  0.00    +0.008 C 
ATOM     18  C   LIG    1       23.648 -15.562   5.884  0.00  0.00    +0.009 C 
ATOM     19  C   LIG    1       25.002 -17.230   2.707  0.00  0.00    +0.043 C 
ATOM     20  C   LIG    1       24.085 -14.332   5.033  0.00  0.00    +0.057 C 
ENDROOT
BRANCH   1  21
ATOM     21  C   LIG    1       26.461 -14.913   4.493  0.00  0.00    +0.214 C 
ATOM     22  O   LIG    1       26.765 -14.207   5.468  0.00  0.00    -0.289 OA
BRANCH  21  23
ATOM     23  C   LIG    1       27.596 -15.720   3.813  0.00  0.00    +0.310 C 
BRANCH  23  24
ATOM     24  O   LIG    1       28.445 -16.297   4.843  0.00  0.00    -0.457 OA
BRANCH  24  25
ATOM     25  C   LIG    1       28.521 -17.658   4.923  0.00  0.00    +0.307 C 
ATOM     26  O   LIG    1       28.296 -18.415   3.984  0.00  0.00    -0.251 OA
BRANCH  25  27
ATOM     27  C   LIG    1       29.123 -18.045   6.259  0.00  0.00    +0.117 C 
ATOM     28  C   LIG    1       29.332 -19.524   6.520  0.00  0.00    +0.015 C 
ENDBRANCH  25  27
ENDBRANCH  24  25
ENDBRANCH  23  24
ENDBRANCH  21  23
ENDBRANCH   1  21
BRANCH   7  29
ATOM     29  O   LIG    1       25.677 -19.435   2.159  0.00  0.00    -0.391 OA
ATOM     30  H   LIG    1       24.807 -19.733   1.843  0.00  0.00    +0.210 HD
ENDBRANCH   7  29
BRANCH   1  31
ATOM     31  O   LIG    1       25.139 -14.072   2.717  0.00  0.00    -0.419 OA
BRANCH  31  32
ATOM     32  C   LIG    1       25.747 -12.873   2.653  0.00  0.00    +0.511 C 
ATOM     33  O   LIG    1       26.695 -12.473   3.320  0.00  0.00    -0.203 OA
BRANCH  32  34
ATOM     34  O   LIG    1       24.962 -12.104   1.858  0.00  0.00    -0.434 OA
BRANCH  34  36
ATOM     35  C   LIG    1       23.830 -11.539   3.962  0.00  0.00    +0.048 C 
ATOM     36  C   LIG    1       23.824 -11.448   2.451  0.00  0.00    +0.232 C 
ENDBRANCH  34  36
ENDBRANCH  32  34
ENDBRANCH  31  32
ENDBRANCH   1  31
TORSDOF 10
ENDMDL
MODEL 4
REMARK VINA RESULT:      21.6      0.813      1.081
REMARK  Name = *****
REMARK                            x       y       z     vdW  Elec       q    Type
REMARK                         _______ _______ _______ _____ _____    ______ ____
ROOT
ATOM      1  C   LIG    1       24.172 -20.133   4.605  0.00  0.00    +0.183 C 
ATOM      2  C   LIG    1       24.988 -18.754   4.675  0.00  0.00    +0.021 C 
ATOM      3  C   LIG    1       25.796 -18.638   6.008  0.00  0.00    +0.016 C 
ATOM      4  C   LIG    1       23.938 -17.602   4.834  0.00  0.00    +0.003 C 
ATOM      5  C   LIG    1       23.778 -16.637   3.613  0.00  0.00    -0.000 C 
ATOM      6  C   LIG    1       25.126 -16.253   2.925  0.00  0.00    +0.035 C 
ATOM      7  C   LIG    1       25.884 -17.542   2.524  0.00  0.00    +0.120 C 
ATOM      8  C   LIG    1       25.962 -15.017   3.518  0.00  0.00    +0.013 C 
ATOM      9  C   LIG    1       26.783 -14.388   2.344  0.00  0.00    +0.020 C 
ATOM     10  C   LIG    1       25.094 -13.866   4.084  0.00  0.00    -0.056 C 
ATOM     11  C   LIG    1       25.712 -12.867   4.762  0.00  0.00    +0.051 C 
ATOM     12  C   LIG    1       26.364 -13.444   5.991  0.00  0.00    +0.179 C 
ATOM     13  O   LIG    1       26.419 -12.827   7.060  0.00  0.00    -0.288 OA
ATOM     14  C   LIG    1       27.036 -14.754   5.807  0.00  0.00    +0.047 C 
ATOM     15  C   LIG    1       23.696 -14.188   4.552  0.00  0.00    +0.032 C 
ATOM     16  C   LIG    1       26.901 -15.437   4.649  0.00  0.00    -0.012 C 
ATOM     17  C   LIG    1       22.994 -15.311   3.794  0.00  0.00    +0.008 C 
ATOM     18  C   LIG    1       22.704 -18.353   5.438  0.00  0.00    +0.009 C 
ATOM     19  C   LIG    1       26.047 -18.629   3.577  0.00  0.00    +0.043 C 
ATOM     20  C   LIG    1       23.054 -19.860   5.621  0.00  0.00    +0.057 C 
ENDROOT
BRANCH   1  21
ATOM     21  C   LIG    1       23.443 -20.578   3.254  0.00  0.00    +0.214 C 
ATOM     22  O   LIG    1       24.103 -20.952   2.270  0.00  0.00    -0.289 OA
BRANCH  21  23
ATOM     23  C   LIG    1       21.905 -20.485   3.088  0.00  0.00    +0.310 C 
BRANCH  23  24
ATOM     24  O   LIG    1       21.516 -19.085   3.079  0.00  0.00    -0.457 OA
BRANCH  24  25
ATOM     25  C   LIG    1       20.185 -18.788   3.161  0.00  0.00    +0.307 C 
ATOM     26  O   LIG    1       19.668 -17.801   2.647  0.00  0.00    -0.251 OA
BRANCH  25  27
ATOM     27  C   LIG    1       19.452 -19.961   3.781  0.00  0.00    +0.117 C 
ATOM     28  C   LIG    1       20.293 -21.004   4.492  0.00  0.00    +0.015 C 
ENDBRANCH  25  27
ENDBRANCH  24  25
ENDBRANCH  23  24
ENDBRANCH  21  23
ENDBRANCH   1  21
BRANCH   7  29
ATOM     29  O   LIG    1       27.179 -17.263   2.005  0.00  0.00    -0.391 OA
ATOM     30  H   LIG    1       27.104 -16.607   1.291  0.00  0.00    +0.210 HD
ENDBRANCH   7  29
BRANCH   1  31
ATOM     31  O   LIG    1       25.011 -21.323   4.864  0.00  0.00    -0.419 OA
BRANCH  31  32
ATOM     32  C   LIG    1       25.906 -21.477   5.859  0.00  0.00    +0.511 C 
ATOM     33  O   LIG    1       25.686 -21.572   7.061  0.00  0.00    -0.203 OA
BRANCH  32  34
ATOM     34  O   LIG    1       27.123 -21.282   5.292  0.00  0.00    -0.434 OA
BRANCH  34  36
ATOM     35  C   LIG    1       28.855 -19.662   5.927  0.00  0.00    +0.048 C 
ATOM     36  C   LIG    1       28.247 -21.028   6.158  0.00  0.00    +0.232 C 
ENDBRANCH  34  36
ENDBRANCH  32  34
ENDBRANCH  31  32
ENDBRANCH   1  31
TORSDOF 10
ENDMDL
