MODEL 1
REMARK VINA RESULT:      -6.9      0.000      0.000
REMARK  Name = *****
REMARK                            x       y       z     vdW  Elec       q    Type
REMARK                         _______ _______ _______ _____ _____    ______ ____
ROOT
ATOM      1  C   LIG    1       25.121 -19.394   3.764  0.00  0.00    +0.155 C 
ATOM      2  N   LIG    1       25.356 -20.252   4.908  0.00  0.00    -0.280 N 
ATOM      3  C   LIG    1       24.316 -21.068   5.358  0.00  0.00    +0.333 C 
ATOM      4  O   LIG    1       23.217 -21.081   4.795  0.00  0.00    -0.246 OA
ATOM      5  N   LIG    1       24.572 -21.877   6.482  0.00  0.00    -0.262 N 
ATOM      6  C   LIG    1       23.485 -22.736   6.912  0.00  0.00    +0.157 C 
ATOM      7  C   LIG    1       25.752 -21.876   7.231  0.00  0.00    +0.282 C 
ATOM      8  O   LIG    1       25.919 -22.500   8.274  0.00  0.00    -0.265 OA
ATOM      9  C   LIG    1       26.767 -21.060   6.658  0.00  0.00    +0.151 A 
ATOM     10  N   LIG    1       28.064 -20.827   7.024  0.00  0.00    -0.322 N 
ATOM     11  C   LIG    1       28.588 -19.955   6.105  0.00  0.00    +0.202 A 
ATOM     12  N   LIG    1       27.693 -19.604   5.203  0.00  0.00    -0.218 NA
ATOM     13  C   LIG    1       26.569 -20.290   5.551  0.00  0.00    +0.168 A 
ENDROOT
BRANCH  10  14
ATOM     14  C   LIG    1       28.782 -21.409   8.144  0.00  0.00    +0.157 C 
BRANCH  14  15
ATOM     15  C   LIG    1       30.196 -20.845   8.296  0.00  0.00    +0.160 C 
BRANCH  15  16
ATOM     16  O   LIG    1       30.213 -19.602   9.018  0.00  0.00    -0.388 OA
ATOM     17  H   LIG    1       29.388 -19.530   9.542  0.00  0.00    +0.210 HD
ENDBRANCH  15  16
BRANCH  15  18
ATOM     18  C   LIG    1       31.103 -21.818   9.054  0.00  0.00    +0.188 C 
BRANCH  18  19
ATOM     19  O   LIG    1       32.317 -21.158   9.407  0.00  0.00    -0.392 OA
ATOM     20  H   LIG    1       32.125 -20.667  10.233  0.00  0.00    +0.209 HD
ENDBRANCH  18  19
ENDBRANCH  15  18
ENDBRANCH  14  15
ENDBRANCH  10  14
TORSDOF 5
ENDMDL
MODEL 2
REMARK VINA RESULT:      -6.7      1.447      1.604
REMARK  Name = *****
REMARK                            x       y       z     vdW  Elec       q    Type
REMARK                         _______ _______ _______ _____ _____    ______ ____
ROOT
ATOM      1  C   LIG    1       25.483 -19.763   3.857  0.00  0.00    +0.155 C 
ATOM      2  N   LIG    1       26.024 -20.286   5.095  0.00  0.00    -0.280 N 
ATOM      3  C   LIG    1       25.289 -21.242   5.796  0.00  0.00    +0.333 C 
ATOM      4  O   LIG    1       24.204 -21.658   5.376  0.00  0.00    -0.246 OA
ATOM      5  N   LIG    1       25.835 -21.717   7.005  0.00  0.00    -0.262 N 
ATOM      6  C   LIG    1       25.065 -22.731   7.699  0.00  0.00    +0.157 C 
ATOM      7  C   LIG    1       27.013 -21.255   7.599  0.00  0.00    +0.282 C 
ATOM      8  O   LIG    1       27.416 -21.594   8.708  0.00  0.00    -0.265 OA
ATOM      9  C   LIG    1       27.716 -20.328   6.781  0.00  0.00    +0.151 A 
ATOM     10  N   LIG    1       28.915 -19.692   6.948  0.00  0.00    -0.322 N 
ATOM     11  C   LIG    1       29.110 -18.911   5.838  0.00  0.00    +0.202 A 
ATOM     12  N   LIG    1       28.096 -18.995   5.000  0.00  0.00    -0.218 NA
ATOM     13  C   LIG    1       27.237 -19.872   5.589  0.00  0.00    +0.168 A 
ENDROOT
BRANCH  10  14
ATOM     14  C   LIG    1       29.839 -19.830   8.059  0.00  0.00    +0.157 C 
BRANCH  14  15
ATOM     15  C   LIG    1       30.296 -18.481   8.618  0.00  0.00    +0.160 C 
BRANCH  15  16
ATOM     16  O   LIG    1       29.688 -18.180   9.885  0.00  0.00    -0.388 OA
ATOM     17  H   LIG    1       29.160 -18.954  10.173  0.00  0.00    +0.210 HD
ENDBRANCH  15  16
BRANCH  15  18
ATOM     18  C   LIG    1       31.813 -18.454   8.829  0.00  0.00    +0.188 C 
BRANCH  18  19
ATOM     19  O   LIG    1       32.275 -19.770   9.125  0.00  0.00    -0.392 OA
ATOM     20  H   LIG    1       32.991 -19.954   8.482  0.00  0.00    +0.209 HD
ENDBRANCH  18  19
ENDBRANCH  15  18
ENDBRANCH  14  15
ENDBRANCH  10  14
TORSDOF 5
ENDMDL
MODEL 3
REMARK VINA RESULT:      -6.6      1.893      3.248
REMARK  Name = *****
REMARK                            x       y       z     vdW  Elec       q    Type
REMARK                         _______ _______ _______ _____ _____    ______ ____
ROOT
ATOM      1  C   LIG    1       23.012 -22.811   6.990  0.00  0.00    +0.155 C 
ATOM      2  N   LIG    1       23.838 -21.832   6.313  0.00  0.00    -0.280 N 
ATOM      3  C   LIG    1       23.248 -21.001   5.360  0.00  0.00    +0.333 C 
ATOM      4  O   LIG    1       22.043 -21.075   5.097  0.00  0.00    -0.246 OA
ATOM      5  N   LIG    1       24.083 -20.073   4.707  0.00  0.00    -0.262 N 
ATOM      6  C   LIG    1       23.439 -19.203   3.742  0.00  0.00    +0.157 C 
ATOM      7  C   LIG    1       25.466 -19.966   4.879  0.00  0.00    +0.282 C 
ATOM      8  O   LIG    1       26.197 -19.232   4.221  0.00  0.00    -0.265 OA
ATOM      9  C   LIG    1       25.961 -20.811   5.912  0.00  0.00    +0.151 A 
ATOM     10  N   LIG    1       27.213 -20.970   6.437  0.00  0.00    -0.322 N 
ATOM     11  C   LIG    1       27.114 -21.919   7.421  0.00  0.00    +0.202 A 
ATOM     12  N   LIG    1       25.886 -22.385   7.526  0.00  0.00    -0.218 NA
ATOM     13  C   LIG    1       25.177 -21.696   6.589  0.00  0.00    +0.168 A 
ENDROOT
BRANCH  10  14
ATOM     14  C   LIG    1       28.421 -20.256   6.067  0.00  0.00    +0.157 C 
BRANCH  14  15
ATOM     15  C   LIG    1       29.273 -19.871   7.279  0.00  0.00    +0.160 C 
BRANCH  15  16
ATOM     16  O   LIG    1       30.285 -20.849   7.568  0.00  0.00    -0.388 OA
ATOM     17  H   LIG    1       30.267 -21.537   6.871  0.00  0.00    +0.210 HD
ENDBRANCH  15  16
BRANCH  15  18
ATOM     18  C   LIG    1       29.989 -18.536   7.051  0.00  0.00    +0.188 C 
BRANCH  18  19
ATOM     19  O   LIG    1       29.916 -18.188   5.670  0.00  0.00    -0.392 OA
ATOM     20  H   LIG    1       30.836 -17.995   5.394  0.00  0.00    +0.209 HD
ENDBRANCH  18  19
ENDBRANCH  15  18
ENDBRANCH  14  15
ENDBRANCH  10  14
TORSDOF 5
ENDMDL
MODEL 4
REMARK VINA RESULT:      -6.3      2.057      3.438
REMARK  Name = *****
REMARK                            x       y       z     vdW  Elec       q    Type
REMARK                         _______ _______ _______ _____ _____    ______ ____
ROOT
ATOM      1  C   LIG    1       25.977 -22.928   7.609  0.00  0.00    +0.155 C 
ATOM      2  N   LIG    1       26.604 -21.792   6.963  0.00  0.00    -0.280 N 
ATOM      3  C   LIG    1       25.932 -21.164   5.914  0.00  0.00    +0.333 C 
ATOM      4  O   LIG    1       24.818 -21.545   5.540  0.00  0.00    -0.246 OA
ATOM      5  N   LIG    1       26.576 -20.074   5.295  0.00  0.00    -0.262 N 
ATOM      6  C   LIG    1       25.844 -19.421   4.227  0.00  0.00    +0.157 C 
ATOM      7  C   LIG    1       27.864 -19.617   5.594  0.00  0.00    +0.282 C 
ATOM      8  O   LIG    1       28.457 -18.743   4.971  0.00  0.00    -0.265 OA
ATOM      9  C   LIG    1       28.438 -20.282   6.714  0.00  0.00    +0.151 A 
ATOM     10  N   LIG    1       29.627 -20.107   7.365  0.00  0.00    -0.322 N 
ATOM     11  C   LIG    1       29.662 -21.022   8.385  0.00  0.00    +0.202 A 
ATOM     12  N   LIG    1       28.582 -21.779   8.396  0.00  0.00    -0.218 NA
ATOM     13  C   LIG    1       27.830 -21.317   7.359  0.00  0.00    +0.168 A 
ENDROOT
BRANCH  10  14
ATOM     14  C   LIG    1       30.654 -19.122   7.076  0.00  0.00    +0.157 C 
BRANCH  14  15
ATOM     15  C   LIG    1       31.242 -18.494   8.341  0.00  0.00    +0.160 C 
BRANCH  15  16
ATOM     16  O   LIG    1       32.319 -17.588   8.051  0.00  0.00    -0.388 OA
ATOM     17  H   LIG    1       33.143 -17.941   8.446  0.00  0.00    +0.210 HD
ENDBRANCH  15  16
BRANCH  15  18
ATOM     18  C   LIG    1       30.181 -17.700   9.110  0.00  0.00    +0.188 C 
BRANCH  18  19
ATOM     19  O   LIG    1       30.119 -18.169  10.455  0.00  0.00    -0.392 OA
ATOM     20  H   LIG    1       30.855 -17.726  10.927  0.00  0.00    +0.209 HD
ENDBRANCH  18  19
ENDBRANCH  15  18
ENDBRANCH  14  15
ENDBRANCH  10  14
TORSDOF 5
ENDMDL
MODEL 5
REMARK VINA RESULT:      -6.1      2.013      5.460
REMARK  Name = *****
REMARK                            x       y       z     vdW  Elec       q    Type
REMARK                         _______ _______ _______ _____ _____    ______ ____
ROOT
ATOM      1  C   LIG    1       29.020 -18.015   4.921  0.00  0.00    +0.155 C 
ATOM      2  N   LIG    1       28.952 -19.027   5.956  0.00  0.00    -0.280 N 
ATOM      3  C   LIG    1       30.003 -19.125   6.868  0.00  0.00    +0.333 C 
ATOM      4  O   LIG    1       30.974 -18.363   6.818  0.00  0.00    -0.246 OA
ATOM      5  N   LIG    1       29.914 -20.132   7.850  0.00  0.00    -0.262 N 
ATOM      6  C   LIG    1       31.006 -20.193   8.802  0.00  0.00    +0.157 C 
ATOM      7  C   LIG    1       28.898 -21.088   7.941  0.00  0.00    +0.282 C 
ATOM      8  O   LIG    1       28.893 -22.028   8.729  0.00  0.00    -0.265 OA
ATOM      9  C   LIG    1       27.847 -20.866   7.008  0.00  0.00    +0.151 A 
ATOM     10  N   LIG    1       26.661 -21.513   6.801  0.00  0.00    -0.322 N 
ATOM     11  C   LIG    1       26.029 -20.869   5.769  0.00  0.00    +0.202 A 
ATOM     12  N   LIG    1       26.759 -19.878   5.296  0.00  0.00    -0.218 NA
ATOM     13  C   LIG    1       27.882 -19.882   6.066  0.00  0.00    +0.168 A 
ENDROOT
BRANCH  10  14
ATOM     14  C   LIG    1       26.131 -22.642   7.545  0.00  0.00    +0.157 C 
BRANCH  14  15
ATOM     15  C   LIG    1       25.459 -23.679   6.643  0.00  0.00    +0.160 C 
BRANCH  15  16
ATOM     16  O   LIG    1       25.913 -25.016   6.915  0.00  0.00    -0.388 OA
ATOM     17  H   LIG    1       26.646 -24.974   7.563  0.00  0.00    +0.210 HD
ENDBRANCH  15  16
BRANCH  15  18
ATOM     18  C   LIG    1       23.938 -23.674   6.830  0.00  0.00    +0.188 C 
BRANCH  18  19
ATOM     19  O   LIG    1       23.375 -24.801   6.162  0.00  0.00    -0.392 OA
ATOM     20  H   LIG    1       22.807 -24.435   5.452  0.00  0.00    +0.209 HD
ENDBRANCH  18  19
ENDBRANCH  15  18
ENDBRANCH  14  15
ENDBRANCH  10  14
TORSDOF 5
ENDMDL
MODEL 6
REMARK VINA RESULT:      -5.9      1.045      1.300
REMARK  Name = *****
REMARK                            x       y       z     vdW  Elec       q    Type
REMARK                         _______ _______ _______ _____ _____    ______ ____
ROOT
ATOM      1  C   LIG    1       24.987 -19.378   3.769  0.00  0.00    +0.155 C 
ATOM      2  N   LIG    1       25.489 -20.195   4.855  0.00  0.00    -0.280 N 
ATOM      3  C   LIG    1       24.668 -21.194   5.377  0.00  0.00    +0.333 C 
ATOM      4  O   LIG    1       23.537 -21.402   4.924  0.00  0.00    -0.246 OA
ATOM      5  N   LIG    1       25.179 -21.958   6.445  0.00  0.00    -0.262 N 
ATOM      6  C   LIG    1       24.316 -23.009   6.950  0.00  0.00    +0.157 C 
ATOM      7  C   LIG    1       26.410 -21.750   7.074  0.00  0.00    +0.282 C 
ATOM      8  O   LIG    1       26.793 -22.347   8.075  0.00  0.00    -0.265 OA
ATOM      9  C   LIG    1       27.196 -20.752   6.432  0.00  0.00    +0.151 A 
ATOM     10  N   LIG    1       28.458 -20.289   6.677  0.00  0.00    -0.322 N 
ATOM     11  C   LIG    1       28.718 -19.323   5.741  0.00  0.00    +0.202 A 
ATOM     12  N   LIG    1       27.687 -19.130   4.942  0.00  0.00    -0.218 NA
ATOM     13  C   LIG    1       26.748 -20.017   5.376  0.00  0.00    +0.168 A 
ENDROOT
BRANCH  10  14
ATOM     14  C   LIG    1       29.381 -20.745   7.702  0.00  0.00    +0.157 C 
BRANCH  14  15
ATOM     15  C   LIG    1       30.191 -19.602   8.317  0.00  0.00    +0.160 C 
BRANCH  15  16
ATOM     16  O   LIG    1       30.644 -19.908   9.646  0.00  0.00    -0.388 OA
ATOM     17  H   LIG    1       29.874 -19.905  10.251  0.00  0.00    +0.210 HD
ENDBRANCH  15  16
BRANCH  15  18
ATOM     18  C   LIG    1       31.434 -19.289   7.479  0.00  0.00    +0.188 C 
BRANCH  18  19
ATOM     19  O   LIG    1       31.831 -17.938   7.705  0.00  0.00    -0.392 OA
ATOM     20  H   LIG    1       32.807 -17.928   7.623  0.00  0.00    +0.209 HD
ENDBRANCH  18  19
ENDBRANCH  15  18
ENDBRANCH  14  15
ENDBRANCH  10  14
TORSDOF 5
ENDMDL
MODEL 7
REMARK VINA RESULT:      -5.9      2.467      5.302
REMARK  Name = *****
REMARK                            x       y       z     vdW  Elec       q    Type
REMARK                         _______ _______ _______ _____ _____    ______ ____
ROOT
ATOM      1  C   LIG    1       29.419 -19.679   7.346  0.00  0.00    +0.155 C 
ATOM      2  N   LIG    1       28.157 -19.955   6.690  0.00  0.00    -0.280 N 
ATOM      3  C   LIG    1       27.857 -19.285   5.504  0.00  0.00    +0.333 C 
ATOM      4  O   LIG    1       28.647 -18.479   5.000  0.00  0.00    -0.246 OA
ATOM      5  N   LIG    1       26.614 -19.563   4.901  0.00  0.00    -0.262 N 
ATOM      6  C   LIG    1       26.340 -18.875   3.655  0.00  0.00    +0.157 C 
ATOM      7  C   LIG    1       25.625 -20.396   5.432  0.00  0.00    +0.282 C 
ATOM      8  O   LIG    1       24.503 -20.540   4.955  0.00  0.00    -0.265 OA
ATOM      9  C   LIG    1       26.049 -21.077   6.607  0.00  0.00    +0.151 A 
ATOM     10  N   LIG    1       25.431 -22.010   7.393  0.00  0.00    -0.322 N 
ATOM     11  C   LIG    1       26.308 -22.328   8.398  0.00  0.00    +0.202 A 
ATOM     12  N   LIG    1       27.424 -21.633   8.308  0.00  0.00    -0.218 NA
ATOM     13  C   LIG    1       27.257 -20.860   7.199  0.00  0.00    +0.168 A 
ENDROOT
BRANCH  10  14
ATOM     14  C   LIG    1       24.117 -22.595   7.198  0.00  0.00    +0.157 C 
BRANCH  14  15
ATOM     15  C   LIG    1       24.181 -24.068   6.793  0.00  0.00    +0.160 C 
BRANCH  15  16
ATOM     16  O   LIG    1       22.897 -24.587   6.410  0.00  0.00    -0.388 OA
ATOM     17  H   LIG    1       22.402 -24.833   7.219  0.00  0.00    +0.210 HD
ENDBRANCH  15  16
BRANCH  15  18
ATOM     18  C   LIG    1       25.122 -24.275   5.601  0.00  0.00    +0.188 C 
BRANCH  18  19
ATOM     19  O   LIG    1       24.626 -23.555   4.475  0.00  0.00    -0.392 OA
ATOM     20  H   LIG    1       25.358 -23.537   3.824  0.00  0.00    +0.209 HD
ENDBRANCH  18  19
ENDBRANCH  15  18
ENDBRANCH  14  15
ENDBRANCH  10  14
TORSDOF 5
ENDMDL
MODEL 8
REMARK VINA RESULT:      -5.7      1.945      6.027
REMARK  Name = *****
REMARK                            x       y       z     vdW  Elec       q    Type
REMARK                         _______ _______ _______ _____ _____    ______ ____
ROOT
ATOM      1  C   LIG    1       30.364 -21.573   9.079  0.00  0.00    +0.155 C 
ATOM      2  N   LIG    1       29.583 -20.960   8.022  0.00  0.00    -0.280 N 
ATOM      3  C   LIG    1       30.222 -20.096   7.133  0.00  0.00    +0.333 C 
ATOM      4  O   LIG    1       31.431 -19.857   7.220  0.00  0.00    -0.246 OA
ATOM      5  N   LIG    1       29.431 -19.504   6.129  0.00  0.00    -0.262 N 
ATOM      6  C   LIG    1       30.124 -18.632   5.200  0.00  0.00    +0.157 C 
ATOM      7  C   LIG    1       28.047 -19.650   5.995  0.00  0.00    +0.282 C 
ATOM      8  O   LIG    1       27.354 -19.038   5.188  0.00  0.00    -0.265 OA
ATOM      9  C   LIG    1       27.502 -20.595   6.908  0.00  0.00    +0.151 A 
ATOM     10  N   LIG    1       26.232 -21.074   7.075  0.00  0.00    -0.322 N 
ATOM     11  C   LIG    1       26.278 -21.977   8.105  0.00  0.00    +0.202 A 
ATOM     12  N   LIG    1       27.490 -22.072   8.614  0.00  0.00    -0.218 NA
ATOM     13  C   LIG    1       28.242 -21.214   7.871  0.00  0.00    +0.168 A 
ENDROOT
BRANCH  10  14
ATOM     14  C   LIG    1       25.054 -20.736   6.296  0.00  0.00    +0.157 C 
BRANCH  14  15
ATOM     15  C   LIG    1       25.005 -21.468   4.953  0.00  0.00    +0.160 C 
BRANCH  15  16
ATOM     16  O   LIG    1       24.213 -22.667   5.013  0.00  0.00    -0.388 OA
ATOM     17  H   LIG    1       23.455 -22.514   5.614  0.00  0.00    +0.210 HD
ENDBRANCH  15  16
BRANCH  15  18
ATOM     18  C   LIG    1       24.397 -20.583   3.861  0.00  0.00    +0.188 C 
BRANCH  18  19
ATOM     19  O   LIG    1       25.430 -19.825   3.235  0.00  0.00    -0.392 OA
ATOM     20  H   LIG    1       26.273 -20.227   3.530  0.00  0.00    +0.209 HD
ENDBRANCH  18  19
ENDBRANCH  15  18
ENDBRANCH  14  15
ENDBRANCH  10  14
TORSDOF 5
ENDMDL
MODEL 9
REMARK VINA RESULT:      -5.6      2.287      4.976
REMARK  Name = *****
REMARK                            x       y       z     vdW  Elec       q    Type
REMARK                         _______ _______ _______ _____ _____    ______ ____
ROOT
ATOM      1  C   LIG    1       26.053 -18.878   3.893  0.00  0.00    +0.155 C 
ATOM      2  N   LIG    1       26.181 -19.915   4.897  0.00  0.00    -0.280 N 
ATOM      3  C   LIG    1       27.357 -19.983   5.644  0.00  0.00    +0.333 C 
ATOM      4  O   LIG    1       28.276 -19.175   5.476  0.00  0.00    -0.246 OA
ATOM      5  N   LIG    1       27.456 -21.015   6.598  0.00  0.00    -0.262 N 
ATOM      6  C   LIG    1       28.677 -21.046   7.381  0.00  0.00    +0.157 C 
ATOM      7  C   LIG    1       26.507 -22.020   6.808  0.00  0.00    +0.282 C 
ATOM      8  O   LIG    1       26.658 -22.977   7.561  0.00  0.00    -0.265 OA
ATOM      9  C   LIG    1       25.323 -21.827   6.043  0.00  0.00    +0.151 A 
ATOM     10  N   LIG    1       24.148 -22.525   5.991  0.00  0.00    -0.322 N 
ATOM     11  C   LIG    1       23.346 -21.889   5.081  0.00  0.00    +0.202 A 
ATOM     12  N   LIG    1       23.954 -20.854   4.536  0.00  0.00    -0.218 NA
ATOM     13  C   LIG    1       25.177 -20.822   5.135  0.00  0.00    +0.168 A 
ENDROOT
BRANCH  10  14
ATOM     14  C   LIG    1       23.783 -23.695   6.771  0.00  0.00    +0.157 C 
BRANCH  14  15
ATOM     15  C   LIG    1       24.128 -25.006   6.063  0.00  0.00    +0.160 C 
BRANCH  15  16
ATOM     16  O   LIG    1       24.499 -24.805   4.689  0.00  0.00    -0.388 OA
ATOM     17  H   LIG    1       25.447 -24.560   4.651  0.00  0.00    +0.210 HD
ENDBRANCH  15  16
BRANCH  15  18
ATOM     18  C   LIG    1       25.303 -25.713   6.746  0.00  0.00    +0.188 C 
BRANCH  18  19
ATOM     19  O   LIG    1       26.475 -25.567   5.947  0.00  0.00    -0.392 OA
ATOM     20  H   LIG    1       26.838 -26.469   5.837  0.00  0.00    +0.209 HD
ENDBRANCH  18  19
ENDBRANCH  15  18
ENDBRANCH  14  15
ENDBRANCH  10  14
TORSDOF 5
ENDMDL
