MODEL 1
REMARK VINA RESULT:      -6.5      0.000      0.000
REMARK  Name = *****
REMARK                            x       y       z     vdW  Elec       q    Type
REMARK                         _______ _______ _______ _____ _____    ______ ____
ROOT
ATOM      1  C   LIG    1       25.064 -26.817   6.521  0.00  0.00    +0.160 A 
ATOM      2  C   LIG    1       24.495 -27.720   5.609  0.00  0.00    +0.164 A 
ATOM      3  F   LIG    1       23.858 -27.294   4.507  0.00  0.00    -0.202 F 
ATOM      4  C   LIG    1       24.561 -29.086   5.830  0.00  0.00    +0.057 A 
ATOM      5  C   LIG    1       25.188 -29.540   6.983  0.00  0.00    +0.068 A 
ATOM      6  C   LIG    1       25.241 -30.986   7.282  0.00  0.00    +0.205 A 
ATOM      7  C   LIG    1       25.822 -31.421   8.567  0.00  0.00    +0.122 A 
ATOM      8  C   LIG    1       26.310 -30.461   9.367  0.00  0.00    +0.106 A 
ATOM      9  N   LIG    1       26.345 -29.112   9.072  0.00  0.00    -0.328 N 
ATOM     10  O   LIG    1       24.767 -31.815   6.509  0.00  0.00    -0.286 OA
ATOM     11  C   LIG    1       25.729 -28.619   7.885  0.00  0.00    +0.147 A 
ATOM     12  N   LIG    1       25.662 -27.282   7.648  0.00  0.00    -0.211 NA
ENDROOT
BRANCH   1  17
ATOM     13  N   LIG    1       26.048 -22.113   7.163  0.00  0.00    -0.092 NA
ATOM     14  C   LIG    1       25.455 -23.226   6.855  0.00  0.00    +0.081 C 
ATOM     15  C   LIG    1       24.005 -23.268   6.431  0.00  0.00    +0.069 C 
ATOM     16  C   LIG    1       23.713 -24.773   6.565  0.00  0.00    +0.117 C 
ATOM     17  N   LIG    1       24.998 -25.441   6.344  0.00  0.00    -0.307 N 
ATOM     18  C   LIG    1       26.094 -24.597   6.820  0.00  0.00    +0.161 C 
BRANCH  13  20
ATOM     19  C   LIG    1       28.161 -21.221   7.168  0.00  0.00    +0.313 C 
ATOM     20  O   LIG    1       27.381 -22.357   7.521  0.00  0.00    -0.397 OA
ENDBRANCH  13  20
BRANCH  15  21
ATOM     21  C   LIG    1       23.074 -22.432   7.305  0.00  0.00    +0.088 C 
BRANCH  21  22
ATOM     22  N   LIG    1       23.377 -21.000   7.274  0.00  0.00    -0.329 NA
ATOM     23  H   LIG    1       22.706 -20.522   7.888  0.00  0.00    +0.118 HD
ATOM     24  H   LIG    1       24.285 -20.824   7.702  0.00  0.00    +0.118 HD
ENDBRANCH  21  22
ENDBRANCH  15  21
ENDBRANCH   1  17
BRANCH   9  25
ATOM     25  C   LIG    1       26.798 -28.161  10.101  0.00  0.00    +0.089 C 
ATOM     26  C   LIG    1       26.196 -28.110  11.483  0.00  0.00    +0.027 C 
ATOM     27  C   LIG    1       27.590 -28.624  11.297  0.00  0.00    +0.027 C 
ENDBRANCH   9  25
BRANCH   7  28
ATOM     28  C   LIG    1       25.849 -32.822   9.018  0.00  0.00    +0.342 C 
ATOM     29  O   LIG    1       26.838 -33.346   9.521  0.00  0.00    -0.245 OA
BRANCH  28  30
ATOM     30  O   LIG    1       24.676 -33.473   8.888  0.00  0.00    -0.477 OA
ATOM     31  H   LIG    1       23.881 -32.900   9.012  0.00  0.00    +0.295 HD
ENDBRANCH  28  30
ENDBRANCH   7  28
TORSDOF 7
ENDMDL
MODEL 2
REMARK VINA RESULT:      -6.4      6.655      9.545
REMARK  Name = *****
REMARK                            x       y       z     vdW  Elec       q    Type
REMARK                         _______ _______ _______ _____ _____    ______ ____
ROOT
ATOM      1  C   LIG    1       28.440 -19.662   6.129  0.00  0.00    +0.160 A 
ATOM      2  C   LIG    1       28.168 -18.836   5.026  0.00  0.00    +0.164 A 
ATOM      3  F   LIG    1       29.104 -18.021   4.514  0.00  0.00    -0.202 F 
ATOM      4  C   LIG    1       26.912 -18.825   4.442  0.00  0.00    +0.057 A 
ATOM      5  C   LIG    1       25.924 -19.639   4.982  0.00  0.00    +0.068 A 
ATOM      6  C   LIG    1       24.558 -19.625   4.420  0.00  0.00    +0.205 A 
ATOM      7  C   LIG    1       23.511 -20.423   5.088  0.00  0.00    +0.122 A 
ATOM      8  C   LIG    1       23.889 -21.152   6.148  0.00  0.00    +0.106 A 
ATOM      9  N   LIG    1       25.177 -21.244   6.641  0.00  0.00    -0.328 N 
ATOM     10  O   LIG    1       24.274 -18.927   3.449  0.00  0.00    -0.286 OA
ATOM     11  C   LIG    1       26.216 -20.437   6.092  0.00  0.00    +0.147 A 
ATOM     12  N   LIG    1       27.457 -20.441   6.648  0.00  0.00    -0.211 NA
ENDROOT
BRANCH   1  17
ATOM     13  N   LIG    1       31.862 -20.797   9.369  0.00  0.00    -0.092 NA
ATOM     14  C   LIG    1       31.176 -20.188   8.451  0.00  0.00    +0.081 C 
ATOM     15  C   LIG    1       31.524 -18.793   7.987  0.00  0.00    +0.069 C 
ATOM     16  C   LIG    1       30.239 -18.415   7.231  0.00  0.00    +0.117 C 
ATOM     17  N   LIG    1       29.680 -19.682   6.754  0.00  0.00    -0.307 N 
ATOM     18  C   LIG    1       30.000 -20.760   7.690  0.00  0.00    +0.161 C 
BRANCH  13  20
ATOM     19  C   LIG    1       31.848 -22.973   8.643  0.00  0.00    +0.313 C 
ATOM     20  O   LIG    1       31.327 -22.070   9.611  0.00  0.00    -0.397 OA
ENDBRANCH  13  20
BRANCH  15  21
ATOM     21  C   LIG    1       31.822 -17.814   9.120  0.00  0.00    +0.088 C 
BRANCH  21  22
ATOM     22  N   LIG    1       32.494 -16.593   8.672  0.00  0.00    -0.329 NA
ATOM     23  H   LIG    1       32.130 -15.810   9.228  0.00  0.00    +0.118 HD
ATOM     24  H   LIG    1       33.485 -16.632   8.906  0.00  0.00    +0.118 HD
ENDBRANCH  21  22
ENDBRANCH  15  21
ENDBRANCH   1  17
BRANCH   9  25
ATOM     25  C   LIG    1       25.419 -21.986   7.889  0.00  0.00    +0.089 C 
ATOM     26  C   LIG    1       25.819 -23.441   7.907  0.00  0.00    +0.027 C 
ATOM     27  C   LIG    1       26.813 -22.391   8.298  0.00  0.00    +0.027 C 
ENDBRANCH   9  25
BRANCH   7  28
ATOM     28  C   LIG    1       22.097 -20.420   4.678  0.00  0.00    +0.342 C 
ATOM     29  O   LIG    1       21.380 -21.414   4.737  0.00  0.00    -0.245 OA
BRANCH  28  30
ATOM     30  O   LIG    1       21.633 -19.217   4.285  0.00  0.00    -0.477 OA
ATOM     31  H   LIG    1       20.660 -19.102   4.407  0.00  0.00    +0.295 HD
ENDBRANCH  28  30
ENDBRANCH   7  28
TORSDOF 7
ENDMDL
MODEL 3
REMARK VINA RESULT:      -6.2      1.894      2.910
REMARK  Name = *****
REMARK                            x       y       z     vdW  Elec       q    Type
REMARK                         _______ _______ _______ _____ _____    ______ ____
ROOT
ATOM      1  C   LIG    1       25.634 -25.152   6.750  0.00  0.00    +0.160 A 
ATOM      2  C   LIG    1       25.171 -25.379   5.443  0.00  0.00    +0.164 A 
ATOM      3  F   LIG    1       24.876 -24.362   4.619  0.00  0.00    -0.202 F 
ATOM      4  C   LIG    1       24.987 -26.669   4.971  0.00  0.00    +0.057 A 
ATOM      5  C   LIG    1       25.256 -27.731   5.824  0.00  0.00    +0.068 A 
ATOM      6  C   LIG    1       25.031 -29.121   5.378  0.00  0.00    +0.205 A 
ATOM      7  C   LIG    1       25.228 -30.215   6.349  0.00  0.00    +0.122 A 
ATOM      8  C   LIG    1       25.647 -29.870   7.575  0.00  0.00    +0.106 A 
ATOM      9  N   LIG    1       25.943 -28.585   7.989  0.00  0.00    -0.328 N 
ATOM     10  O   LIG    1       24.637 -29.370   4.241  0.00  0.00    -0.286 OA
ATOM     11  C   LIG    1       25.698 -27.477   7.126  0.00  0.00    +0.147 A 
ATOM     12  N   LIG    1       25.880 -26.205   7.571  0.00  0.00    -0.211 NA
ENDROOT
BRANCH   1  17
ATOM     13  N   LIG    1       24.745 -20.474   7.658  0.00  0.00    -0.092 NA
ATOM     14  C   LIG    1       25.343 -21.615   7.497  0.00  0.00    +0.081 C 
ATOM     15  C   LIG    1       26.849 -21.737   7.513  0.00  0.00    +0.069 C 
ATOM     16  C   LIG    1       27.027 -23.143   6.913  0.00  0.00    +0.117 C 
ATOM     17  N   LIG    1       25.808 -23.875   7.265  0.00  0.00    -0.307 N 
ATOM     18  C   LIG    1       24.668 -22.959   7.326  0.00  0.00    +0.161 C 
BRANCH  13  20
ATOM     19  C   LIG    1       22.916 -20.319   6.284  0.00  0.00    +0.313 C 
ATOM     20  O   LIG    1       23.355 -20.642   7.598  0.00  0.00    -0.397 OA
ENDBRANCH  13  20
BRANCH  15  21
ATOM     21  C   LIG    1       27.571 -20.675   6.688  0.00  0.00    +0.088 C 
BRANCH  21  22
ATOM     22  N   LIG    1       26.904 -20.370   5.422  0.00  0.00    -0.329 NA
ATOM     23  H   LIG    1       27.589 -19.916   4.805  0.00  0.00    +0.118 HD
ATOM     24  H   LIG    1       26.658 -21.232   4.937  0.00  0.00    +0.118 HD
ENDBRANCH  21  22
ENDBRANCH  15  21
ENDBRANCH   1  17
BRANCH   9  25
ATOM     25  C   LIG    1       26.274 -28.342   9.403  0.00  0.00    +0.089 C 
ATOM     26  C   LIG    1       25.603 -29.082  10.535  0.00  0.00    +0.027 C 
ATOM     27  C   LIG    1       27.038 -29.360  10.211  0.00  0.00    +0.027 C 
ENDBRANCH   9  25
BRANCH   7  28
ATOM     28  C   LIG    1       24.948 -31.629   6.052  0.00  0.00    +0.342 C 
ATOM     29  O   LIG    1       25.740 -32.535   6.293  0.00  0.00    -0.245 OA
BRANCH  28  30
ATOM     30  O   LIG    1       23.722 -31.861   5.542  0.00  0.00    -0.477 OA
ATOM     31  H   LIG    1       23.081 -32.241   6.190  0.00  0.00    +0.295 HD
ENDBRANCH  28  30
ENDBRANCH   7  28
TORSDOF 7
ENDMDL
MODEL 4
REMARK VINA RESULT:      -6.0      1.743      2.647
REMARK  Name = *****
REMARK                            x       y       z     vdW  Elec       q    Type
REMARK                         _______ _______ _______ _____ _____    ______ ____
ROOT
ATOM      1  C   LIG    1       25.215 -26.104   6.540  0.00  0.00    +0.160 A 
ATOM      2  C   LIG    1       25.161 -26.467   5.184  0.00  0.00    +0.164 A 
ATOM      3  F   LIG    1       24.983 -25.550   4.220  0.00  0.00    -0.202 F 
ATOM      4  C   LIG    1       25.273 -27.794   4.801  0.00  0.00    +0.057 A 
ATOM      5  C   LIG    1       25.424 -28.758   5.790  0.00  0.00    +0.068 A 
ATOM      6  C   LIG    1       25.501 -30.188   5.430  0.00  0.00    +0.205 A 
ATOM      7  C   LIG    1       25.554 -31.188   6.516  0.00  0.00    +0.122 A 
ATOM      8  C   LIG    1       25.575 -30.718   7.772  0.00  0.00    +0.106 A 
ATOM      9  N   LIG    1       25.586 -29.383   8.128  0.00  0.00    -0.328 N 
ATOM     10  O   LIG    1       25.469 -30.554   4.258  0.00  0.00    -0.286 OA
ATOM     11  C   LIG    1       25.455 -28.371   7.133  0.00  0.00    +0.147 A 
ATOM     12  N   LIG    1       25.352 -27.063   7.491  0.00  0.00    -0.211 NA
ENDROOT
BRANCH   1  17
ATOM     13  N   LIG    1       23.686 -21.505   6.624  0.00  0.00    -0.092 NA
ATOM     14  C   LIG    1       24.390 -22.582   6.798  0.00  0.00    +0.081 C 
ATOM     15  C   LIG    1       25.786 -22.541   7.374  0.00  0.00    +0.069 C 
ATOM     16  C   LIG    1       26.284 -23.951   7.013  0.00  0.00    +0.117 C 
ATOM     17  N   LIG    1       25.084 -24.788   6.962  0.00  0.00    -0.307 N 
ATOM     18  C   LIG    1       23.935 -23.998   6.518  0.00  0.00    +0.161 C 
BRANCH  13  20
ATOM     19  C   LIG    1       22.165 -20.924   5.009  0.00  0.00    +0.313 C 
ATOM     20  O   LIG    1       22.437 -21.824   6.076  0.00  0.00    -0.397 OA
ENDBRANCH  13  20
BRANCH  15  21
ATOM     21  C   LIG    1       26.677 -21.456   6.774  0.00  0.00    +0.088 C 
BRANCH  21  22
ATOM     22  N   LIG    1       26.268 -21.045   5.430  0.00  0.00    -0.329 NA
ATOM     23  H   LIG    1       27.113 -20.984   4.848  0.00  0.00    +0.118 HD
ATOM     24  H   LIG    1       25.710 -21.777   4.993  0.00  0.00    +0.118 HD
ENDBRANCH  21  22
ENDBRANCH  15  21
ENDBRANCH   1  17
BRANCH   9  25
ATOM     25  C   LIG    1       25.483 -29.017   9.551  0.00  0.00    +0.089 C 
ATOM     26  C   LIG    1       26.075 -29.860  10.653  0.00  0.00    +0.027 C 
ATOM     27  C   LIG    1       26.685 -28.535  10.322  0.00  0.00    +0.027 C 
ENDBRANCH   9  25
BRANCH   7  28
ATOM     28  C   LIG    1       25.541 -32.642   6.287  0.00  0.00    +0.342 C 
ATOM     29  O   LIG    1       24.715 -33.394   6.796  0.00  0.00    -0.245 OA
BRANCH  28  30
ATOM     30  O   LIG    1       26.479 -33.080   5.423  0.00  0.00    -0.477 OA
ATOM     31  H   LIG    1       26.971 -33.878   5.733  0.00  0.00    +0.295 HD
ENDBRANCH  28  30
ENDBRANCH   7  28
TORSDOF 7
ENDMDL
MODEL 5
REMARK VINA RESULT:      -5.9      7.480      9.762
REMARK  Name = *****
REMARK                            x       y       z     vdW  Elec       q    Type
REMARK                         _______ _______ _______ _____ _____    ______ ____
ROOT
ATOM      1  C   LIG    1       27.732 -20.497   7.030  0.00  0.00    +0.160 A 
ATOM      2  C   LIG    1       26.939 -21.271   7.893  0.00  0.00    +0.164 A 
ATOM      3  F   LIG    1       27.470 -21.909   8.948  0.00  0.00    -0.202 F 
ATOM      4  C   LIG    1       25.579 -21.415   7.668  0.00  0.00    +0.057 A 
ATOM      5  C   LIG    1       25.022 -20.788   6.561  0.00  0.00    +0.068 A 
ATOM      6  C   LIG    1       23.586 -20.951   6.257  0.00  0.00    +0.205 A 
ATOM      7  C   LIG    1       23.055 -20.357   5.014  0.00  0.00    +0.122 A 
ATOM      8  C   LIG    1       23.917 -19.661   4.258  0.00  0.00    +0.106 A 
ATOM      9  N   LIG    1       25.244 -19.427   4.565  0.00  0.00    -0.328 N 
ATOM     10  O   LIG    1       22.850 -21.610   6.987  0.00  0.00    -0.286 OA
ATOM     11  C   LIG    1       25.837 -20.039   5.707  0.00  0.00    +0.147 A 
ATOM     12  N   LIG    1       27.169 -19.902   5.947  0.00  0.00    -0.211 NA
ENDROOT
BRANCH   1  17
ATOM     13  N   LIG    1       32.121 -21.023   9.019  0.00  0.00    -0.092 NA
ATOM     14  C   LIG    1       31.111 -20.563   8.346  0.00  0.00    +0.081 C 
ATOM     15  C   LIG    1       31.130 -19.191   7.714  0.00  0.00    +0.069 C 
ATOM     16  C   LIG    1       29.636 -19.000   7.404  0.00  0.00    +0.117 C 
ATOM     17  N   LIG    1       29.101 -20.349   7.211  0.00  0.00    -0.307 N 
ATOM     18  C   LIG    1       29.826 -21.305   8.049  0.00  0.00    +0.161 C 
BRANCH  13  20
ATOM     19  C   LIG    1       32.163 -23.252   8.480  0.00  0.00    +0.313 C 
ATOM     20  O   LIG    1       31.841 -22.310   9.496  0.00  0.00    -0.397 OA
ENDBRANCH  13  20
BRANCH  15  21
ATOM     21  C   LIG    1       31.664 -18.090   8.626  0.00  0.00    +0.088 C 
BRANCH  21  22
ATOM     22  N   LIG    1       31.514 -18.392  10.051  0.00  0.00    -0.329 NA
ATOM     23  H   LIG    1       32.027 -17.677  10.581  0.00  0.00    +0.118 HD
ATOM     24  H   LIG    1       30.543 -18.273  10.335  0.00  0.00    +0.118 HD
ENDBRANCH  21  22
ENDBRANCH  15  21
ENDBRANCH   1  17
BRANCH   9  25
ATOM     25  C   LIG    1       26.102 -18.750   3.578  0.00  0.00    +0.089 C 
ATOM     26  C   LIG    1       25.895 -17.313   3.168  0.00  0.00    +0.027 C 
ATOM     27  C   LIG    1       27.084 -17.686   3.997  0.00  0.00    +0.027 C 
ENDBRANCH   9  25
BRANCH   7  28
ATOM     28  C   LIG    1       21.666 -20.528   4.556  0.00  0.00    +0.342 C 
ATOM     29  O   LIG    1       21.018 -19.628   4.031  0.00  0.00    -0.245 OA
BRANCH  28  30
ATOM     30  O   LIG    1       21.177 -21.775   4.709  0.00  0.00    -0.477 OA
ATOM     31  H   LIG    1       20.343 -21.944   4.210  0.00  0.00    +0.295 HD
ENDBRANCH  28  30
ENDBRANCH   7  28
TORSDOF 7
ENDMDL
MODEL 6
REMARK VINA RESULT:      -5.6      6.579      8.730
REMARK  Name = *****
REMARK                            x       y       z     vdW  Elec       q    Type
REMARK                         _______ _______ _______ _____ _____    ______ ____
ROOT
ATOM      1  C   LIG    1       21.870 -28.044  13.939  0.00  0.00    +0.160 A 
ATOM      2  C   LIG    1       22.788 -27.014  14.200  0.00  0.00    +0.164 A 
ATOM      3  F   LIG    1       22.464 -25.967  14.975  0.00  0.00    -0.202 F 
ATOM      4  C   LIG    1       24.059 -27.040  13.647  0.00  0.00    +0.057 A 
ATOM      5  C   LIG    1       24.397 -28.100  12.816  0.00  0.00    +0.068 A 
ATOM      6  C   LIG    1       25.724 -28.145  12.169  0.00  0.00    +0.205 A 
ATOM      7  C   LIG    1       26.006 -29.233  11.211  0.00  0.00    +0.122 A 
ATOM      8  C   LIG    1       25.039 -30.143  11.025  0.00  0.00    +0.106 A 
ATOM      9  N   LIG    1       23.823 -30.166  11.681  0.00  0.00    -0.328 N 
ATOM     10  O   LIG    1       26.564 -27.273  12.375  0.00  0.00    -0.286 OA
ATOM     11  C   LIG    1       23.457 -29.103  12.557  0.00  0.00    +0.147 A 
ATOM     12  N   LIG    1       22.217 -29.065  13.114  0.00  0.00    -0.211 NA
ENDROOT
BRANCH   1  17
ATOM     13  N   LIG    1       17.182 -29.175  14.431  0.00  0.00    -0.092 NA
ATOM     14  C   LIG    1       18.321 -28.555  14.487  0.00  0.00    +0.081 C 
ATOM     15  C   LIG    1       18.433 -27.129  14.971  0.00  0.00    +0.069 C 
ATOM     16  C   LIG    1       19.848 -26.773  14.485  0.00  0.00    +0.117 C 
ATOM     17  N   LIG    1       20.581 -28.040  14.456  0.00  0.00    -0.307 N 
ATOM     18  C   LIG    1       19.673 -29.143  14.142  0.00  0.00    +0.161 C 
BRANCH  13  20
ATOM     19  C   LIG    1       16.422 -30.706  12.902  0.00  0.00    +0.313 C 
ATOM     20  O   LIG    1       17.361 -30.477  13.946  0.00  0.00    -0.397 OA
ENDBRANCH  13  20
BRANCH  15  21
ATOM     21  C   LIG    1       17.381 -26.187  14.389  0.00  0.00    +0.088 C 
BRANCH  21  22
ATOM     22  N   LIG    1       16.231 -25.983  15.271  0.00  0.00    -0.329 NA
ATOM     23  H   LIG    1       15.491 -26.633  14.980  0.00  0.00    +0.118 HD
ATOM     24  H   LIG    1       16.462 -26.268  16.221  0.00  0.00    +0.118 HD
ENDBRANCH  21  22
ENDBRANCH  15  21
ENDBRANCH   1  17
BRANCH   9  25
ATOM     25  C   LIG    1       22.809 -31.157  11.283  0.00  0.00    +0.089 C 
ATOM     26  C   LIG    1       21.739 -30.862  10.261  0.00  0.00    +0.027 C 
ATOM     27  C   LIG    1       22.847 -31.811   9.925  0.00  0.00    +0.027 C 
ENDBRANCH   9  25
BRANCH   7  28
ATOM     28  C   LIG    1       27.253 -29.333  10.436  0.00  0.00    +0.342 C 
ATOM     29  O   LIG    1       28.263 -29.889  10.859  0.00  0.00    -0.245 OA
BRANCH  28  30
ATOM     30  O   LIG    1       27.183 -28.814   9.194  0.00  0.00    -0.477 OA
ATOM     31  H   LIG    1       27.867 -29.160   8.573  0.00  0.00    +0.295 HD
ENDBRANCH  28  30
ENDBRANCH   7  28
TORSDOF 7
ENDMDL
MODEL 7
REMARK VINA RESULT:      -5.5      6.544      8.448
REMARK  Name = *****
REMARK                            x       y       z     vdW  Elec       q    Type
REMARK                         _______ _______ _______ _____ _____    ______ ____
ROOT
ATOM      1  C   LIG    1       21.299 -28.936  13.053  0.00  0.00    +0.160 A 
ATOM      2  C   LIG    1       21.210 -29.915  12.050  0.00  0.00    +0.164 A 
ATOM      3  F   LIG    1       20.073 -30.595  11.834  0.00  0.00    -0.202 F 
ATOM      4  C   LIG    1       22.306 -30.222  11.259  0.00  0.00    +0.057 A 
ATOM      5  C   LIG    1       23.499 -29.550  11.494  0.00  0.00    +0.068 A 
ATOM      6  C   LIG    1       24.705 -29.877  10.706  0.00  0.00    +0.205 A 
ATOM      7  C   LIG    1       25.978 -29.217  11.057  0.00  0.00    +0.122 A 
ATOM      8  C   LIG    1       25.941 -28.319  12.052  0.00  0.00    +0.106 A 
ATOM      9  N   LIG    1       24.809 -27.938  12.747  0.00  0.00    -0.328 N 
ATOM     10  O   LIG    1       24.674 -30.718   9.811  0.00  0.00    -0.286 OA
ATOM     11  C   LIG    1       23.566 -28.594  12.512  0.00  0.00    +0.147 A 
ATOM     12  N   LIG    1       22.478 -28.300  13.273  0.00  0.00    -0.211 NA
ENDROOT
BRANCH   1  17
ATOM     13  N   LIG    1       16.859 -29.128  14.989  0.00  0.00    -0.092 NA
ATOM     14  C   LIG    1       18.031 -28.718  14.611  0.00  0.00    +0.081 C 
ATOM     15  C   LIG    1       18.451 -27.272  14.739  0.00  0.00    +0.069 C 
ATOM     16  C   LIG    1       19.695 -27.256  13.833  0.00  0.00    +0.117 C 
ATOM     17  N   LIG    1       20.229 -28.619  13.879  0.00  0.00    -0.307 N 
ATOM     18  C   LIG    1       19.141 -29.582  14.054  0.00  0.00    +0.161 C 
BRANCH  13  20
ATOM     19  C   LIG    1       15.775 -30.702  13.721  0.00  0.00    +0.313 C 
ATOM     20  O   LIG    1       16.729 -30.504  14.758  0.00  0.00    -0.397 OA
ENDBRANCH  13  20
BRANCH  15  21
ATOM     21  C   LIG    1       17.398 -26.272  14.271  0.00  0.00    +0.088 C 
BRANCH  21  22
ATOM     22  N   LIG    1       16.373 -25.993  15.277  0.00  0.00    -0.329 NA
ATOM     23  H   LIG    1       15.653 -26.723  15.205  0.00  0.00    +0.118 HD
ATOM     24  H   LIG    1       16.759 -26.107  16.213  0.00  0.00    +0.118 HD
ENDBRANCH  21  22
ENDBRANCH  15  21
ENDBRANCH   1  17
BRANCH   9  25
ATOM     25  C   LIG    1       24.943 -27.031  13.899  0.00  0.00    +0.089 C 
ATOM     26  C   LIG    1       25.995 -25.951  13.968  0.00  0.00    +0.027 C 
ATOM     27  C   LIG    1       24.555 -25.577  13.798  0.00  0.00    +0.027 C 
ENDBRANCH   9  25
BRANCH   7  28
ATOM     28  C   LIG    1       27.263 -29.526  10.408  0.00  0.00    +0.342 C 
ATOM     29  O   LIG    1       28.244 -29.933  11.023  0.00  0.00    -0.245 OA
BRANCH  28  30
ATOM     30  O   LIG    1       27.261 -29.380   9.068  0.00  0.00    -0.477 OA
ATOM     31  H   LIG    1       27.787 -28.609   8.746  0.00  0.00    +0.295 HD
ENDBRANCH  28  30
ENDBRANCH   7  28
TORSDOF 7
ENDMDL
MODEL 8
REMARK VINA RESULT:      -5.5      4.270      6.318
REMARK  Name = *****
REMARK                            x       y       z     vdW  Elec       q    Type
REMARK                         _______ _______ _______ _____ _____    ______ ____
ROOT
ATOM      1  C   LIG    1       25.022 -30.514  10.342  0.00  0.00    +0.160 A 
ATOM      2  C   LIG    1       25.372 -31.874  10.356  0.00  0.00    +0.164 A 
ATOM      3  F   LIG    1       25.620 -32.521  11.506  0.00  0.00    -0.202 F 
ATOM      4  C   LIG    1       25.491 -32.588   9.174  0.00  0.00    +0.057 A 
ATOM      5  C   LIG    1       25.271 -31.922   7.975  0.00  0.00    +0.068 A 
ATOM      6  C   LIG    1       25.432 -32.632   6.690  0.00  0.00    +0.205 A 
ATOM      7  C   LIG    1       25.292 -31.863   5.437  0.00  0.00    +0.122 A 
ATOM      8  C   LIG    1       24.981 -30.564   5.553  0.00  0.00    +0.106 A 
ATOM      9  N   LIG    1       24.746 -29.900   6.742  0.00  0.00    -0.328 N 
ATOM     10  O   LIG    1       25.727 -33.824   6.651  0.00  0.00    -0.286 OA
ATOM     11  C   LIG    1       24.942 -30.563   7.988  0.00  0.00    +0.147 A 
ATOM     12  N   LIG    1       24.823 -29.880   9.158  0.00  0.00    -0.211 NA
ENDROOT
BRANCH   1  17
ATOM     13  N   LIG    1       23.118 -27.513  13.639  0.00  0.00    -0.092 NA
ATOM     14  C   LIG    1       23.956 -28.201  12.924  0.00  0.00    +0.081 C 
ATOM     15  C   LIG    1       25.449 -27.998  13.026  0.00  0.00    +0.069 C 
ATOM     16  C   LIG    1       25.923 -28.730  11.759  0.00  0.00    +0.117 C 
ATOM     17  N   LIG    1       24.916 -29.762  11.504  0.00  0.00    -0.307 N 
ATOM     18  C   LIG    1       23.600 -29.306  11.953  0.00  0.00    +0.161 C 
BRANCH  13  20
ATOM     19  C   LIG    1       21.018 -26.725  13.163  0.00  0.00    +0.313 C 
ATOM     20  O   LIG    1       21.802 -27.897  13.349  0.00  0.00    -0.397 OA
ENDBRANCH  13  20
BRANCH  15  21
ATOM     21  C   LIG    1       25.881 -26.534  13.028  0.00  0.00    +0.088 C 
BRANCH  21  22
ATOM     22  N   LIG    1       27.331 -26.355  12.928  0.00  0.00    -0.329 NA
ATOM     23  H   LIG    1       27.729 -26.471  13.868  0.00  0.00    +0.118 HD
ATOM     24  H   LIG    1       27.741 -27.111  12.382  0.00  0.00    +0.118 HD
ENDBRANCH  21  22
ENDBRANCH  15  21
ENDBRANCH   1  17
BRANCH   9  25
ATOM     25  C   LIG    1       24.536 -28.443   6.723  0.00  0.00    +0.089 C 
ATOM     26  C   LIG    1       25.668 -27.459   6.555  0.00  0.00    +0.027 C 
ATOM     27  C   LIG    1       24.679 -27.650   5.448  0.00  0.00    +0.027 C 
ENDBRANCH   9  25
BRANCH   7  28
ATOM     28  C   LIG    1       25.519 -32.436   4.099  0.00  0.00    +0.342 C 
ATOM     29  O   LIG    1       26.577 -32.316   3.489  0.00  0.00    -0.245 OA
BRANCH  28  30
ATOM     30  O   LIG    1       24.486 -33.155   3.617  0.00  0.00    -0.477 OA
ATOM     31  H   LIG    1       24.669 -34.123   3.542  0.00  0.00    +0.295 HD
ENDBRANCH  28  30
ENDBRANCH   7  28
TORSDOF 7
ENDMDL
MODEL 9
REMARK VINA RESULT:      -5.4      6.382      9.058
REMARK  Name = *****
REMARK                            x       y       z     vdW  Elec       q    Type
REMARK                         _______ _______ _______ _____ _____    ______ ____
ROOT
ATOM      1  C   LIG    1       22.655 -28.217  12.561  0.00  0.00    +0.160 A 
ATOM      2  C   LIG    1       22.228 -27.005  13.128  0.00  0.00    +0.164 A 
ATOM      3  F   LIG    1       20.939 -26.631  13.094  0.00  0.00    -0.202 F 
ATOM      4  C   LIG    1       23.134 -26.145  13.727  0.00  0.00    +0.057 A 
ATOM      5  C   LIG    1       24.476 -26.503  13.740  0.00  0.00    +0.068 A 
ATOM      6  C   LIG    1       25.483 -25.595  14.328  0.00  0.00    +0.205 A 
ATOM      7  C   LIG    1       26.910 -25.964  14.228  0.00  0.00    +0.122 A 
ATOM      8  C   LIG    1       27.193 -27.136  13.641  0.00  0.00    +0.106 A 
ATOM      9  N   LIG    1       26.263 -28.037  13.158  0.00  0.00    -0.328 N 
ATOM     10  O   LIG    1       25.158 -24.530  14.845  0.00  0.00    -0.286 OA
ATOM     11  C   LIG    1       24.877 -27.706  13.152  0.00  0.00    +0.147 A 
ATOM     12  N   LIG    1       23.973 -28.542  12.575  0.00  0.00    -0.211 NA
ENDROOT
BRANCH   1  17
ATOM     13  N   LIG    1       19.260 -31.639  12.046  0.00  0.00    -0.092 NA
ATOM     14  C   LIG    1       20.259 -30.839  11.827  0.00  0.00    +0.081 C 
ATOM     15  C   LIG    1       21.142 -30.978  10.610  0.00  0.00    +0.069 C 
ATOM     16  C   LIG    1       22.333 -30.094  11.020  0.00  0.00    +0.117 C 
ATOM     17  N   LIG    1       21.779 -29.092  11.932  0.00  0.00    -0.307 N 
ATOM     18  C   LIG    1       20.658 -29.657  12.684  0.00  0.00    +0.161 C 
BRANCH  13  20
ATOM     19  C   LIG    1       17.208 -31.301  13.014  0.00  0.00    +0.313 C 
ATOM     20  O   LIG    1       18.613 -31.292  13.239  0.00  0.00    -0.397 OA
ENDBRANCH  13  20
BRANCH  15  21
ATOM     21  C   LIG    1       21.578 -32.411  10.315  0.00  0.00    +0.088 C 
BRANCH  21  22
ATOM     22  N   LIG    1       20.520 -33.230   9.721  0.00  0.00    -0.329 NA
ATOM     23  H   LIG    1       19.951 -33.613  10.485  0.00  0.00    +0.118 HD
ATOM     24  H   LIG    1       19.876 -32.643   9.193  0.00  0.00    +0.118 HD
ENDBRANCH  21  22
ENDBRANCH  15  21
ENDBRANCH   1  17
BRANCH   9  25
ATOM     25  C   LIG    1       26.727 -29.227  12.426  0.00  0.00    +0.089 C 
ATOM     26  C   LIG    1       27.140 -29.181  10.975  0.00  0.00    +0.027 C 
ATOM     27  C   LIG    1       28.175 -29.389  12.037  0.00  0.00    +0.027 C 
ENDBRANCH   9  25
BRANCH   7  28
ATOM     28  C   LIG    1       28.009 -25.102  14.692  0.00  0.00    +0.342 C 
ATOM     29  O   LIG    1       29.012 -25.536  15.249  0.00  0.00    -0.245 OA
BRANCH  28  30
ATOM     30  O   LIG    1       27.853 -23.794  14.404  0.00  0.00    -0.477 OA
ATOM     31  H   LIG    1       27.543 -23.618  13.483  0.00  0.00    +0.295 HD
ENDBRANCH  28  30
ENDBRANCH   7  28
TORSDOF 7
ENDMDL
