MODEL 1
REMARK VINA RESULT:      -8.3      0.000      0.000
REMARK  Name = *****
REMARK                            x       y       z     vdW  Elec       q    Type
REMARK                         _______ _______ _______ _____ _____    ______ ____
ROOT
ATOM      1  C   LIG    1       23.281 -30.958  12.757  0.00  0.00    +0.011 C 
ATOM      2  C   LIG    1       22.965 -30.006  11.860  0.00  0.00    -0.036 C 
ATOM      3  C   LIG    1       23.276 -30.097  10.349  0.00  0.00    +0.213 C 
ATOM      4  C   LIG    1       24.424 -31.039   9.773  0.00  0.00    +0.126 C 
ATOM      5  C   LIG    1       26.026 -30.956  10.119  0.00  0.00    +0.185 C 
ATOM      6  C   LIG    1       26.702 -31.228   8.714  0.00  0.00    +0.064 C 
ATOM      7  C   LIG    1       25.633 -31.900   7.874  0.00  0.00    +0.031 C 
ATOM      8  C   LIG    1       26.016 -32.023   6.409  0.00  0.00    +0.011 C 
ATOM      9  C   LIG    1       26.665 -29.620  10.656  0.00  0.00    +0.203 C 
ATOM     10  O   LIG    1       27.382 -28.885   9.972  0.00  0.00    -0.288 OA
ATOM     11  C   LIG    1       26.413 -29.177  12.045  0.00  0.00    -0.008 C 
ATOM     12  C   LIG    1       27.198 -29.702  13.200  0.00  0.00    +0.047 C 
ATOM     13  C   LIG    1       25.553 -28.154  12.152  0.00  0.00    -0.016 C 
ATOM     14  C   LIG    1       24.913 -27.770  13.405  0.00  0.00    +0.022 C 
ATOM     15  C   LIG    1       24.654 -26.423  14.002  0.00  0.00    -0.025 C 
ATOM     16  C   LIG    1       24.460 -26.358  15.497  0.00  0.00    +0.012 C 
ATOM     17  C   LIG    1       25.413 -25.245  13.442  0.00  0.00    +0.012 C 
ATOM     18  C   LIG    1       23.590 -27.088  13.138  0.00  0.00    +0.003 C 
ATOM     19  C   LIG    1       22.413 -27.944  13.486  0.00  0.00    +0.009 C 
ATOM     20  C   LIG    1       24.424 -31.024   8.202  0.00  0.00    +0.191 C 
ATOM     21  C   LIG    1       22.027 -28.847  12.279  0.00  0.00    +0.034 C 
ENDROOT
BRANCH   3  22
ATOM     22  O   LIG    1       21.929 -30.534   9.876  0.00  0.00    -0.457 OA
BRANCH  22  23
ATOM     23  C   LIG    1       21.423 -31.734  10.198  0.00  0.00    +0.304 C 
ATOM     24  O   LIG    1       21.977 -32.804  10.032  0.00  0.00    -0.251 OA
ATOM     25  C   LIG    1       20.062 -31.698  10.830  0.00  0.00    +0.136 C 
ENDBRANCH  22  23
ENDBRANCH   3  22
BRANCH   5  26
ATOM     26  O   LIG    1       26.303 -32.128  10.956  0.00  0.00    -0.450 OA
BRANCH  26  27
ATOM     27  C   LIG    1       25.436 -33.186  10.963  0.00  0.00    +0.305 C 
ATOM     28  O   LIG    1       25.072 -33.815   9.983  0.00  0.00    -0.251 OA
ATOM     29  C   LIG    1       24.969 -33.489  12.359  0.00  0.00    +0.136 C 
ENDBRANCH  26  27
ENDBRANCH   5  26
BRANCH  20  30
ATOM     30  O   LIG    1       24.594 -29.646   7.777  0.00  0.00    -0.457 OA
BRANCH  30  31
ATOM     31  C   LIG    1       24.150 -29.277   6.520  0.00  0.00    +0.340 C 
ATOM     32  O   LIG    1       23.421 -29.867   5.785  0.00  0.00    -0.245 OA
BRANCH  31  33
ATOM     33  C   LIG    1       24.732 -27.919   6.237  0.00  0.00    +0.059 A 
ATOM     34  C   LIG    1       24.017 -27.013   5.444  0.00  0.00    +0.015 A 
ATOM     35  C   LIG    1       24.505 -25.720   5.245  0.00  0.00    +0.001 A 
ATOM     36  C   LIG    1       25.695 -25.308   5.855  0.00  0.00    +0.000 A 
ATOM     37  C   LIG    1       26.402 -26.190   6.664  0.00  0.00    +0.001 A 
ATOM     38  C   LIG    1       25.929 -27.485   6.844  0.00  0.00    +0.015 A 
ENDBRANCH  31  33
ENDBRANCH  30  31
ENDBRANCH  20  30
TORSDOF 7
ENDMDL
MODEL 2
REMARK VINA RESULT:      -6.6      1.709      2.744
REMARK  Name = *****
REMARK                            x       y       z     vdW  Elec       q    Type
REMARK                         _______ _______ _______ _____ _____    ______ ____
ROOT
ATOM      1  C   LIG    1       22.673 -31.936  13.960  0.00  0.00    +0.011 C 
ATOM      2  C   LIG    1       22.130 -31.505  12.807  0.00  0.00    -0.036 C 
ATOM      3  C   LIG    1       22.830 -31.588  11.432  0.00  0.00    +0.213 C 
ATOM      4  C   LIG    1       24.412 -31.701  11.288  0.00  0.00    +0.126 C 
ATOM      5  C   LIG    1       25.524 -30.612  11.811  0.00  0.00    +0.185 C 
ATOM      6  C   LIG    1       26.582 -30.600  10.635  0.00  0.00    +0.064 C 
ATOM      7  C   LIG    1       26.352 -31.889   9.870  0.00  0.00    +0.031 C 
ATOM      8  C   LIG    1       27.113 -31.948   8.556  0.00  0.00    +0.011 C 
ATOM      9  C   LIG    1       25.125 -29.107  12.052  0.00  0.00    +0.203 C 
ATOM     10  O   LIG    1       25.455 -28.187  11.298  0.00  0.00    -0.288 OA
ATOM     11  C   LIG    1       24.306 -28.730  13.224  0.00  0.00    -0.008 C 
ATOM     12  C   LIG    1       24.905 -28.507  14.572  0.00  0.00    +0.047 C 
ATOM     13  C   LIG    1       23.028 -28.440  12.936  0.00  0.00    -0.016 C 
ATOM     14  C   LIG    1       21.976 -28.364  13.942  0.00  0.00    +0.022 C 
ATOM     15  C   LIG    1       20.854 -27.389  14.117  0.00  0.00    -0.025 C 
ATOM     16  C   LIG    1       20.264 -27.257  15.499  0.00  0.00    +0.012 C 
ATOM     17  C   LIG    1       20.933 -26.081  13.369  0.00  0.00    +0.012 C 
ATOM     18  C   LIG    1       20.630 -28.673  13.327  0.00  0.00    +0.003 C 
ATOM     19  C   LIG    1       20.100 -30.013  13.730  0.00  0.00    +0.009 C 
ATOM     20  C   LIG    1       24.826 -31.899   9.786  0.00  0.00    +0.191 C 
ATOM     21  C   LIG    1       20.631 -31.115  12.769  0.00  0.00    +0.034 C 
ENDROOT
BRANCH   3  22
ATOM     22  O   LIG    1       22.151 -32.814  10.915  0.00  0.00    -0.457 OA
BRANCH  22  23
ATOM     23  C   LIG    1       21.394 -32.786   9.808  0.00  0.00    +0.304 C 
ATOM     24  O   LIG    1       20.493 -32.000   9.585  0.00  0.00    -0.251 OA
ATOM     25  C   LIG    1       21.737 -33.825   8.780  0.00  0.00    +0.136 C 
ENDBRANCH  22  23
ENDBRANCH   3  22
BRANCH   5  26
ATOM     26  O   LIG    1       26.176 -31.247  12.962  0.00  0.00    -0.450 OA
BRANCH  26  27
ATOM     27  C   LIG    1       27.288 -30.678  13.520  0.00  0.00    +0.305 C 
ATOM     28  O   LIG    1       28.098 -29.977  12.936  0.00  0.00    -0.251 OA
ATOM     29  C   LIG    1       27.400 -31.032  14.976  0.00  0.00    +0.136 C 
ENDBRANCH  26  27
ENDBRANCH   5  26
BRANCH  20  30
ATOM     30  O   LIG    1       24.296 -30.775   9.034  0.00  0.00    -0.457 OA
BRANCH  30  31
ATOM     31  C   LIG    1       24.187 -30.885   7.659  0.00  0.00    +0.340 C 
ATOM     32  O   LIG    1       23.785 -31.804   7.015  0.00  0.00    -0.245 OA
BRANCH  31  33
ATOM     33  C   LIG    1       24.640 -29.572   7.083  0.00  0.00    +0.059 A 
ATOM     34  C   LIG    1       24.105 -29.130   5.867  0.00  0.00    +0.015 A 
ATOM     35  C   LIG    1       24.452 -27.874   5.364  0.00  0.00    +0.001 A 
ATOM     36  C   LIG    1       25.314 -27.037   6.080  0.00  0.00    +0.000 A 
ATOM     37  C   LIG    1       25.834 -27.453   7.300  0.00  0.00    +0.001 A 
ATOM     38  C   LIG    1       25.507 -28.712   7.790  0.00  0.00    +0.015 A 
ENDBRANCH  31  33
ENDBRANCH  30  31
ENDBRANCH  20  30
TORSDOF 7
ENDMDL
MODEL 3
REMARK VINA RESULT:      -5.9      2.503      6.845
REMARK  Name = *****
REMARK                            x       y       z     vdW  Elec       q    Type
REMARK                         _______ _______ _______ _____ _____    ______ ____
ROOT
ATOM      1  C   LIG    1       25.504 -32.439  11.662  0.00  0.00    +0.011 C 
ATOM      2  C   LIG    1       25.508 -31.113  11.438  0.00  0.00    -0.036 C 
ATOM      3  C   LIG    1       24.629 -30.099  12.203  0.00  0.00    +0.213 C 
ATOM      4  C   LIG    1       23.289 -30.528  12.950  0.00  0.00    +0.126 C 
ATOM      5  C   LIG    1       21.956 -31.196  12.263  0.00  0.00    +0.185 C 
ATOM      6  C   LIG    1       20.771 -30.471  13.020  0.00  0.00    +0.064 C 
ATOM      7  C   LIG    1       21.383 -29.917  14.292  0.00  0.00    +0.031 C 
ATOM      8  C   LIG    1       20.454 -28.977  15.041  0.00  0.00    +0.011 C 
ATOM      9  C   LIG    1       21.665 -31.012  10.725  0.00  0.00    +0.203 C 
ATOM     10  O   LIG    1       20.787 -30.265  10.283  0.00  0.00    -0.288 OA
ATOM     11  C   LIG    1       22.465 -31.746   9.720  0.00  0.00    -0.008 C 
ATOM     12  C   LIG    1       22.159 -33.154   9.336  0.00  0.00    +0.047 C 
ATOM     13  C   LIG    1       23.364 -30.991   9.071  0.00  0.00    -0.016 C 
ATOM     14  C   LIG    1       24.464 -31.546   8.291  0.00  0.00    +0.022 C 
ATOM     15  C   LIG    1       25.022 -31.148   6.961  0.00  0.00    -0.025 C 
ATOM     16  C   LIG    1       25.785 -32.198   6.192  0.00  0.00    +0.012 C 
ATOM     17  C   LIG    1       24.184 -30.251   6.084  0.00  0.00    +0.012 C 
ATOM     18  C   LIG    1       25.620 -30.573   8.238  0.00  0.00    +0.003 C 
ATOM     19  C   LIG    1       26.782 -31.003   9.079  0.00  0.00    +0.009 C 
ATOM     20  C   LIG    1       22.678 -29.319  13.745  0.00  0.00    +0.191 C 
ATOM     21  C   LIG    1       26.608 -30.496  10.539  0.00  0.00    +0.034 C 
ENDROOT
BRANCH   3  22
ATOM     22  O   LIG    1       25.654 -29.610  13.173  0.00  0.00    -0.457 OA
BRANCH  22  23
ATOM     23  C   LIG    1       25.719 -30.080  14.428  0.00  0.00    +0.304 C 
ATOM     24  O   LIG    1       25.783 -31.253  14.742  0.00  0.00    -0.251 OA
ATOM     25  C   LIG    1       25.724 -29.028  15.498  0.00  0.00    +0.136 C 
ENDBRANCH  22  23
ENDBRANCH   3  22
BRANCH   5  26
ATOM     26  O   LIG    1       21.950 -32.594  12.707  0.00  0.00    -0.450 OA
BRANCH  26  27
ATOM     27  C   LIG    1       20.768 -33.272  12.822  0.00  0.00    +0.305 C 
ATOM     28  O   LIG    1       19.943 -33.421  11.936  0.00  0.00    -0.251 OA
ATOM     29  C   LIG    1       20.598 -33.824  14.210  0.00  0.00    +0.136 C 
ENDBRANCH  26  27
ENDBRANCH   5  26
BRANCH  20  30
ATOM     30  O   LIG    1       22.447 -28.243  12.798  0.00  0.00    -0.457 OA
BRANCH  30  31
ATOM     31  C   LIG    1       22.209 -26.969  13.282  0.00  0.00    +0.340 C 
ATOM     32  O   LIG    1       21.182 -26.365  13.316  0.00  0.00    -0.245 OA
BRANCH  31  33
ATOM     33  C   LIG    1       23.517 -26.462  13.826  0.00  0.00    +0.059 A 
ATOM     34  C   LIG    1       24.676 -26.567  13.048  0.00  0.00    +0.015 A 
ATOM     35  C   LIG    1       25.878 -26.023  13.505  0.00  0.00    +0.001 A 
ATOM     36  C   LIG    1       25.931 -25.347  14.727  0.00  0.00    +0.000 A 
ATOM     37  C   LIG    1       24.782 -25.214  15.499  0.00  0.00    +0.001 A 
ATOM     38  C   LIG    1       23.591 -25.775  15.056  0.00  0.00    +0.015 A 
ENDBRANCH  31  33
ENDBRANCH  30  31
ENDBRANCH  20  30
TORSDOF 7
ENDMDL
MODEL 4
REMARK VINA RESULT:      -5.7      2.773      4.788
REMARK  Name = *****
REMARK                            x       y       z     vdW  Elec       q    Type
REMARK                         _______ _______ _______ _____ _____    ______ ____
ROOT
ATOM      1  C   LIG    1       26.276 -31.143  14.194  0.00  0.00    +0.011 C 
ATOM      2  C   LIG    1       25.123 -30.452  14.247  0.00  0.00    -0.036 C 
ATOM      3  C   LIG    1       23.866 -30.793  13.415  0.00  0.00    +0.213 C 
ATOM      4  C   LIG    1       23.942 -31.638  12.067  0.00  0.00    +0.126 C 
ATOM      5  C   LIG    1       24.760 -31.235  10.702  0.00  0.00    +0.185 C 
ATOM      6  C   LIG    1       23.763 -31.672   9.554  0.00  0.00    +0.064 C 
ATOM      7  C   LIG    1       22.809 -32.658  10.200  0.00  0.00    +0.031 C 
ATOM      8  C   LIG    1       21.625 -33.010   9.316  0.00  0.00    +0.011 C 
ATOM      9  C   LIG    1       25.136 -29.734  10.403  0.00  0.00    +0.203 C 
ATOM     10  O   LIG    1       24.567 -29.048   9.550  0.00  0.00    -0.288 OA
ATOM     11  C   LIG    1       26.216 -29.069  11.164  0.00  0.00    -0.008 C 
ATOM     12  C   LIG    1       27.654 -29.221  10.800  0.00  0.00    +0.047 C 
ATOM     13  C   LIG    1       25.785 -28.193  12.084  0.00  0.00    -0.016 C 
ATOM     14  C   LIG    1       26.628 -27.673  13.155  0.00  0.00    +0.022 C 
ATOM     15  C   LIG    1       26.763 -26.292  13.713  0.00  0.00    -0.025 C 
ATOM     16  C   LIG    1       28.050 -25.961  14.428  0.00  0.00    +0.012 C 
ATOM     17  C   LIG    1       26.214 -25.145  12.901  0.00  0.00    +0.012 C 
ATOM     18  C   LIG    1       25.787 -27.276  14.347  0.00  0.00    +0.003 C 
ATOM     19  C   LIG    1       25.929 -28.220  15.499  0.00  0.00    +0.009 C 
ATOM     20  C   LIG    1       22.503 -31.937  11.512  0.00  0.00    +0.191 C 
ATOM     21  C   LIG    1       24.919 -29.395  15.361  0.00  0.00    +0.034 C 
ENDROOT
BRANCH   3  22
ATOM     22  O   LIG    1       23.099 -31.522  14.468  0.00  0.00    -0.457 OA
BRANCH  22  23
ATOM     23  C   LIG    1       23.063 -32.863  14.512  0.00  0.00    +0.304 C 
ATOM     24  O   LIG    1       24.031 -33.599  14.505  0.00  0.00    -0.251 OA
ATOM     25  C   LIG    1       21.687 -33.457  14.591  0.00  0.00    +0.136 C 
ENDBRANCH  22  23
ENDBRANCH   3  22
BRANCH   5  26
ATOM     26  O   LIG    1       25.900 -32.157  10.648  0.00  0.00    -0.450 OA
BRANCH  26  27
ATOM     27  C   LIG    1       26.218 -32.784   9.474  0.00  0.00    +0.305 C 
ATOM     28  O   LIG    1       25.726 -33.822   9.065  0.00  0.00    -0.251 OA
ATOM     29  C   LIG    1       27.281 -32.025   8.730  0.00  0.00    +0.136 C 
ENDBRANCH  26  27
ENDBRANCH   5  26
BRANCH  20  30
ATOM     30  O   LIG    1       21.836 -30.663  11.312  0.00  0.00    -0.457 OA
BRANCH  30  31
ATOM     31  C   LIG    1       20.690 -30.390  12.036  0.00  0.00    +0.340 C 
ATOM     32  O   LIG    1       19.699 -31.045  12.137  0.00  0.00    -0.245 OA
BRANCH  31  33
ATOM     33  C   LIG    1       20.927 -29.087  12.748  0.00  0.00    +0.059 A 
ATOM     34  C   LIG    1       22.119 -28.386  12.527  0.00  0.00    +0.015 A 
ATOM     35  C   LIG    1       22.315 -27.134  13.114  0.00  0.00    +0.001 A 
ATOM     36  C   LIG    1       21.317 -26.557  13.905  0.00  0.00    +0.000 A 
ATOM     37  C   LIG    1       20.119 -27.231  14.114  0.00  0.00    +0.001 A 
ATOM     38  C   LIG    1       19.932 -28.487  13.549  0.00  0.00    +0.015 A 
ENDBRANCH  31  33
ENDBRANCH  30  31
ENDBRANCH  20  30
TORSDOF 7
ENDMDL
MODEL 5
REMARK VINA RESULT:      -5.6      2.339      6.861
REMARK  Name = *****
REMARK                            x       y       z     vdW  Elec       q    Type
REMARK                         _______ _______ _______ _____ _____    ______ ____
ROOT
ATOM      1  C   LIG    1       26.786 -30.536  10.713  0.00  0.00    +0.011 C 
ATOM      2  C   LIG    1       26.136 -29.358  10.740  0.00  0.00    -0.036 C 
ATOM      3  C   LIG    1       25.035 -28.995  11.761  0.00  0.00    +0.213 C 
ATOM      4  C   LIG    1       24.198 -30.104  12.540  0.00  0.00    +0.126 C 
ATOM      5  C   LIG    1       23.230 -31.250  11.873  0.00  0.00    +0.185 C 
ATOM      6  C   LIG    1       21.996 -31.284  12.863  0.00  0.00    +0.064 C 
ATOM      7  C   LIG    1       22.492 -30.655  14.150  0.00  0.00    +0.031 C 
ATOM      8  C   LIG    1       21.379 -30.378  15.147  0.00  0.00    +0.011 C 
ATOM      9  C   LIG    1       22.625 -31.052  10.432  0.00  0.00    +0.203 C 
ATOM     10  O   LIG    1       21.440 -30.779  10.223  0.00  0.00    -0.288 OA
ATOM     11  C   LIG    1       23.486 -31.184   9.236  0.00  0.00    -0.008 C 
ATOM     12  C   LIG    1       23.805 -32.508   8.629  0.00  0.00    +0.047 C 
ATOM     13  C   LIG    1       23.805 -30.018   8.654  0.00  0.00    -0.016 C 
ATOM     14  C   LIG    1       24.883 -29.873   7.682  0.00  0.00    +0.022 C 
ATOM     15  C   LIG    1       24.953 -29.104   6.401  0.00  0.00    -0.025 C 
ATOM     16  C   LIG    1       25.969 -29.554   5.381  0.00  0.00    +0.012 C 
ATOM     17  C   LIG    1       23.656 -28.631   5.791  0.00  0.00    +0.012 C 
ATOM     18  C   LIG    1       25.428 -28.463   7.700  0.00  0.00    +0.003 C 
ATOM     19  C   LIG    1       26.783 -28.371   8.330  0.00  0.00    +0.009 C 
ATOM     20  C   LIG    1       23.246 -29.445  13.601  0.00  0.00    +0.191 C 
ATOM     21  C   LIG    1       26.650 -28.185   9.868  0.00  0.00    +0.034 C 
ENDROOT
BRANCH   3  22
ATOM     22  O   LIG    1       25.868 -28.187  12.700  0.00  0.00    -0.457 OA
BRANCH  22  23
ATOM     23  C   LIG    1       26.563 -28.758  13.695  0.00  0.00    +0.304 C 
ATOM     24  O   LIG    1       27.504 -29.517  13.558  0.00  0.00    -0.251 OA
ATOM     25  C   LIG    1       26.112 -28.386  15.078  0.00  0.00    +0.136 C 
ENDBRANCH  22  23
ENDBRANCH   3  22
BRANCH   5  26
ATOM     26  O   LIG    1       23.950 -32.516  12.049  0.00  0.00    -0.450 OA
BRANCH  26  27
ATOM     27  C   LIG    1       24.754 -32.701  13.140  0.00  0.00    +0.305 C 
ATOM     28  O   LIG    1       25.842 -32.179  13.319  0.00  0.00    -0.251 OA
ATOM     29  C   LIG    1       24.124 -33.654  14.117  0.00  0.00    +0.136 C 
ENDBRANCH  26  27
ENDBRANCH   5  26
BRANCH  20  30
ATOM     30  O   LIG    1       22.382 -28.514  12.897  0.00  0.00    -0.457 OA
BRANCH  30  31
ATOM     31  C   LIG    1       22.375 -27.187  13.286  0.00  0.00    +0.340 C 
ATOM     32  O   LIG    1       23.265 -26.395  13.248  0.00  0.00    -0.245 OA
BRANCH  31  33
ATOM     33  C   LIG    1       20.976 -26.878  13.745  0.00  0.00    +0.059 A 
ATOM     34  C   LIG    1       20.087 -26.239  12.872  0.00  0.00    +0.015 A 
ATOM     35  C   LIG    1       18.762 -26.024  13.256  0.00  0.00    +0.001 A 
ATOM     36  C   LIG    1       18.302 -26.467  14.500  0.00  0.00    +0.000 A 
ATOM     37  C   LIG    1       19.168 -27.125  15.367  0.00  0.00    +0.001 A 
ATOM     38  C   LIG    1       20.493 -27.318  14.996  0.00  0.00    +0.015 A 
ENDBRANCH  31  33
ENDBRANCH  30  31
ENDBRANCH  20  30
TORSDOF 7
ENDMDL
