MODEL 1
REMARK VINA RESULT:      -7.0      0.000      0.000
REMARK  Name = *****
REMARK                            x       y       z     vdW  Elec       q    Type
REMARK                         _______ _______ _______ _____ _____    ______ ____
ROOT
ATOM      1  C   LIG    1       30.465 -19.340   7.496  0.00  0.00    +0.186 A 
ATOM      2  C   LIG    1       29.822 -20.590   7.544  0.00  0.00    +0.151 A 
ATOM      3  N   LIG    1       28.785 -20.872   6.718  0.00  0.00    -0.213 NA
ATOM      4  C   LIG    1       28.407 -19.906   5.852  0.00  0.00    +0.155 A 
ATOM      5  C   LIG    1       29.079 -18.674   5.810  0.00  0.00    +0.170 A 
ATOM      6 CL   LIG    1       28.637 -17.420   4.719  0.00  0.00    -0.058 Cl
ATOM      7  N   LIG    1       30.107 -18.355   6.622  0.00  0.00    -0.222 NA
ENDROOT
BRANCH   2   8
ATOM      8  N   LIG    1       30.096 -21.580   8.485  0.00  0.00    -0.341 N 
ATOM      9  H   LIG    1       30.349 -22.470   8.059  0.00  0.00    +0.144 HD
ATOM     10  H   LIG    1       29.329 -21.642   9.148  0.00  0.00    +0.144 HD
ENDBRANCH   2   8
BRANCH   4  11
ATOM     11  N   LIG    1       27.360 -20.245   4.992  0.00  0.00    -0.341 N 
ATOM     12  H   LIG    1       26.984 -21.142   5.287  0.00  0.00    +0.144 HD
ATOM     13  H   LIG    1       26.651 -19.520   4.945  0.00  0.00    +0.144 HD
ENDBRANCH   4  11
BRANCH   1  14
ATOM     14  C   LIG    1       31.642 -19.057   8.373  0.00  0.00    +0.362 C 
ATOM     15  O   LIG    1       32.129 -19.961   9.057  0.00  0.00    -0.246 OA
BRANCH  14  17
ATOM     16  C   LIG    1       32.258 -17.120   9.439  0.00  0.00    +0.375 C 
ATOM     17  N   LIG    1       32.109 -17.763   8.336  0.00  0.00    +0.002 NA
BRANCH  16  18
ATOM     18  N   LIG    1       32.716 -15.847   9.432  0.00  0.00    -0.291 N 
ATOM     19  H   LIG    1       33.376 -15.709   8.673  0.00  0.00    +0.255 HD
ATOM     20  H   LIG    1       33.122 -15.577  10.319  0.00  0.00    +0.255 HD
ENDBRANCH  16  18
BRANCH  16  21
ATOM     21  N   LIG    1       32.037 -17.524  10.711  0.00  0.00    -0.291 N 
ATOM     22  H   LIG    1       31.137 -17.997  10.805  0.00  0.00    +0.255 HD
ATOM     23  H   LIG    1       32.098 -16.759  11.373  0.00  0.00    +0.255 HD
ENDBRANCH  16  21
ENDBRANCH  14  17
ENDBRANCH   1  14
TORSDOF 6
ENDMDL
MODEL 2
REMARK VINA RESULT:      -6.7      2.162      2.833
REMARK  Name = *****
REMARK                            x       y       z     vdW  Elec       q    Type
REMARK                         _______ _______ _______ _____ _____    ______ ____
ROOT
ATOM      1  C   LIG    1       29.488 -20.056   7.393  0.00  0.00    +0.186 A 
ATOM      2  C   LIG    1       29.122 -19.389   6.210  0.00  0.00    +0.151 A 
ATOM      3  N   LIG    1       27.923 -19.624   5.621  0.00  0.00    -0.213 NA
ATOM      4  C   LIG    1       27.105 -20.515   6.224  0.00  0.00    +0.155 A 
ATOM      5  C   LIG    1       27.486 -21.151   7.416  0.00  0.00    +0.170 A 
ATOM      6 CL   LIG    1       26.474 -22.284   8.221  0.00  0.00    -0.058 Cl
ATOM      7  N   LIG    1       28.673 -20.950   8.024  0.00  0.00    -0.222 NA
ENDROOT
BRANCH   2   8
ATOM      8  N   LIG    1       29.964 -18.547   5.488  0.00  0.00    -0.341 N 
ATOM      9  H   LIG    1       29.505 -18.129   4.680  0.00  0.00    +0.144 HD
ATOM     10  H   LIG    1       30.827 -19.034   5.268  0.00  0.00    +0.144 HD
ENDBRANCH   2   8
BRANCH   4  11
ATOM     11  N   LIG    1       25.865 -20.704   5.610  0.00  0.00    -0.341 N 
ATOM     12  H   LIG    1       25.140 -20.422   6.264  0.00  0.00    +0.144 HD
ATOM     13  H   LIG    1       25.799 -20.220   4.720  0.00  0.00    +0.144 HD
ENDBRANCH   4  11
BRANCH   1  14
ATOM     14  C   LIG    1       30.789 -19.750   8.065  0.00  0.00    +0.362 C 
ATOM     15  O   LIG    1       31.835 -19.769   7.412  0.00  0.00    -0.246 OA
BRANCH  14  17
ATOM     16  C   LIG    1       31.131 -18.314   9.822  0.00  0.00    +0.375 C 
ATOM     17  N   LIG    1       30.705 -19.453   9.406  0.00  0.00    +0.002 NA
BRANCH  16  18
ATOM     18  N   LIG    1       31.061 -17.996  11.135  0.00  0.00    -0.291 N 
ATOM     19  H   LIG    1       31.943 -18.195  11.598  0.00  0.00    +0.255 HD
ATOM     20  H   LIG    1       30.293 -18.458  11.604  0.00  0.00    +0.255 HD
ENDBRANCH  16  18
BRANCH  16  21
ATOM     21  N   LIG    1       31.667 -17.285   9.125  0.00  0.00    -0.291 N 
ATOM     22  H   LIG    1       32.525 -17.561   8.646  0.00  0.00    +0.255 HD
ATOM     23  H   LIG    1       31.840 -16.475   9.709  0.00  0.00    +0.255 HD
ENDBRANCH  16  21
ENDBRANCH  14  17
ENDBRANCH   1  14
TORSDOF 6
ENDMDL
MODEL 3
REMARK VINA RESULT:      -6.4      6.187      7.902
REMARK  Name = *****
REMARK                            x       y       z     vdW  Elec       q    Type
REMARK                         _______ _______ _______ _____ _____    ______ ____
ROOT
ATOM      1  C   LIG    1       24.970 -23.579   6.758  0.00  0.00    +0.186 A 
ATOM      2  C   LIG    1       23.642 -24.021   6.623  0.00  0.00    +0.151 A 
ATOM      3  N   LIG    1       23.368 -25.297   6.255  0.00  0.00    -0.213 NA
ATOM      4  C   LIG    1       24.420 -26.115   6.036  0.00  0.00    +0.155 A 
ATOM      5  C   LIG    1       25.737 -25.654   6.199  0.00  0.00    +0.170 A 
ATOM      6 CL   LIG    1       27.105 -26.662   5.937  0.00  0.00    -0.058 Cl
ATOM      7  N   LIG    1       26.047 -24.391   6.552  0.00  0.00    -0.222 NA
ENDROOT
BRANCH   2   8
ATOM      8  N   LIG    1       22.524 -23.198   6.730  0.00  0.00    -0.341 N 
ATOM      9  H   LIG    1       22.629 -22.322   6.219  0.00  0.00    +0.144 HD
ATOM     10  H   LIG    1       22.279 -23.079   7.708  0.00  0.00    +0.144 HD
ENDBRANCH   2   8
BRANCH   4  11
ATOM     11  N   LIG    1       24.099 -27.431   5.695  0.00  0.00    -0.341 N 
ATOM     12  H   LIG    1       23.972 -27.477   4.688  0.00  0.00    +0.144 HD
ATOM     13  H   LIG    1       24.787 -28.095   6.035  0.00  0.00    +0.144 HD
ENDBRANCH   4  11
BRANCH   1  14
ATOM     14  C   LIG    1       25.264 -22.186   7.216  0.00  0.00    +0.362 C 
ATOM     15  O   LIG    1       24.712 -21.744   8.227  0.00  0.00    -0.246 OA
BRANCH  14  17
ATOM     16  C   LIG    1       25.729 -20.674   5.553  0.00  0.00    +0.375 C 
ATOM     17  N   LIG    1       26.167 -21.489   6.446  0.00  0.00    +0.002 NA
BRANCH  16  18
ATOM     18  N   LIG    1       26.595 -19.976   4.783  0.00  0.00    -0.291 N 
ATOM     19  H   LIG    1       26.780 -20.470   3.915  0.00  0.00    +0.255 HD
ATOM     20  H   LIG    1       27.457 -19.760   5.268  0.00  0.00    +0.255 HD
ENDBRANCH  16  18
BRANCH  16  21
ATOM     21  N   LIG    1       24.457 -20.350   5.228  0.00  0.00    -0.291 N 
ATOM     22  H   LIG    1       24.162 -20.806   4.363  0.00  0.00    +0.255 HD
ATOM     23  H   LIG    1       24.321 -19.349   5.157  0.00  0.00    +0.255 HD
ENDBRANCH  16  21
ENDBRANCH  14  17
ENDBRANCH   1  14
TORSDOF 6
ENDMDL
MODEL 4
REMARK VINA RESULT:      -6.3      3.050      4.472
REMARK  Name = *****
REMARK                            x       y       z     vdW  Elec       q    Type
REMARK                         _______ _______ _______ _____ _____    ______ ____
ROOT
ATOM      1  C   LIG    1       26.494 -21.012   6.590  0.00  0.00    +0.186 A 
ATOM      2  C   LIG    1       25.781 -22.223   6.534  0.00  0.00    +0.151 A 
ATOM      3  N   LIG    1       24.865 -22.448   5.561  0.00  0.00    -0.213 NA
ATOM      4  C   LIG    1       24.679 -21.466   4.652  0.00  0.00    +0.155 A 
ATOM      5  C   LIG    1       25.419 -20.274   4.716  0.00  0.00    +0.170 A 
ATOM      6 CL   LIG    1       25.220 -19.003   3.577  0.00  0.00    -0.058 Cl
ATOM      7  N   LIG    1       26.329 -20.012   5.676  0.00  0.00    -0.222 NA
ENDROOT
BRANCH   2   8
ATOM      8  N   LIG    1       25.852 -23.222   7.502  0.00  0.00    -0.341 N 
ATOM      9  H   LIG    1       26.349 -24.052   7.177  0.00  0.00    +0.144 HD
ATOM     10  H   LIG    1       24.924 -23.413   7.866  0.00  0.00    +0.144 HD
ENDBRANCH   2   8
BRANCH   4  11
ATOM     11  N   LIG    1       23.755 -21.748   3.642  0.00  0.00    -0.341 N 
ATOM     12  H   LIG    1       24.269 -22.024   2.810  0.00  0.00    +0.144 HD
ATOM     13  H   LIG    1       23.072 -22.441   3.929  0.00  0.00    +0.144 HD
ENDBRANCH   4  11
BRANCH   1  14
ATOM     14  C   LIG    1       27.541 -20.794   7.635  0.00  0.00    +0.362 C 
ATOM     15  O   LIG    1       27.385 -21.263   8.765  0.00  0.00    -0.246 OA
BRANCH  14  17
ATOM     16  C   LIG    1       29.813 -20.484   7.540  0.00  0.00    +0.375 C 
ATOM     17  N   LIG    1       28.637 -20.066   7.231  0.00  0.00    +0.002 NA
BRANCH  16  18
ATOM     18  N   LIG    1       30.908 -19.788   7.155  0.00  0.00    -0.291 N 
ATOM     19  H   LIG    1       31.654 -20.420   6.882  0.00  0.00    +0.255 HD
ATOM     20  H   LIG    1       31.223 -19.140   7.866  0.00  0.00    +0.255 HD
ENDBRANCH  16  18
BRANCH  16  21
ATOM     21  N   LIG    1       30.185 -21.590   8.223  0.00  0.00    -0.291 N 
ATOM     22  H   LIG    1       31.199 -21.713   8.219  0.00  0.00    +0.255 HD
ATOM     23  H   LIG    1       29.732 -22.427   7.875  0.00  0.00    +0.255 HD
ENDBRANCH  16  21
ENDBRANCH  14  17
ENDBRANCH   1  14
TORSDOF 6
ENDMDL
MODEL 5
REMARK VINA RESULT:      -6.3      4.735      6.211
REMARK  Name = *****
REMARK                            x       y       z     vdW  Elec       q    Type
REMARK                         _______ _______ _______ _____ _____    ______ ____
ROOT
ATOM      1  C   LIG    1       25.502 -21.985   7.564  0.00  0.00    +0.186 A 
ATOM      2  C   LIG    1       24.105 -21.916   7.412  0.00  0.00    +0.151 A 
ATOM      3  N   LIG    1       23.406 -22.965   6.913  0.00  0.00    -0.213 NA
ATOM      4  C   LIG    1       24.108 -24.070   6.580  0.00  0.00    +0.155 A 
ATOM      5  C   LIG    1       25.500 -24.122   6.761  0.00  0.00    +0.170 A 
ATOM      6 CL   LIG    1       26.431 -25.510   6.357  0.00  0.00    -0.058 Cl
ATOM      7  N   LIG    1       26.229 -23.095   7.244  0.00  0.00    -0.222 NA
ENDROOT
BRANCH   2   8
ATOM      8  N   LIG    1       23.346 -20.770   7.635  0.00  0.00    -0.341 N 
ATOM      9  H   LIG    1       23.834 -19.915   7.370  0.00  0.00    +0.144 HD
ATOM     10  H   LIG    1       23.001 -20.769   8.591  0.00  0.00    +0.144 HD
ENDBRANCH   2   8
BRANCH   4  11
ATOM     11  N   LIG    1       23.351 -25.143   6.104  0.00  0.00    -0.341 N 
ATOM     12  H   LIG    1       23.944 -25.709   5.503  0.00  0.00    +0.144 HD
ATOM     13  H   LIG    1       22.929 -25.679   6.856  0.00  0.00    +0.144 HD
ENDBRANCH   4  11
BRANCH   1  14
ATOM     14  C   LIG    1       26.258 -20.844   8.164  0.00  0.00    +0.362 C 
ATOM     15  O   LIG    1       26.098 -20.562   9.354  0.00  0.00    -0.246 OA
BRANCH  14  17
ATOM     16  C   LIG    1       28.358 -20.488   7.310  0.00  0.00    +0.375 C 
ATOM     17  N   LIG    1       27.110 -20.183   7.308  0.00  0.00    +0.002 NA
BRANCH  16  18
ATOM     18  N   LIG    1       29.217 -19.854   6.479  0.00  0.00    -0.291 N 
ATOM     19  H   LIG    1       29.266 -20.332   5.584  0.00  0.00    +0.255 HD
ATOM     20  H   LIG    1       30.139 -19.747   6.883  0.00  0.00    +0.255 HD
ENDBRANCH  16  18
BRANCH  16  21
ATOM     21  N   LIG    1       29.021 -21.413   8.041  0.00  0.00    -0.291 N 
ATOM     22  H   LIG    1       29.529 -22.070   7.446  0.00  0.00    +0.255 HD
ATOM     23  H   LIG    1       28.408 -21.917   8.670  0.00  0.00    +0.255 HD
ENDBRANCH  16  21
ENDBRANCH  14  17
ENDBRANCH   1  14
TORSDOF 6
ENDMDL
MODEL 6
REMARK VINA RESULT:      -6.3      3.667      5.192
REMARK  Name = *****
REMARK                            x       y       z     vdW  Elec       q    Type
REMARK                         _______ _______ _______ _____ _____    ______ ____
ROOT
ATOM      1  C   LIG    1       26.138 -21.079   6.971  0.00  0.00    +0.186 A 
ATOM      2  C   LIG    1       26.356 -20.517   5.700  0.00  0.00    +0.151 A 
ATOM      3  N   LIG    1       25.467 -20.706   4.694  0.00  0.00    -0.213 NA
ATOM      4  C   LIG    1       24.371 -21.445   4.971  0.00  0.00    +0.155 A 
ATOM      5  C   LIG    1       24.166 -21.977   6.254  0.00  0.00    +0.170 A 
ATOM      6 CL   LIG    1       22.782 -22.917   6.652  0.00  0.00    -0.058 Cl
ATOM      7  N   LIG    1       25.033 -21.820   7.275  0.00  0.00    -0.222 NA
ENDROOT
BRANCH   2   8
ATOM      8  N   LIG    1       27.515 -19.841   5.328  0.00  0.00    -0.341 N 
ATOM      9  H   LIG    1       27.524 -18.871   5.643  0.00  0.00    +0.144 HD
ATOM     10  H   LIG    1       27.671 -19.953   4.331  0.00  0.00    +0.144 HD
ENDBRANCH   2   8
BRANCH   4  11
ATOM     11  N   LIG    1       23.460 -21.586   3.921  0.00  0.00    -0.341 N 
ATOM     12  H   LIG    1       22.763 -20.850   4.004  0.00  0.00    +0.144 HD
ATOM     13  H   LIG    1       23.916 -21.594   3.015  0.00  0.00    +0.144 HD
ENDBRANCH   4  11
BRANCH   1  14
ATOM     14  C   LIG    1       27.096 -20.822   8.090  0.00  0.00    +0.362 C 
ATOM     15  O   LIG    1       26.730 -20.175   9.074  0.00  0.00    -0.246 OA
BRANCH  14  17
ATOM     16  C   LIG    1       29.376 -20.582   7.993  0.00  0.00    +0.375 C 
ATOM     17  N   LIG    1       28.353 -21.357   7.925  0.00  0.00    +0.002 NA
BRANCH  16  18
ATOM     18  N   LIG    1       30.623 -21.081   7.836  0.00  0.00    -0.291 N 
ATOM     19  H   LIG    1       30.698 -21.587   6.958  0.00  0.00    +0.255 HD
ATOM     20  H   LIG    1       30.909 -21.662   8.614  0.00  0.00    +0.255 HD
ENDBRANCH  16  18
BRANCH  16  21
ATOM     21  N   LIG    1       29.438 -19.251   8.227  0.00  0.00    -0.291 N 
ATOM     22  H   LIG    1       29.026 -18.714   7.462  0.00  0.00    +0.255 HD
ATOM     23  H   LIG    1       30.384 -18.935   8.404  0.00  0.00    +0.255 HD
ENDBRANCH  16  21
ENDBRANCH  14  17
ENDBRANCH   1  14
TORSDOF 6
ENDMDL
MODEL 7
REMARK VINA RESULT:      -6.2      6.375      9.070
REMARK  Name = *****
REMARK                            x       y       z     vdW  Elec       q    Type
REMARK                         _______ _______ _______ _____ _____    ______ ____
ROOT
ATOM      1  C   LIG    1       24.816 -23.946   6.416  0.00  0.00    +0.186 A 
ATOM      2  C   LIG    1       23.678 -23.244   6.852  0.00  0.00    +0.151 A 
ATOM      3  N   LIG    1       23.797 -22.116   7.594  0.00  0.00    -0.213 NA
ATOM      4  C   LIG    1       25.049 -21.699   7.884  0.00  0.00    +0.155 A 
ATOM      5  C   LIG    1       26.170 -22.406   7.419  0.00  0.00    +0.170 A 
ATOM      6 CL   LIG    1       27.780 -21.908   7.759  0.00  0.00    -0.058 Cl
ATOM      7  N   LIG    1       26.089 -23.537   6.689  0.00  0.00    -0.222 NA
ENDROOT
BRANCH   2   8
ATOM      8  N   LIG    1       22.368 -23.683   6.676  0.00  0.00    -0.341 N 
ATOM      9  H   LIG    1       21.729 -23.311   7.379  0.00  0.00    +0.144 HD
ATOM     10  H   LIG    1       22.354 -24.696   6.600  0.00  0.00    +0.144 HD
ENDBRANCH   2   8
BRANCH   4  11
ATOM     11  N   LIG    1       25.134 -20.514   8.619  0.00  0.00    -0.341 N 
ATOM     12  H   LIG    1       24.311 -19.953   8.413  0.00  0.00    +0.144 HD
ATOM     13  H   LIG    1       25.254 -20.685   9.612  0.00  0.00    +0.144 HD
ENDBRANCH   4  11
BRANCH   1  14
ATOM     14  C   LIG    1       24.676 -25.158   5.553  0.00  0.00    +0.362 C 
ATOM     15  O   LIG    1       25.039 -25.117   4.375  0.00  0.00    -0.246 OA
BRANCH  14  17
ATOM     16  C   LIG    1       24.809 -27.364   6.174  0.00  0.00    +0.375 C 
ATOM     17  N   LIG    1       24.142 -26.266   6.171  0.00  0.00    +0.002 NA
BRANCH  16  18
ATOM     18  N   LIG    1       24.307 -28.467   6.775  0.00  0.00    -0.291 N 
ATOM     19  H   LIG    1       24.880 -29.279   6.566  0.00  0.00    +0.255 HD
ATOM     20  H   LIG    1       23.339 -28.634   6.531  0.00  0.00    +0.255 HD
ENDBRANCH  16  18
BRANCH  16  21
ATOM     21  N   LIG    1       26.029 -27.635   5.655  0.00  0.00    -0.291 N 
ATOM     22  H   LIG    1       26.106 -28.611   5.365  0.00  0.00    +0.255 HD
ATOM     23  H   LIG    1       26.779 -27.402   6.294  0.00  0.00    +0.255 HD
ENDBRANCH  16  21
ENDBRANCH  14  17
ENDBRANCH   1  14
TORSDOF 6
ENDMDL
MODEL 8
REMARK VINA RESULT:      -6.2      3.715      6.557
REMARK  Name = *****
REMARK                            x       y       z     vdW  Elec       q    Type
REMARK                         _______ _______ _______ _____ _____    ______ ____
ROOT
ATOM      1  C   LIG    1       27.294 -21.280   7.621  0.00  0.00    +0.186 A 
ATOM      2  C   LIG    1       27.204 -20.504   6.451  0.00  0.00    +0.151 A 
ATOM      3  N   LIG    1       28.277 -19.817   5.988  0.00  0.00    -0.213 NA
ATOM      4  C   LIG    1       29.425 -19.920   6.692  0.00  0.00    +0.155 A 
ATOM      5  C   LIG    1       29.495 -20.719   7.844  0.00  0.00    +0.170 A 
ATOM      6 CL   LIG    1       30.937 -20.885   8.765  0.00  0.00    -0.058 Cl
ATOM      7  N   LIG    1       28.446 -21.407   8.340  0.00  0.00    -0.222 NA
ENDROOT
BRANCH   2   8
ATOM      8  N   LIG    1       26.024 -20.274   5.748  0.00  0.00    -0.341 N 
ATOM      9  H   LIG    1       25.895 -20.921   4.971  0.00  0.00    +0.144 HD
ATOM     10  H   LIG    1       25.968 -19.295   5.484  0.00  0.00    +0.144 HD
ENDBRANCH   2   8
BRANCH   4  11
ATOM     11  N   LIG    1       30.519 -19.229   6.164  0.00  0.00    -0.341 N 
ATOM     12  H   LIG    1       31.368 -19.644   6.539  0.00  0.00    +0.144 HD
ATOM     13  H   LIG    1       30.507 -19.209   5.149  0.00  0.00    +0.144 HD
ENDBRANCH   4  11
BRANCH   1  14
ATOM     14  C   LIG    1       26.121 -22.077   8.095  0.00  0.00    +0.362 C 
ATOM     15  O   LIG    1       25.585 -21.799   9.170  0.00  0.00    -0.246 OA
BRANCH  14  17
ATOM     16  C   LIG    1       24.479 -23.162   6.914  0.00  0.00    +0.375 C 
ATOM     17  N   LIG    1       25.716 -23.089   7.254  0.00  0.00    +0.002 NA
BRANCH  16  18
ATOM     18  N   LIG    1       24.054 -24.146   6.089  0.00  0.00    -0.291 N 
ATOM     19  H   LIG    1       24.443 -25.041   6.371  0.00  0.00    +0.255 HD
ATOM     20  H   LIG    1       24.259 -23.952   5.117  0.00  0.00    +0.255 HD
ENDBRANCH  16  18
BRANCH  16  21
ATOM     21  N   LIG    1       23.443 -22.358   7.245  0.00  0.00    -0.291 N 
ATOM     22  H   LIG    1       23.074 -22.581   8.171  0.00  0.00    +0.255 HD
ATOM     23  H   LIG    1       22.699 -22.387   6.558  0.00  0.00    +0.255 HD
ENDBRANCH  16  21
ENDBRANCH  14  17
ENDBRANCH   1  14
TORSDOF 6
ENDMDL
MODEL 9
REMARK VINA RESULT:      -6.2      2.487      5.346
REMARK  Name = *****
REMARK                            x       y       z     vdW  Elec       q    Type
REMARK                         _______ _______ _______ _____ _____    ______ ____
ROOT
ATOM      1  C   LIG    1       29.687 -19.219   8.116  0.00  0.00    +0.186 A 
ATOM      2  C   LIG    1       30.811 -18.979   7.304  0.00  0.00    +0.151 A 
ATOM      3  N   LIG    1       31.790 -18.131   7.704  0.00  0.00    -0.213 NA
ATOM      4  C   LIG    1       31.640 -17.540   8.909  0.00  0.00    +0.155 A 
ATOM      5  C   LIG    1       30.519 -17.813   9.710  0.00  0.00    +0.170 A 
ATOM      6 CL   LIG    1       30.291 -17.090  11.253  0.00  0.00    -0.058 Cl
ATOM      7  N   LIG    1       29.521 -18.642   9.341  0.00  0.00    -0.222 NA
ENDROOT
BRANCH   2   8
ATOM      8  N   LIG    1       30.967 -19.472   6.011  0.00  0.00    -0.341 N 
ATOM      9  H   LIG    1       30.345 -20.255   5.810  0.00  0.00    +0.144 HD
ATOM     10  H   LIG    1       31.948 -19.669   5.836  0.00  0.00    +0.144 HD
ENDBRANCH   2   8
BRANCH   4  11
ATOM     11  N   LIG    1       32.686 -16.703   9.304  0.00  0.00    -0.341 N 
ATOM     12  H   LIG    1       32.676 -16.639  10.319  0.00  0.00    +0.144 HD
ATOM     13  H   LIG    1       33.582 -17.009   8.939  0.00  0.00    +0.144 HD
ENDBRANCH   4  11
BRANCH   1  14
ATOM     14  C   LIG    1       28.639 -20.196   7.691  0.00  0.00    +0.362 C 
ATOM     15  O   LIG    1       28.214 -21.028   8.497  0.00  0.00    -0.246 OA
BRANCH  14  17
ATOM     16  C   LIG    1       26.967 -20.249   6.120  0.00  0.00    +0.375 C 
ATOM     17  N   LIG    1       28.212 -20.076   6.388  0.00  0.00    +0.002 NA
BRANCH  16  18
ATOM     18  N   LIG    1       26.520 -20.137   4.848  0.00  0.00    -0.291 N 
ATOM     19  H   LIG    1       25.734 -19.495   4.801  0.00  0.00    +0.255 HD
ATOM     20  H   LIG    1       26.281 -21.032   4.441  0.00  0.00    +0.255 HD
ENDBRANCH  16  18
BRANCH  16  21
ATOM     21  N   LIG    1       25.935 -20.533   6.948  0.00  0.00    -0.291 N 
ATOM     22  H   LIG    1       25.145 -20.934   6.442  0.00  0.00    +0.255 HD
ATOM     23  H   LIG    1       25.635 -19.724   7.479  0.00  0.00    +0.255 HD
ENDBRANCH  16  21
ENDBRANCH  14  17
ENDBRANCH   1  14
TORSDOF 6
ENDMDL
