MODEL 1
REMARK VINA RESULT:      32.1      0.000      0.000
REMARK  Name = *****
REMARK                            x       y       z     vdW  Elec       q    Type
REMARK                         _______ _______ _______ _____ _____    ______ ____
ROOT
ATOM      1  C   LIG    1       25.304 -13.422   4.225  0.00  0.00    +0.201 C 
ATOM      2  C   LIG    1       25.739 -14.699   4.366  0.00  0.00    +0.169 C 
ATOM      3  C   LIG    1       26.795 -15.041   5.407  0.00  0.00    +0.270 C 
ATOM      4  O   LIG    1       27.003 -14.363   6.407  0.00  0.00    -0.268 OA
ATOM      5  N   LIG    1       27.515 -16.209   5.141  0.00  0.00    -0.272 N 
ATOM      6  C   LIG    1       27.286 -16.909   3.887  0.00  0.00    +0.206 C 
ATOM      7  N   LIG    1       25.822 -17.070   3.679  0.00  0.00    -0.236 NA
ATOM      8  C   LIG    1       28.224 -18.114   3.652  0.00  0.00    +0.203 C 
ATOM      9  O   LIG    1       28.652 -18.742   4.854  0.00  0.00    -0.375 OA
ATOM     10  C   LIG    1       29.347 -17.860   5.734  0.00  0.00    +0.179 C 
ATOM     11  C   LIG    1       28.786 -16.431   5.823  0.00  0.00    +0.138 C 
ATOM     12  N   LIG    1       25.331 -15.737   3.505  0.00  0.00    -0.260 NA
ATOM     13  C   LIG    1       24.709 -15.440   2.314  0.00  0.00    +0.113 C 
ATOM     14  C   LIG    1       24.238 -14.226   2.023  0.00  0.00    +0.074 C 
ATOM     15  C   LIG    1       24.367 -13.177   3.060  0.00  0.00    +0.224 C 
ATOM     16  O   LIG    1       23.725 -12.141   2.915  0.00  0.00    -0.284 OA
ENDROOT
BRANCH   7  17
ATOM     17  C   LIG    1       25.020 -17.791   4.747  0.00  0.00    +0.154 C 
ATOM     18  C   LIG    1       23.477 -17.804   4.484  0.00  0.00    -0.014 C 
ATOM     19  C   LIG    1       22.780 -18.647   3.584  0.00  0.00    +0.006 C 
ATOM     20  C   LIG    1       21.386 -18.436   3.403  0.00  0.00    +0.163 C 
ATOM     21  C   LIG    1       20.674 -17.485   4.115  0.00  0.00    +0.159 C 
ATOM     22  C   LIG    1       21.327 -16.696   5.038  0.00  0.00    +0.041 C 
ATOM     23  F   LIG    1       19.353 -17.353   3.934  0.00  0.00    -0.203 F 
ATOM     24  F   LIG    1       20.714 -19.205   2.527  0.00  0.00    -0.202 F 
ATOM     25  C   LIG    1       23.276 -19.865   2.845  0.00  0.00    +0.112 C 
ATOM     26  S   LIG    1       25.032 -20.162   2.598  0.00  0.00    -0.120 S 
ATOM     27  C   LIG    1       25.629 -20.248   4.271  0.00  0.00    +0.013 C 
ATOM     28  C   LIG    1       26.326 -21.408   4.656  0.00  0.00    +0.015 C 
ATOM     29  C   LIG    1       26.891 -21.524   5.927  0.00  0.00    +0.001 C 
ATOM     30  C   LIG    1       26.729 -20.497   6.845  0.00  0.00    +0.000 C 
ATOM     31  C   LIG    1       26.065 -19.329   6.465  0.00  0.00    +0.007 C 
ATOM     32  C   LIG    1       22.709 -16.843   5.206  0.00  0.00    +0.009 C 
ATOM     33  C   LIG    1       25.551 -19.164   5.156  0.00  0.00    -0.008 C 
ENDBRANCH   7  17
BRANCH   1  34
ATOM     34  O   LIG    1       25.729 -12.401   5.059  0.00  0.00    -0.450 OA
BRANCH  34  35
ATOM     35  C   LIG    1       26.978 -11.769   4.778  0.00  0.00    +0.473 C 
BRANCH  35  36
ATOM     36  O   LIG    1       27.536 -12.290   3.569  0.00  0.00    -0.397 OA
BRANCH  36  37
ATOM     37  C   LIG    1       28.837 -12.662   3.707  0.00  0.00    +0.513 C 
ATOM     38  O   LIG    1       29.338 -13.677   3.298  0.00  0.00    -0.203 OA
BRANCH  37  40
ATOM     39  C   LIG    1       29.259 -11.681   5.804  0.00  0.00    +0.284 C 
ATOM     40  O   LIG    1       29.475 -11.674   4.393  0.00  0.00    -0.437 OA
ENDBRANCH  37  40
ENDBRANCH  36  37
ENDBRANCH  35  36
ENDBRANCH  34  35
ENDBRANCH   1  34
TORSDOF 6
ENDMDL
MODEL 2
REMARK VINA RESULT:      34.0      2.117      3.240
REMARK  Name = *****
REMARK                            x       y       z     vdW  Elec       q    Type
REMARK                         _______ _______ _______ _____ _____    ______ ____
ROOT
ATOM      1  C   LIG    1       26.715 -14.551   3.324  0.00  0.00    +0.201 C 
ATOM      2  C   LIG    1       26.111 -15.750   3.519  0.00  0.00    +0.169 C 
ATOM      3  C   LIG    1       26.932 -16.967   3.922  0.00  0.00    +0.270 C 
ATOM      4  O   LIG    1       28.020 -16.894   4.483  0.00  0.00    -0.268 OA
ATOM      5  N   LIG    1       26.340 -18.194   3.610  0.00  0.00    -0.272 N 
ATOM      6  C   LIG    1       25.098 -18.207   2.854  0.00  0.00    +0.206 C 
ATOM      7  N   LIG    1       24.145 -17.243   3.467  0.00  0.00    -0.236 NA
ATOM      8  C   LIG    1       24.605 -19.619   2.465  0.00  0.00    +0.203 C 
ATOM      9  O   LIG    1       24.992 -20.629   3.389  0.00  0.00    -0.375 OA
ATOM     10  C   LIG    1       26.406 -20.729   3.554  0.00  0.00    +0.179 C 
ATOM     11  C   LIG    1       27.169 -19.395   3.577  0.00  0.00    +0.138 C 
ATOM     12  N   LIG    1       24.742 -15.959   3.261  0.00  0.00    -0.260 NA
ATOM     13  C   LIG    1       24.032 -15.040   2.523  0.00  0.00    +0.113 C 
ATOM     14  C   LIG    1       24.497 -13.823   2.236  0.00  0.00    +0.074 C 
ATOM     15  C   LIG    1       25.824 -13.452   2.781  0.00  0.00    +0.224 C 
ATOM     16  O   LIG    1       26.153 -12.271   2.744  0.00  0.00    -0.284 OA
ENDROOT
BRANCH   7  17
ATOM     17  C   LIG    1       23.781 -17.424   4.931  0.00  0.00    +0.154 C 
ATOM     18  C   LIG    1       22.819 -16.324   5.488  0.00  0.00    -0.014 C 
ATOM     19  C   LIG    1       21.419 -16.245   5.290  0.00  0.00    +0.006 C 
ATOM     20  C   LIG    1       20.728 -15.107   5.788  0.00  0.00    +0.163 C 
ATOM     21  C   LIG    1       21.357 -14.107   6.510  0.00  0.00    +0.159 C 
ATOM     22  C   LIG    1       22.710 -14.196   6.762  0.00  0.00    +0.041 C 
ATOM     23  F   LIG    1       20.652 -13.073   6.990  0.00  0.00    -0.203 F 
ATOM     24  F   LIG    1       19.403 -15.000   5.580  0.00  0.00    -0.202 F 
ATOM     25  C   LIG    1       20.481 -17.279   4.718  0.00  0.00    +0.112 C 
ATOM     26  S   LIG    1       21.085 -18.635   3.704  0.00  0.00    -0.120 S 
ATOM     27  C   LIG    1       22.203 -19.457   4.816  0.00  0.00    +0.013 C 
ATOM     28  C   LIG    1       21.989 -20.825   5.064  0.00  0.00    +0.015 C 
ATOM     29  C   LIG    1       22.863 -21.561   5.866  0.00  0.00    +0.001 C 
ATOM     30  C   LIG    1       23.941 -20.926   6.465  0.00  0.00    +0.000 C 
ATOM     31  C   LIG    1       24.181 -19.576   6.202  0.00  0.00    +0.007 C 
ATOM     32  C   LIG    1       23.430 -15.279   6.244  0.00  0.00    +0.009 C 
ATOM     33  C   LIG    1       23.348 -18.833   5.332  0.00  0.00    -0.008 C 
ENDBRANCH   7  17
BRANCH   1  34
ATOM     34  O   LIG    1       28.067 -14.358   3.556  0.00  0.00    -0.450 OA
BRANCH  34  35
ATOM     35  C   LIG    1       28.531 -13.031   3.808  0.00  0.00    +0.473 C 
BRANCH  35  36
ATOM     36  O   LIG    1       28.578 -12.781   5.215  0.00  0.00    -0.397 OA
BRANCH  36  37
ATOM     37  C   LIG    1       27.380 -12.983   5.827  0.00  0.00    +0.513 C 
ATOM     38  O   LIG    1       27.077 -13.921   6.516  0.00  0.00    -0.203 OA
BRANCH  37  40
ATOM     39  C   LIG    1       25.200 -12.093   5.843  0.00  0.00    +0.284 C 
ATOM     40  O   LIG    1       26.580 -11.924   5.517  0.00  0.00    -0.437 OA
ENDBRANCH  37  40
ENDBRANCH  36  37
ENDBRANCH  35  36
ENDBRANCH  34  35
ENDBRANCH   1  34
TORSDOF 6
ENDMDL
