MODEL 1
REMARK VINA RESULT:      14.9      0.000      0.000
REMARK  Name = *****
REMARK                            x       y       z     vdW  Elec       q    Type
REMARK                         _______ _______ _______ _____ _____    ______ ____
ROOT
ATOM      1  C   LIG    1       23.418 -20.259   5.447  0.00  0.00    +0.011 C 
ATOM      2  C   LIG    1       22.926 -18.950   4.752  0.00  0.00    +0.008 C 
ATOM      3  C   LIG    1       21.865 -19.246   3.669  0.00  0.00    +0.005 C 
ATOM      4  C   LIG    1       20.715 -20.124   4.154  0.00  0.00    +0.000 C 
ATOM      5  C   LIG    1       21.209 -21.390   4.842  0.00  0.00    +0.000 C 
ATOM      6  C   LIG    1       22.215 -21.082   5.946  0.00  0.00    +0.005 C 
ENDROOT
BRANCH   1   7
ATOM      7  C   LIG    1       24.372 -21.060   4.510  0.00  0.00    +0.120 C 
BRANCH   7  10
ATOM      8  O   LIG    1       26.142 -19.472   2.848  0.00  0.00    -0.275 OA
ATOM      9  C   LIG    1       26.525 -20.010   3.876  0.00  0.00    +0.226 C 
ATOM     10  N   LIG    1       25.780 -20.763   4.734  0.00  0.00    -0.241 N 
ATOM     11  C   LIG    1       26.456 -21.069   5.888  0.00  0.00    +0.226 C 
ATOM     12  O   LIG    1       25.982 -21.571   6.908  0.00  0.00    -0.275 OA
ATOM     13  C   LIG    1       27.901 -20.656   5.733  0.00  0.00    +0.091 C 
ATOM     14  C   LIG    1       28.500 -19.631   6.724  0.00  0.00    +0.002 C 
ATOM     15  C   LIG    1       29.475 -18.858   5.821  0.00  0.00    +0.008 C 
ATOM     16  C   LIG    1       28.384 -18.488   4.810  0.00  0.00    +0.002 C 
ATOM     17  C   LIG    1       27.352 -17.781   5.717  0.00  0.00    +0.004 C 
ATOM     18  C   LIG    1       27.504 -18.511   7.059  0.00  0.00    +0.004 C 
ATOM     19  C   LIG    1       27.927 -19.894   4.405  0.00  0.00    +0.091 C 
ENDBRANCH   7  10
ENDBRANCH   1   7
BRANCH   2  20
ATOM     20  C   LIG    1       22.394 -17.887   5.761  0.00  0.00    +0.088 C 
BRANCH  20  21
ATOM     21  N   LIG    1       21.659 -16.773   5.144  0.00  0.00    -0.299 NA
ATOM     22  C   LIG    1       21.879 -15.453   5.775  0.00  0.00    +0.103 C 
ATOM     23  C   LIG    1       23.203 -14.750   5.407  0.00  0.00    +0.122 C 
ATOM     24  N   LIG    1       23.280 -14.603   3.943  0.00  0.00    -0.312 N 
ATOM     25  C   LIG    1       23.222 -15.922   3.275  0.00  0.00    +0.122 C 
ATOM     26  C   LIG    1       21.922 -16.668   3.684  0.00  0.00    +0.103 C 
BRANCH  24  27
ATOM     27  C   LIG    1       24.164 -13.676   3.449  0.00  0.00    +0.138 A 
ATOM     28  C   LIG    1       25.609 -13.862   3.560  0.00  0.00    +0.031 A 
ATOM     29  C   LIG    1       26.276 -12.747   3.047  0.00  0.00    +0.041 A 
ATOM     30  C   LIG    1       27.678 -12.625   3.056  0.00  0.00    +0.017 A 
ATOM     31  C   LIG    1       28.432 -13.658   3.613  0.00  0.00    +0.001 A 
ATOM     32  C   LIG    1       27.807 -14.787   4.130  0.00  0.00    +0.001 A 
ATOM     33  S   LIG    1       25.100 -11.645   2.468  0.00  0.00    +0.014 S 
ATOM     34  C   LIG    1       26.409 -14.900   4.111  0.00  0.00    +0.012 A 
ATOM     35  N   LIG    1       23.779 -12.523   2.903  0.00  0.00    -0.194 NA
ENDBRANCH  24  27
ENDBRANCH  20  21
ENDBRANCH   2  20
TORSDOF 5
ENDMDL
MODEL 2
REMARK VINA RESULT:      16.8      2.265      5.968
REMARK  Name = *****
REMARK                            x       y       z     vdW  Elec       q    Type
REMARK                         _______ _______ _______ _____ _____    ______ ____
ROOT
ATOM      1  C   LIG    1       26.779 -15.463   4.283  0.00  0.00    +0.011 C 
ATOM      2  C   LIG    1       26.447 -14.538   5.497  0.00  0.00    +0.008 C 
ATOM      3  C   LIG    1       27.234 -13.211   5.431  0.00  0.00    +0.005 C 
ATOM      4  C   LIG    1       27.120 -12.490   4.091  0.00  0.00    +0.000 C 
ATOM      5  C   LIG    1       27.432 -13.407   2.917  0.00  0.00    +0.000 C 
ATOM      6  C   LIG    1       26.609 -14.691   2.961  0.00  0.00    +0.005 C 
ENDROOT
BRANCH   1   7
ATOM      7  C   LIG    1       28.188 -16.110   4.447  0.00  0.00    +0.120 C 
BRANCH   7  10
ATOM      8  O   LIG    1       29.474 -17.672   6.527  0.00  0.00    -0.275 OA
ATOM      9  C   LIG    1       28.795 -18.188   5.652  0.00  0.00    +0.226 C 
ATOM     10  N   LIG    1       28.139 -17.553   4.641  0.00  0.00    -0.241 N 
ATOM     11  C   LIG    1       27.316 -18.395   3.936  0.00  0.00    +0.226 C 
ATOM     12  O   LIG    1       26.472 -18.071   3.099  0.00  0.00    -0.275 OA
ATOM     13  C   LIG    1       27.580 -19.817   4.375  0.00  0.00    +0.091 C 
ATOM     14  C   LIG    1       26.419 -20.647   4.970  0.00  0.00    +0.002 C 
ATOM     15  C   LIG    1       27.152 -21.502   6.017  0.00  0.00    +0.008 C 
ATOM     16  C   LIG    1       27.744 -20.281   6.729  0.00  0.00    +0.002 C 
ATOM     17  C   LIG    1       26.470 -19.472   7.061  0.00  0.00    +0.004 C 
ATOM     18  C   LIG    1       25.528 -19.803   5.894  0.00  0.00    +0.004 C 
ATOM     19  C   LIG    1       28.530 -19.665   5.566  0.00  0.00    +0.091 C 
ENDBRANCH   7  10
ENDBRANCH   1   7
BRANCH   2  20
ATOM     20  C   LIG    1       24.921 -14.261   5.651  0.00  0.00    +0.088 C 
BRANCH  20  21
ATOM     21  N   LIG    1       24.161 -14.308   4.394  0.00  0.00    -0.299 NA
ATOM     22  C   LIG    1       24.475 -15.457   3.515  0.00  0.00    +0.103 C 
ATOM     23  C   LIG    1       23.837 -16.802   3.923  0.00  0.00    +0.122 C 
ATOM     24  N   LIG    1       22.375 -16.640   3.998  0.00  0.00    -0.312 N 
ATOM     25  C   LIG    1       22.008 -15.603   4.988  0.00  0.00    +0.122 C 
ATOM     26  C   LIG    1       22.692 -14.256   4.625  0.00  0.00    +0.103 C 
BRANCH  24  27
ATOM     27  C   LIG    1       21.612 -17.780   3.956  0.00  0.00    +0.138 A 
ATOM     28  C   LIG    1       21.994 -18.984   4.693  0.00  0.00    +0.031 A 
ATOM     29  C   LIG    1       21.092 -20.016   4.423  0.00  0.00    +0.041 A 
ATOM     30  C   LIG    1       21.228 -21.308   4.962  0.00  0.00    +0.017 A 
ATOM     31  C   LIG    1       22.318 -21.572   5.792  0.00  0.00    +0.001 A 
ATOM     32  C   LIG    1       23.235 -20.571   6.089  0.00  0.00    +0.001 A 
ATOM     33  S   LIG    1       19.892 -19.409   3.361  0.00  0.00    +0.014 S 
ATOM     34  C   LIG    1       23.086 -19.284   5.551  0.00  0.00    +0.012 A 
ATOM     35  N   LIG    1       20.522 -17.898   3.199  0.00  0.00    -0.194 NA
ENDBRANCH  24  27
ENDBRANCH  20  21
ENDBRANCH   2  20
TORSDOF 5
ENDMDL
MODEL 3
REMARK VINA RESULT:      16.8      2.661      5.799
REMARK  Name = *****
REMARK                            x       y       z     vdW  Elec       q    Type
REMARK                         _______ _______ _______ _____ _____    ______ ____
ROOT
ATOM      1  C   LIG    1       22.410 -17.566   3.826  0.00  0.00    +0.011 C 
ATOM      2  C   LIG    1       21.205 -17.766   4.800  0.00  0.00    +0.008 C 
ATOM      3  C   LIG    1       19.855 -17.523   4.091  0.00  0.00    +0.005 C 
ATOM      4  C   LIG    1       19.693 -18.298   2.786  0.00  0.00    +0.000 C 
ATOM      5  C   LIG    1       20.880 -18.105   1.852  0.00  0.00    +0.000 C 
ATOM      6  C   LIG    1       22.206 -18.400   2.547  0.00  0.00    +0.005 C 
ENDROOT
BRANCH   1   7
ATOM      7  C   LIG    1       22.651 -16.051   3.547  0.00  0.00    +0.120 C 
BRANCH   7  10
ATOM      8  O   LIG    1       25.182 -16.990   2.482  0.00  0.00    -0.275 OA
ATOM      9  C   LIG    1       25.120 -16.129   3.347  0.00  0.00    +0.226 C 
ATOM     10  N   LIG    1       23.991 -15.608   3.906  0.00  0.00    -0.241 N 
ATOM     11  C   LIG    1       24.253 -14.529   4.711  0.00  0.00    +0.226 C 
ATOM     12  O   LIG    1       23.428 -13.753   5.195  0.00  0.00    -0.275 OA
ATOM     13  C   LIG    1       25.748 -14.407   4.897  0.00  0.00    +0.091 C 
ATOM     14  C   LIG    1       26.456 -13.105   4.456  0.00  0.00    +0.002 C 
ATOM     15  C   LIG    1       27.811 -13.640   3.962  0.00  0.00    +0.008 C 
ATOM     16  C   LIG    1       27.165 -14.607   2.964  0.00  0.00    +0.002 C 
ATOM     17  C   LIG    1       26.294 -13.645   2.125  0.00  0.00    +0.004 C 
ATOM     18  C   LIG    1       25.888 -12.564   3.136  0.00  0.00    +0.004 C 
ATOM     19  C   LIG    1       26.325 -15.447   3.932  0.00  0.00    +0.091 C 
ENDBRANCH   7  10
ENDBRANCH   1   7
BRANCH   2  20
ATOM     20  C   LIG    1       21.212 -19.160   5.498  0.00  0.00    +0.088 C 
BRANCH  20  21
ATOM     21  N   LIG    1       21.965 -20.199   4.780  0.00  0.00    -0.299 NA
ATOM     22  C   LIG    1       23.109 -19.705   3.982  0.00  0.00    +0.103 C 
ATOM     23  C   LIG    1       24.385 -19.368   4.782  0.00  0.00    +0.122 C 
ATOM     24  N   LIG    1       24.806 -20.558   5.541  0.00  0.00    -0.312 N 
ATOM     25  C   LIG    1       23.744 -20.995   6.474  0.00  0.00    +0.122 C 
ATOM     26  C   LIG    1       22.433 -21.280   5.689  0.00  0.00    +0.103 C 
BRANCH  24  27
ATOM     27  C   LIG    1       26.103 -20.591   5.991  0.00  0.00    +0.138 A 
ATOM     28  C   LIG    1       27.076 -19.575   5.594  0.00  0.00    +0.031 A 
ATOM     29  C   LIG    1       28.330 -19.880   6.128  0.00  0.00    +0.041 A 
ATOM     30  C   LIG    1       29.475 -19.100   5.882  0.00  0.00    +0.017 A 
ATOM     31  C   LIG    1       29.352 -17.981   5.057  0.00  0.00    +0.001 A 
ATOM     32  C   LIG    1       28.122 -17.641   4.510  0.00  0.00    +0.001 A 
ATOM     33  S   LIG    1       28.178 -21.309   7.061  0.00  0.00    +0.014 S 
ATOM     34  C   LIG    1       26.986 -18.423   4.767  0.00  0.00    +0.012 A 
ATOM     35  N   LIG    1       26.583 -21.572   6.755  0.00  0.00    -0.194 NA
ENDBRANCH  24  27
ENDBRANCH  20  21
ENDBRANCH   2  20
TORSDOF 5
ENDMDL
