MODEL 1
REMARK VINA RESULT:      -9.0      0.000      0.000
REMARK  Name = *****
REMARK                            x       y       z     vdW  Elec       q    Type
REMARK                         _______ _______ _______ _____ _____    ______ ____
ROOT
ATOM      1  C   LIG    1       22.150 -19.031   4.592  0.00  0.00    +0.105 C 
ATOM      2  N   LIG    1       22.777 -20.243   5.070  0.00  0.00    -0.301 NA
ATOM      3  C   LIG    1       23.466 -20.090   6.354  0.00  0.00    +0.120 C 
ATOM      4  C   LIG    1       24.334 -21.330   6.530  0.00  0.00    -0.022 C 
ATOM      5  C   LIG    1       25.806 -21.129   6.509  0.00  0.00    -0.017 A 
ATOM      6  C   LIG    1       26.679 -21.921   7.272  0.00  0.00    -0.036 A 
ATOM      7  C   LIG    1       26.147 -23.080   8.082  0.00  0.00    +0.071 C 
ATOM      8  C   LIG    1       25.528 -24.131   7.185  0.00  0.00    -0.036 A 
ATOM      9  C   LIG    1       24.371 -23.850   6.425  0.00  0.00    -0.018 A 
ATOM     10  C   LIG    1       23.890 -24.843   5.555  0.00  0.00    +0.008 A 
ATOM     11  C   LIG    1       24.526 -26.079   5.433  0.00  0.00    +0.001 A 
ATOM     12  C   LIG    1       25.664 -26.348   6.182  0.00  0.00    +0.000 A 
ATOM     13  C   LIG    1       26.162 -25.382   7.054  0.00  0.00    +0.004 A 
ATOM     14  C   LIG    1       28.063 -21.666   7.225  0.00  0.00    +0.004 A 
ATOM     15  C   LIG    1       28.574 -20.644   6.424  0.00  0.00    +0.000 A 
ATOM     16  C   LIG    1       27.717 -19.883   5.641  0.00  0.00    +0.001 A 
ATOM     17  C   LIG    1       26.349 -20.134   5.678  0.00  0.00    +0.008 A 
ATOM     18  C   LIG    1       23.698 -22.522   6.477  0.00  0.00    -0.034 C 
ATOM     19  C   LIG    1       22.199 -22.434   6.203  0.00  0.00    +0.051 C 
ATOM     20  C   LIG    1       21.951 -21.459   5.021  0.00  0.00    +0.089 C 
ENDROOT
TORSDOF 0
ENDMDL
MODEL 2
REMARK VINA RESULT:      -8.8      1.944      5.480
REMARK  Name = *****
REMARK                            x       y       z     vdW  Elec       q    Type
REMARK                         _______ _______ _______ _____ _____    ______ ____
ROOT
ATOM      1  C   LIG    1       29.876 -22.077   8.074  0.00  0.00    +0.105 C 
ATOM      2  N   LIG    1       28.638 -21.681   7.443  0.00  0.00    -0.301 NA
ATOM      3  C   LIG    1       27.445 -21.950   8.251  0.00  0.00    +0.120 C 
ATOM      4  C   LIG    1       26.248 -21.797   7.321  0.00  0.00    -0.022 C 
ATOM      5  C   LIG    1       25.468 -23.025   7.022  0.00  0.00    -0.017 A 
ATOM      6  C   LIG    1       24.082 -22.994   6.796  0.00  0.00    -0.036 A 
ATOM      7  C   LIG    1       23.344 -21.676   6.760  0.00  0.00    +0.071 C 
ATOM      8  C   LIG    1       23.834 -20.811   5.618  0.00  0.00    -0.036 A 
ATOM      9  C   LIG    1       25.157 -20.319   5.593  0.00  0.00    -0.018 A 
ATOM     10  C   LIG    1       25.572 -19.585   4.469  0.00  0.00    +0.008 A 
ATOM     11  C   LIG    1       24.712 -19.340   3.397  0.00  0.00    +0.001 A 
ATOM     12  C   LIG    1       23.414 -19.829   3.427  0.00  0.00    +0.000 A 
ATOM     13  C   LIG    1       22.975 -20.558   4.530  0.00  0.00    +0.004 A 
ATOM     14  C   LIG    1       23.397 -24.196   6.540  0.00  0.00    +0.004 A 
ATOM     15  C   LIG    1       24.079 -25.413   6.498  0.00  0.00    +0.000 A 
ATOM     16  C   LIG    1       25.454 -25.443   6.686  0.00  0.00    +0.001 A 
ATOM     17  C   LIG    1       26.139 -24.257   6.935  0.00  0.00    +0.008 A 
ATOM     18  C   LIG    1       26.127 -20.610   6.685  0.00  0.00    -0.034 C 
ATOM     19  C   LIG    1       27.249 -19.616   6.973  0.00  0.00    +0.051 C 
ATOM     20  C   LIG    1       28.617 -20.336   6.847  0.00  0.00    +0.089 C 
ENDROOT
TORSDOF 0
ENDMDL
MODEL 3
REMARK VINA RESULT:      -7.1      1.653      4.916
REMARK  Name = *****
REMARK                            x       y       z     vdW  Elec       q    Type
REMARK                         _______ _______ _______ _____ _____    ______ ____
ROOT
ATOM      1  C   LIG    1       24.012 -26.477   4.896  0.00  0.00    +0.105 C 
ATOM      2  N   LIG    1       24.636 -25.350   5.549  0.00  0.00    -0.301 NA
ATOM      3  C   LIG    1       23.758 -24.646   6.488  0.00  0.00    +0.120 C 
ATOM      4  C   LIG    1       24.442 -23.323   6.812  0.00  0.00    -0.022 C 
ATOM      5  C   LIG    1       23.770 -22.086   6.341  0.00  0.00    -0.017 A 
ATOM      6  C   LIG    1       23.839 -20.879   7.057  0.00  0.00    -0.036 A 
ATOM      7  C   LIG    1       24.688 -20.777   8.302  0.00  0.00    +0.071 C 
ATOM      8  C   LIG    1       26.151 -20.996   7.981  0.00  0.00    -0.036 A 
ATOM      9  C   LIG    1       26.614 -22.243   7.505  0.00  0.00    -0.018 A 
ATOM     10  C   LIG    1       27.969 -22.358   7.154  0.00  0.00    +0.008 A 
ATOM     11  C   LIG    1       28.849 -21.280   7.266  0.00  0.00    +0.001 A 
ATOM     12  C   LIG    1       28.387 -20.058   7.733  0.00  0.00    +0.000 A 
ATOM     13  C   LIG    1       27.047 -19.915   8.090  0.00  0.00    +0.004 A 
ATOM     14  C   LIG    1       23.160 -19.746   6.568  0.00  0.00    +0.004 A 
ATOM     15  C   LIG    1       22.432 -19.807   5.379  0.00  0.00    +0.000 A 
ATOM     16  C   LIG    1       22.392 -20.988   4.652  0.00  0.00    +0.001 A 
ATOM     17  C   LIG    1       23.064 -22.110   5.126  0.00  0.00    +0.008 A 
ATOM     18  C   LIG    1       25.698 -23.400   7.309  0.00  0.00    -0.034 C 
ATOM     19  C   LIG    1       26.250 -24.818   7.427  0.00  0.00    +0.051 C 
ATOM     20  C   LIG    1       25.976 -25.587   6.107  0.00  0.00    +0.089 C 
ENDROOT
TORSDOF 0
ENDMDL
MODEL 4
REMARK VINA RESULT:      -6.8      3.264      5.606
REMARK  Name = *****
REMARK                            x       y       z     vdW  Elec       q    Type
REMARK                         _______ _______ _______ _____ _____    ______ ____
ROOT
ATOM      1  C   LIG    1       31.265 -19.085   7.301  0.00  0.00    +0.105 C 
ATOM      2  N   LIG    1       29.888 -19.455   7.068  0.00  0.00    -0.301 NA
ATOM      3  C   LIG    1       29.579 -19.747   5.666  0.00  0.00    +0.120 C 
ATOM      4  C   LIG    1       28.060 -19.778   5.553  0.00  0.00    -0.022 C 
ATOM      5  C   LIG    1       27.424 -18.707   4.744  0.00  0.00    -0.017 A 
ATOM      6  C   LIG    1       26.249 -18.925   4.006  0.00  0.00    -0.036 A 
ATOM      7  C   LIG    1       25.534 -20.253   4.087  0.00  0.00    +0.071 C 
ATOM      8  C   LIG    1       25.035 -20.518   5.492  0.00  0.00    -0.036 A 
ATOM      9  C   LIG    1       25.938 -20.693   6.563  0.00  0.00    -0.018 A 
ATOM     10  C   LIG    1       25.411 -20.860   7.855  0.00  0.00    +0.008 A 
ATOM     11  C   LIG    1       24.035 -20.854   8.090  0.00  0.00    +0.001 A 
ATOM     12  C   LIG    1       23.154 -20.680   7.033  0.00  0.00    +0.000 A 
ATOM     13  C   LIG    1       23.649 -20.514   5.740  0.00  0.00    +0.004 A 
ATOM     14  C   LIG    1       25.708 -17.875   3.241  0.00  0.00    +0.004 A 
ATOM     15  C   LIG    1       26.319 -16.621   3.216  0.00  0.00    +0.000 A 
ATOM     16  C   LIG    1       27.460 -16.391   3.972  0.00  0.00    +0.001 A 
ATOM     17  C   LIG    1       27.997 -17.424   4.735  0.00  0.00    +0.008 A 
ATOM     18  C   LIG    1       27.413 -20.643   6.367  0.00  0.00    -0.034 C 
ATOM     19  C   LIG    1       28.320 -21.429   7.310  0.00  0.00    +0.051 C 
ATOM     20  C   LIG    1       29.324 -20.458   7.985  0.00  0.00    +0.089 C 
ENDROOT
TORSDOF 0
ENDMDL
MODEL 5
REMARK VINA RESULT:      -6.8      7.895      9.641
REMARK  Name = *****
REMARK                            x       y       z     vdW  Elec       q    Type
REMARK                         _______ _______ _______ _____ _____    ______ ____
ROOT
ATOM      1  C   LIG    1       18.917 -31.203  11.689  0.00  0.00    +0.105 C 
ATOM      2  N   LIG    1       20.285 -30.851  11.382  0.00  0.00    -0.301 NA
ATOM      3  C   LIG    1       21.149 -30.737  12.559  0.00  0.00    +0.120 C 
ATOM      4  C   LIG    1       22.423 -30.042  12.096  0.00  0.00    -0.022 C 
ATOM      5  C   LIG    1       22.684 -28.684  12.638  0.00  0.00    -0.017 A 
ATOM      6  C   LIG    1       23.985 -28.212  12.878  0.00  0.00    -0.036 A 
ATOM      7  C   LIG    1       25.183 -29.052  12.501  0.00  0.00    +0.071 C 
ATOM      8  C   LIG    1       25.239 -29.278  11.005  0.00  0.00    -0.036 A 
ATOM      9  C   LIG    1       24.237 -30.022  10.343  0.00  0.00    -0.018 A 
ATOM     10  C   LIG    1       24.307 -30.132   8.944  0.00  0.00    +0.008 A 
ATOM     11  C   LIG    1       25.331 -29.528   8.213  0.00  0.00    +0.001 A 
ATOM     12  C   LIG    1       26.311 -28.798   8.870  0.00  0.00    +0.000 A 
ATOM     13  C   LIG    1       26.268 -28.674  10.258  0.00  0.00    +0.004 A 
ATOM     14  C   LIG    1       24.165 -26.923  13.414  0.00  0.00    +0.004 A 
ATOM     15  C   LIG    1       23.068 -26.108  13.698  0.00  0.00    +0.000 A 
ATOM     16  C   LIG    1       21.783 -26.558  13.429  0.00  0.00    +0.001 A 
ATOM     17  C   LIG    1       21.599 -27.830  12.894  0.00  0.00    +0.008 A 
ATOM     18  C   LIG    1       23.092 -30.629  11.077  0.00  0.00    -0.034 C 
ATOM     19  C   LIG    1       22.430 -31.886  10.520  0.00  0.00    +0.051 C 
ATOM     20  C   LIG    1       20.919 -31.613  10.295  0.00  0.00    +0.089 C 
ENDROOT
TORSDOF 0
ENDMDL
MODEL 6
REMARK VINA RESULT:      -6.6      7.926      9.430
REMARK  Name = *****
REMARK                            x       y       z     vdW  Elec       q    Type
REMARK                         _______ _______ _______ _____ _____    ______ ____
ROOT
ATOM      1  C   LIG    1       28.110 -24.794  14.001  0.00  0.00    +0.105 C 
ATOM      2  N   LIG    1       26.871 -25.518  13.830  0.00  0.00    -0.301 NA
ATOM      3  C   LIG    1       27.026 -26.975  13.848  0.00  0.00    +0.120 C 
ATOM      4  C   LIG    1       25.719 -27.556  13.323  0.00  0.00    -0.022 C 
ATOM      5  C   LIG    1       25.774 -28.265  12.020  0.00  0.00    -0.017 A 
ATOM      6  C   LIG    1       24.943 -29.360  11.729  0.00  0.00    -0.036 A 
ATOM      7  C   LIG    1       23.888 -29.800  12.715  0.00  0.00    +0.071 C 
ATOM      8  C   LIG    1       22.854 -28.714  12.926  0.00  0.00    -0.036 A 
ATOM      9  C   LIG    1       23.205 -27.482  13.520  0.00  0.00    -0.018 A 
ATOM     10  C   LIG    1       22.218 -26.487  13.619  0.00  0.00    +0.008 A 
ATOM     11  C   LIG    1       20.920 -26.694  13.148  0.00  0.00    +0.001 A 
ATOM     12  C   LIG    1       20.583 -27.907  12.563  0.00  0.00    +0.000 A 
ATOM     13  C   LIG    1       21.542 -28.912  12.454  0.00  0.00    +0.004 A 
ATOM     14  C   LIG    1       25.060 -30.004  10.482  0.00  0.00    +0.004 A 
ATOM     15  C   LIG    1       25.982 -29.561   9.533  0.00  0.00    +0.000 A 
ATOM     16  C   LIG    1       26.779 -28.457   9.803  0.00  0.00    +0.001 A 
ATOM     17  C   LIG    1       26.665 -27.813  11.032  0.00  0.00    +0.008 A 
ATOM     18  C   LIG    1       24.593 -27.195  13.979  0.00  0.00    -0.034 C 
ATOM     19  C   LIG    1       24.812 -26.215  15.129  0.00  0.00    +0.051 C 
ATOM     20  C   LIG    1       25.739 -25.066  14.655  0.00  0.00    +0.089 C 
ENDROOT
TORSDOF 0
ENDMDL
MODEL 7
REMARK VINA RESULT:      -6.3      5.457      8.947
REMARK  Name = *****
REMARK                            x       y       z     vdW  Elec       q    Type
REMARK                         _______ _______ _______ _____ _____    ______ ____
ROOT
ATOM      1  C   LIG    1       22.888 -33.825   7.643  0.00  0.00    +0.105 C 
ATOM      2  N   LIG    1       23.472 -32.512   7.491  0.00  0.00    -0.301 NA
ATOM      3  C   LIG    1       24.734 -32.335   8.214  0.00  0.00    +0.120 C 
ATOM      4  C   LIG    1       25.020 -30.839   8.228  0.00  0.00    -0.022 C 
ATOM      5  C   LIG    1       24.976 -30.158   9.547  0.00  0.00    -0.017 A 
ATOM      6  C   LIG    1       25.806 -29.067   9.853  0.00  0.00    -0.036 A 
ATOM      7  C   LIG    1       26.720 -28.485   8.801  0.00  0.00    +0.071 C 
ATOM      8  C   LIG    1       25.925 -27.916   7.644  0.00  0.00    -0.036 A 
ATOM      9  C   LIG    1       25.146 -28.753   6.815  0.00  0.00    -0.018 A 
ATOM     10  C   LIG    1       24.373 -28.155   5.806  0.00  0.00    +0.008 A 
ATOM     11  C   LIG    1       24.362 -26.772   5.615  0.00  0.00    +0.001 A 
ATOM     12  C   LIG    1       25.128 -25.956   6.435  0.00  0.00    +0.000 A 
ATOM     13  C   LIG    1       25.907 -26.522   7.442  0.00  0.00    +0.004 A 
ATOM     14  C   LIG    1       25.731 -28.479  11.130  0.00  0.00    +0.004 A 
ATOM     15  C   LIG    1       24.838 -28.960  12.087  0.00  0.00    +0.000 A 
ATOM     16  C   LIG    1       23.991 -30.016  11.776  0.00  0.00    +0.001 A 
ATOM     17  C   LIG    1       24.056 -30.598  10.514  0.00  0.00    +0.008 A 
ATOM     18  C   LIG    1       25.079 -30.226   7.023  0.00  0.00    -0.034 C 
ATOM     19  C   LIG    1       24.802 -31.138   5.831  0.00  0.00    +0.051 C 
ATOM     20  C   LIG    1       23.537 -31.989   6.118  0.00  0.00    +0.089 C 
ENDROOT
TORSDOF 0
ENDMDL
MODEL 8
REMARK VINA RESULT:      -6.3      8.036      9.311
REMARK  Name = *****
REMARK                            x       y       z     vdW  Elec       q    Type
REMARK                         _______ _______ _______ _____ _____    ______ ____
ROOT
ATOM      1  C   LIG    1       19.404 -29.702  13.584  0.00  0.00    +0.105 C 
ATOM      2  N   LIG    1       20.624 -29.713  12.811  0.00  0.00    -0.301 NA
ATOM      3  C   LIG    1       21.842 -29.791  13.622  0.00  0.00    +0.120 C 
ATOM      4  C   LIG    1       23.003 -29.452  12.696  0.00  0.00    -0.022 C 
ATOM      5  C   LIG    1       23.737 -28.190  12.973  0.00  0.00    -0.017 A 
ATOM      6  C   LIG    1       25.112 -28.056  12.723  0.00  0.00    -0.036 A 
ATOM      7  C   LIG    1       25.883 -29.178  12.069  0.00  0.00    +0.071 C 
ATOM      8  C   LIG    1       25.369 -29.447  10.670  0.00  0.00    -0.036 A 
ATOM      9  C   LIG    1       24.059 -29.930  10.456  0.00  0.00    -0.018 A 
ATOM     10  C   LIG    1       23.618 -30.087   9.131  0.00  0.00    +0.008 A 
ATOM     11  C   LIG    1       24.438 -29.779   8.045  0.00  0.00    +0.001 A 
ATOM     12  C   LIG    1       25.723 -29.303   8.263  0.00  0.00    +0.000 A 
ATOM     13  C   LIG    1       26.188 -29.139   9.567  0.00  0.00    +0.004 A 
ATOM     14  C   LIG    1       25.754 -26.841  13.028  0.00  0.00    +0.004 A 
ATOM     15  C   LIG    1       25.039 -25.769  13.565  0.00  0.00    +0.000 A 
ATOM     16  C   LIG    1       23.673 -25.887  13.780  0.00  0.00    +0.001 A 
ATOM     17  C   LIG    1       23.031 -27.084  13.475  0.00  0.00    +0.008 A 
ATOM     18  C   LIG    1       23.129 -30.211  11.584  0.00  0.00    -0.034 C 
ATOM     19  C   LIG    1       22.047 -31.274  11.413  0.00  0.00    +0.051 C 
ATOM     20  C   LIG    1       20.656 -30.635  11.665  0.00  0.00    +0.089 C 
ENDROOT
TORSDOF 0
ENDMDL
MODEL 9
REMARK VINA RESULT:      -6.3      6.293      9.096
REMARK  Name = *****
REMARK                            x       y       z     vdW  Elec       q    Type
REMARK                         _______ _______ _______ _____ _____    ______ ____
ROOT
ATOM      1  C   LIG    1       21.887 -32.598  11.828  0.00  0.00    +0.105 C 
ATOM      2  N   LIG    1       22.710 -31.752  10.996  0.00  0.00    -0.301 NA
ATOM      3  C   LIG    1       24.097 -31.634  11.454  0.00  0.00    +0.120 C 
ATOM      4  C   LIG    1       24.710 -30.470  10.687  0.00  0.00    -0.022 C 
ATOM      5  C   LIG    1       25.082 -29.267  11.475  0.00  0.00    -0.017 A 
ATOM      6  C   LIG    1       26.180 -28.460  11.134  0.00  0.00    -0.036 A 
ATOM      7  C   LIG    1       26.976 -28.743   9.882  0.00  0.00    +0.071 C 
ATOM      8  C   LIG    1       26.117 -28.585   8.644  0.00  0.00    -0.036 A 
ATOM      9  C   LIG    1       25.022 -29.443   8.404  0.00  0.00    -0.018 A 
ATOM     10  C   LIG    1       24.219 -29.196   7.277  0.00  0.00    +0.008 A 
ATOM     11  C   LIG    1       24.484 -28.135   6.409  0.00  0.00    +0.001 A 
ATOM     12  C   LIG    1       25.561 -27.295   6.653  0.00  0.00    +0.000 A 
ATOM     13  C   LIG    1       26.374 -27.518   7.762  0.00  0.00    +0.004 A 
ATOM     14  C   LIG    1       26.494 -27.346  11.935  0.00  0.00    +0.004 A 
ATOM     15  C   LIG    1       25.721 -27.030  13.053  0.00  0.00    +0.000 A 
ATOM     16  C   LIG    1       24.615 -27.804  13.372  0.00  0.00    +0.001 A 
ATOM     17  C   LIG    1       24.296 -28.904  12.582  0.00  0.00    +0.008 A 
ATOM     18  C   LIG    1       24.666 -30.548   9.337  0.00  0.00    -0.034 C 
ATOM     19  C   LIG    1       23.961 -31.788   8.794  0.00  0.00    +0.051 C 
ATOM     20  C   LIG    1       22.619 -31.986   9.546  0.00  0.00    +0.089 C 
ENDROOT
TORSDOF 0
ENDMDL
