MODEL 1
REMARK VINA RESULT:      -8.1      0.000      0.000
REMARK  Name = *****
REMARK                            x       y       z     vdW  Elec       q    Type
REMARK                         _______ _______ _______ _____ _____    ______ ____
ROOT
ATOM      1  C   LIG    1       28.418 -20.196   7.057  0.00  0.00    -0.047 A 
ATOM      2  C   LIG    1       27.900 -20.441   8.335  0.00  0.00    +0.007 A 
ATOM      3  C   LIG    1       26.520 -20.639   8.521  0.00  0.00    +0.046 A 
ATOM      4  C   LIG    1       25.636 -20.589   7.436  0.00  0.00    +0.121 A 
ATOM      5  C   LIG    1       26.163 -20.357   6.165  0.00  0.00    +0.046 A 
ATOM      6  C   LIG    1       27.536 -20.178   5.975  0.00  0.00    +0.007 A 
ENDROOT
BRANCH   1   7
ATOM      7  C   LIG    1       29.872 -19.843   6.837  0.00  0.00    +0.046 C 
BRANCH   7   8
ATOM      8  C   LIG    1       30.225 -18.566   7.605  0.00  0.00    +0.125 C 
BRANCH   8   9
ATOM      9  C   LIG    1       31.513 -18.693   8.397  0.00  0.00    +0.307 C 
ATOM     10  O   LIG    1       31.924 -19.673   8.983  0.00  0.00    -0.251 OA
BRANCH   9  12
ATOM     11  C   LIG    1       32.242 -16.695   9.456  0.00  0.00    +0.280 C 
ATOM     12  O   LIG    1       32.168 -17.477   8.258  0.00  0.00    -0.468 OA
ENDBRANCH   9  12
ENDBRANCH   8   9
ENDBRANCH   7   8
ENDBRANCH   1   7
BRANCH   4  13
ATOM     13  O   LIG    1       24.304 -20.801   7.716  0.00  0.00    -0.489 OA
BRANCH  13  14
ATOM     14  C   LIG    1       23.382 -20.595   6.628  0.00  0.00    +0.261 C 
BRANCH  14  15
ATOM     15  C   LIG    1       22.923 -21.930   6.015  0.00  0.00    +0.166 C 
BRANCH  15  16
ATOM     16  O   LIG    1       23.599 -22.126   4.762  0.00  0.00    -0.387 OA
ATOM     17  H   LIG    1       24.538 -22.282   4.979  0.00  0.00    +0.210 HD
ENDBRANCH  15  16
BRANCH  15  18
ATOM     18  C   LIG    1       23.182 -23.122   6.948  0.00  0.00    +0.115 C 
BRANCH  18  19
ATOM     19  N   LIG    1       23.252 -24.391   6.207  0.00  0.00    -0.311 NA
ATOM     20  H   LIG    1       22.998 -24.216   5.231  0.00  0.00    +0.122 HD
BRANCH  19  21
ATOM     21  C   LIG    1       24.561 -25.046   6.316  0.00  0.00    +0.048 C 
ATOM     22  C   LIG    1       25.615 -24.188   7.022  0.00  0.00    +0.024 C 
ATOM     23  C   LIG    1       25.063 -25.417   4.918  0.00  0.00    +0.024 C 
ENDBRANCH  19  21
ENDBRANCH  18  19
ENDBRANCH  15  18
ENDBRANCH  14  15
ENDBRANCH  13  14
ENDBRANCH   4  13
TORSDOF 11
ENDMDL
MODEL 2
REMARK VINA RESULT:      -8.0      1.405      2.009
REMARK  Name = *****
REMARK                            x       y       z     vdW  Elec       q    Type
REMARK                         _______ _______ _______ _____ _____    ______ ____
ROOT
ATOM      1  C   LIG    1       28.152 -20.065   6.964  0.00  0.00    -0.047 A 
ATOM      2  C   LIG    1       27.525 -20.286   8.196  0.00  0.00    +0.007 A 
ATOM      3  C   LIG    1       26.153 -20.594   8.255  0.00  0.00    +0.046 A 
ATOM      4  C   LIG    1       25.387 -20.680   7.086  0.00  0.00    +0.121 A 
ATOM      5  C   LIG    1       26.024 -20.471   5.863  0.00  0.00    +0.046 A 
ATOM      6  C   LIG    1       27.390 -20.183   5.800  0.00  0.00    +0.007 A 
ENDROOT
BRANCH   1   7
ATOM      7  C   LIG    1       29.587 -19.598   6.869  0.00  0.00    +0.046 C 
BRANCH   7   8
ATOM      8  C   LIG    1       30.035 -18.999   8.205  0.00  0.00    +0.125 C 
BRANCH   8   9
ATOM      9  C   LIG    1       31.339 -19.589   8.707  0.00  0.00    +0.307 C 
ATOM     10  O   LIG    1       32.162 -19.056   9.423  0.00  0.00    -0.251 OA
BRANCH   9  12
ATOM     11  C   LIG    1       31.025 -21.889   9.213  0.00  0.00    +0.280 C 
ATOM     12  O   LIG    1       31.372 -20.897   8.241  0.00  0.00    -0.468 OA
ENDBRANCH   9  12
ENDBRANCH   8   9
ENDBRANCH   7   8
ENDBRANCH   1   7
BRANCH   4  13
ATOM     13  O   LIG    1       24.056 -20.993   7.245  0.00  0.00    -0.489 OA
BRANCH  13  14
ATOM     14  C   LIG    1       23.494 -21.903   6.278  0.00  0.00    +0.261 C 
BRANCH  14  15
ATOM     15  C   LIG    1       23.394 -23.332   6.836  0.00  0.00    +0.166 C 
BRANCH  15  16
ATOM     16  O   LIG    1       22.057 -23.820   6.637  0.00  0.00    -0.387 OA
ATOM     17  H   LIG    1       21.460 -23.091   6.890  0.00  0.00    +0.210 HD
ENDBRANCH  15  16
BRANCH  15  18
ATOM     18  C   LIG    1       24.407 -24.287   6.188  0.00  0.00    +0.115 C 
BRANCH  18  19
ATOM     19  N   LIG    1       23.774 -25.542   5.751  0.00  0.00    -0.311 NA
ATOM     20  H   LIG    1       23.204 -25.351   4.923  0.00  0.00    +0.122 HD
BRANCH  19  21
ATOM     21  C   LIG    1       24.743 -26.616   5.504  0.00  0.00    +0.048 C 
ATOM     22  C   LIG    1       24.415 -27.916   6.244  0.00  0.00    +0.024 C 
ATOM     23  C   LIG    1       26.142 -26.143   5.906  0.00  0.00    +0.024 C 
ENDBRANCH  19  21
ENDBRANCH  18  19
ENDBRANCH  15  18
ENDBRANCH  14  15
ENDBRANCH  13  14
ENDBRANCH   4  13
TORSDOF 11
ENDMDL
MODEL 3
REMARK VINA RESULT:      -8.0      1.293      1.907
REMARK  Name = *****
REMARK                            x       y       z     vdW  Elec       q    Type
REMARK                         _______ _______ _______ _____ _____    ______ ____
ROOT
ATOM      1  C   LIG    1       28.005 -20.342   7.000  0.00  0.00    -0.047 A 
ATOM      2  C   LIG    1       27.237 -20.280   5.830  0.00  0.00    +0.007 A 
ATOM      3  C   LIG    1       25.840 -20.442   5.882  0.00  0.00    +0.046 A 
ATOM      4  C   LIG    1       25.190 -20.673   7.100  0.00  0.00    +0.121 A 
ATOM      5  C   LIG    1       25.962 -20.720   8.262  0.00  0.00    +0.046 A 
ATOM      6  C   LIG    1       27.347 -20.542   8.216  0.00  0.00    +0.007 A 
ENDROOT
BRANCH   1   7
ATOM      7  C   LIG    1       29.516 -20.311   6.969  0.00  0.00    +0.046 C 
BRANCH   7   8
ATOM      8  C   LIG    1       30.047 -19.426   8.100  0.00  0.00    +0.125 C 
BRANCH   8   9
ATOM      9  C   LIG    1       31.014 -20.155   9.014  0.00  0.00    +0.307 C 
ATOM     10  O   LIG    1       30.897 -21.275   9.467  0.00  0.00    -0.251 OA
BRANCH   9  12
ATOM     11  C   LIG    1       31.768 -17.926   9.340  0.00  0.00    +0.280 C 
ATOM     12  O   LIG    1       32.103 -19.308   9.172  0.00  0.00    -0.468 OA
ENDBRANCH   9  12
ENDBRANCH   8   9
ENDBRANCH   7   8
ENDBRANCH   1   7
BRANCH   4  13
ATOM     13  O   LIG    1       23.821 -20.812   7.051  0.00  0.00    -0.489 OA
BRANCH  13  14
ATOM     14  C   LIG    1       23.315 -21.834   6.170  0.00  0.00    +0.261 C 
BRANCH  14  15
ATOM     15  C   LIG    1       23.168 -23.183   6.895  0.00  0.00    +0.166 C 
BRANCH  15  16
ATOM     16  O   LIG    1       21.868 -23.728   6.611  0.00  0.00    -0.387 OA
ATOM     17  H   LIG    1       21.393 -23.758   7.462  0.00  0.00    +0.210 HD
ENDBRANCH  15  16
BRANCH  15  18
ATOM     18  C   LIG    1       24.260 -24.186   6.493  0.00  0.00    +0.115 C 
BRANCH  18  19
ATOM     19  N   LIG    1       23.692 -25.402   5.891  0.00  0.00    -0.311 NA
ATOM     20  H   LIG    1       23.151 -25.137   5.064  0.00  0.00    +0.122 HD
BRANCH  19  21
ATOM     21  C   LIG    1       24.708 -26.411   5.571  0.00  0.00    +0.048 C 
ATOM     22  C   LIG    1       24.397 -27.795   6.148  0.00  0.00    +0.024 C 
ATOM     23  C   LIG    1       26.071 -25.942   6.086  0.00  0.00    +0.024 C 
ENDBRANCH  19  21
ENDBRANCH  18  19
ENDBRANCH  15  18
ENDBRANCH  14  15
ENDBRANCH  13  14
ENDBRANCH   4  13
TORSDOF 11
ENDMDL
MODEL 4
REMARK VINA RESULT:      -7.8      2.952      8.161
REMARK  Name = *****
REMARK                            x       y       z     vdW  Elec       q    Type
REMARK                         _______ _______ _______ _____ _____    ______ ____
ROOT
ATOM      1  C   LIG    1       25.186 -20.688   7.247  0.00  0.00    -0.047 A 
ATOM      2  C   LIG    1       25.935 -20.682   8.431  0.00  0.00    +0.007 A 
ATOM      3  C   LIG    1       27.322 -20.452   8.399  0.00  0.00    +0.046 A 
ATOM      4  C   LIG    1       27.984 -20.229   7.185  0.00  0.00    +0.121 A 
ATOM      5  C   LIG    1       27.228 -20.223   6.013  0.00  0.00    +0.046 A 
ATOM      6  C   LIG    1       25.847 -20.434   6.043  0.00  0.00    +0.007 A 
ENDROOT
BRANCH   1   7
ATOM      7  C   LIG    1       23.723 -21.066   7.227  0.00  0.00    +0.046 C 
BRANCH   7   8
ATOM      8  C   LIG    1       23.429 -21.964   6.022  0.00  0.00    +0.125 C 
BRANCH   8   9
ATOM      9  C   LIG    1       23.591 -23.440   6.334  0.00  0.00    +0.307 C 
ATOM     10  O   LIG    1       22.786 -24.171   6.873  0.00  0.00    -0.251 OA
BRANCH   9  12
ATOM     11  C   LIG    1       25.798 -24.194   6.788  0.00  0.00    +0.280 C 
ATOM     12  O   LIG    1       24.824 -23.809   5.812  0.00  0.00    -0.468 OA
ENDBRANCH   9  12
ENDBRANCH   8   9
ENDBRANCH   7   8
ENDBRANCH   1   7
BRANCH   4  13
ATOM     13  O   LIG    1       29.341 -20.007   7.256  0.00  0.00    -0.489 OA
BRANCH  13  14
ATOM     14  C   LIG    1       30.107 -20.968   8.010  0.00  0.00    +0.261 C 
BRANCH  14  15
ATOM     15  C   LIG    1       31.071 -20.279   8.990  0.00  0.00    +0.166 C 
BRANCH  15  16
ATOM     16  O   LIG    1       32.193 -21.145   9.230  0.00  0.00    -0.387 OA
ATOM     17  H   LIG    1       32.022 -21.961   8.723  0.00  0.00    +0.210 HD
ENDBRANCH  15  16
BRANCH  15  18
ATOM     18  C   LIG    1       31.556 -18.916   8.475  0.00  0.00    +0.115 C 
BRANCH  18  19
ATOM     19  N   LIG    1       32.266 -18.158   9.517  0.00  0.00    -0.311 NA
ATOM     20  H   LIG    1       33.263 -18.142   9.289  0.00  0.00    +0.122 HD
BRANCH  19  21
ATOM     21  C   LIG    1       31.732 -16.804   9.704  0.00  0.00    +0.048 C 
ATOM     22  C   LIG    1       32.811 -15.757   9.995  0.00  0.00    +0.024 C 
ATOM     23  C   LIG    1       30.711 -16.811  10.844  0.00  0.00    +0.024 C 
ENDBRANCH  19  21
ENDBRANCH  18  19
ENDBRANCH  15  18
ENDBRANCH  14  15
ENDBRANCH  13  14
ENDBRANCH   4  13
TORSDOF 11
ENDMDL
MODEL 5
REMARK VINA RESULT:      -7.8      1.675      2.761
REMARK  Name = *****
REMARK                            x       y       z     vdW  Elec       q    Type
REMARK                         _______ _______ _______ _____ _____    ______ ____
ROOT
ATOM      1  C   LIG    1       29.136 -20.179   6.866  0.00  0.00    -0.047 A 
ATOM      2  C   LIG    1       28.743 -21.006   7.927  0.00  0.00    +0.007 A 
ATOM      3  C   LIG    1       27.411 -21.446   8.035  0.00  0.00    +0.046 A 
ATOM      4  C   LIG    1       26.451 -21.064   7.090  0.00  0.00    +0.121 A 
ATOM      5  C   LIG    1       26.855 -20.253   6.029  0.00  0.00    +0.046 A 
ATOM      6  C   LIG    1       28.182 -19.828   5.910  0.00  0.00    +0.007 A 
ENDROOT
BRANCH   1   7
ATOM      7  C   LIG    1       30.520 -19.576   6.792  0.00  0.00    +0.046 C 
BRANCH   7   8
ATOM      8  C   LIG    1       30.751 -18.643   7.984  0.00  0.00    +0.125 C 
BRANCH   8   9
ATOM      9  C   LIG    1       31.657 -19.249   9.040  0.00  0.00    +0.307 C 
ATOM     10  O   LIG    1       32.035 -20.400   9.113  0.00  0.00    -0.251 OA
BRANCH   9  12
ATOM     11  C   LIG    1       32.152 -16.932   9.219  0.00  0.00    +0.280 C 
ATOM     12  O   LIG    1       32.029 -18.201   9.871  0.00  0.00    -0.468 OA
ENDBRANCH   9  12
ENDBRANCH   8   9
ENDBRANCH   7   8
ENDBRANCH   1   7
BRANCH   4  13
ATOM     13  O   LIG    1       25.177 -21.551   7.276  0.00  0.00    -0.489 OA
BRANCH  13  14
ATOM     14  C   LIG    1       24.975 -22.946   6.975  0.00  0.00    +0.261 C 
BRANCH  14  15
ATOM     15  C   LIG    1       23.731 -23.161   6.097  0.00  0.00    +0.166 C 
BRANCH  15  16
ATOM     16  O   LIG    1       22.918 -24.192   6.683  0.00  0.00    -0.387 OA
ATOM     17  H   LIG    1       23.091 -25.002   6.169  0.00  0.00    +0.210 HD
ENDBRANCH  15  16
BRANCH  15  18
ATOM     18  C   LIG    1       22.909 -21.876   5.920  0.00  0.00    +0.115 C 
BRANCH  18  19
ATOM     19  N   LIG    1       23.134 -21.259   4.603  0.00  0.00    -0.311 NA
ATOM     20  H   LIG    1       22.310 -21.423   4.020  0.00  0.00    +0.122 HD
BRANCH  19  21
ATOM     21  C   LIG    1       23.460 -19.831   4.689  0.00  0.00    +0.048 C 
ATOM     22  C   LIG    1       22.230 -18.920   4.647  0.00  0.00    +0.024 C 
ATOM     23  C   LIG    1       24.409 -19.456   3.548  0.00  0.00    +0.024 C 
ENDBRANCH  19  21
ENDBRANCH  18  19
ENDBRANCH  15  18
ENDBRANCH  14  15
ENDBRANCH  13  14
ENDBRANCH   4  13
TORSDOF 11
ENDMDL
MODEL 6
REMARK VINA RESULT:      -7.7      2.900      8.304
REMARK  Name = *****
REMARK                            x       y       z     vdW  Elec       q    Type
REMARK                         _______ _______ _______ _____ _____    ______ ____
ROOT
ATOM      1  C   LIG    1       25.284 -20.734   6.962  0.00  0.00    -0.047 A 
ATOM      2  C   LIG    1       25.762 -20.425   5.682  0.00  0.00    +0.007 A 
ATOM      3  C   LIG    1       27.115 -20.093   5.485  0.00  0.00    +0.046 A 
ATOM      4  C   LIG    1       28.009 -20.058   6.563  0.00  0.00    +0.121 A 
ATOM      5  C   LIG    1       27.526 -20.380   7.831  0.00  0.00    +0.046 A 
ATOM      6  C   LIG    1       26.187 -20.728   8.027  0.00  0.00    +0.007 A 
ENDROOT
BRANCH   1   7
ATOM      7  C   LIG    1       23.814 -20.960   7.234  0.00  0.00    +0.046 C 
BRANCH   7   8
ATOM      8  C   LIG    1       23.202 -21.823   6.127  0.00  0.00    +0.125 C 
BRANCH   8   9
ATOM      9  C   LIG    1       23.383 -23.310   6.371  0.00  0.00    +0.307 C 
ATOM     10  O   LIG    1       22.590 -24.075   6.879  0.00  0.00    -0.251 OA
BRANCH   9  12
ATOM     11  C   LIG    1       25.428 -24.488   6.647  0.00  0.00    +0.280 C 
ATOM     12  O   LIG    1       24.618 -23.639   5.826  0.00  0.00    -0.468 OA
ENDBRANCH   9  12
ENDBRANCH   8   9
ENDBRANCH   7   8
ENDBRANCH   1   7
BRANCH   4  13
ATOM     13  O   LIG    1       29.313 -19.729   6.270  0.00  0.00    -0.489 OA
BRANCH  13  14
ATOM     14  C   LIG    1       29.889 -18.655   7.041  0.00  0.00    +0.261 C 
BRANCH  14  15
ATOM     15  C   LIG    1       30.910 -19.179   8.065  0.00  0.00    +0.166 C 
BRANCH  15  16
ATOM     16  O   LIG    1       31.625 -20.285   7.489  0.00  0.00    -0.387 OA
ATOM     17  H   LIG    1       31.339 -21.080   7.977  0.00  0.00    +0.210 HD
ENDBRANCH  15  16
BRANCH  15  18
ATOM     18  C   LIG    1       31.895 -18.093   8.519  0.00  0.00    +0.115 C 
BRANCH  18  19
ATOM     19  N   LIG    1       32.255 -18.238   9.938  0.00  0.00    -0.311 NA
ATOM     20  H   LIG    1       33.190 -18.648   9.999  0.00  0.00    +0.122 HD
BRANCH  19  21
ATOM     21  C   LIG    1       32.168 -16.976  10.683  0.00  0.00    +0.048 C 
ATOM     22  C   LIG    1       30.733 -16.572  11.034  0.00  0.00    +0.024 C 
ATOM     23  C   LIG    1       32.824 -15.858   9.869  0.00  0.00    +0.024 C 
ENDBRANCH  19  21
ENDBRANCH  18  19
ENDBRANCH  15  18
ENDBRANCH  14  15
ENDBRANCH  13  14
ENDBRANCH   4  13
TORSDOF 11
ENDMDL
MODEL 7
REMARK VINA RESULT:      -7.6      3.371      7.982
REMARK  Name = *****
REMARK                            x       y       z     vdW  Elec       q    Type
REMARK                         _______ _______ _______ _____ _____    ______ ____
ROOT
ATOM      1  C   LIG    1       24.854 -20.872   6.881  0.00  0.00    -0.047 A 
ATOM      2  C   LIG    1       25.917 -20.668   5.992  0.00  0.00    +0.007 A 
ATOM      3  C   LIG    1       27.204 -20.368   6.473  0.00  0.00    +0.046 A 
ATOM      4  C   LIG    1       27.448 -20.262   7.848  0.00  0.00    +0.121 A 
ATOM      5  C   LIG    1       26.386 -20.479   8.726  0.00  0.00    +0.046 A 
ATOM      6  C   LIG    1       25.110 -20.795   8.251  0.00  0.00    +0.007 A 
ENDROOT
BRANCH   1   7
ATOM      7  C   LIG    1       23.433 -21.059   6.400  0.00  0.00    +0.046 C 
BRANCH   7   8
ATOM      8  C   LIG    1       23.363 -20.868   4.882  0.00  0.00    +0.125 C 
BRANCH   8   9
ATOM      9  C   LIG    1       22.980 -19.454   4.484  0.00  0.00    +0.307 C 
ATOM     10  O   LIG    1       22.250 -18.692   5.085  0.00  0.00    -0.251 OA
BRANCH   9  12
ATOM     11  C   LIG    1       24.856 -18.365   3.516  0.00  0.00    +0.280 C 
ATOM     12  O   LIG    1       23.692 -19.177   3.325  0.00  0.00    -0.468 OA
ENDBRANCH   9  12
ENDBRANCH   8   9
ENDBRANCH   7   8
ENDBRANCH   1   7
BRANCH   4  13
ATOM     13  O   LIG    1       28.741 -19.971   8.223  0.00  0.00    -0.489 OA
BRANCH  13  14
ATOM     14  C   LIG    1       29.784 -20.480   7.367  0.00  0.00    +0.261 C 
BRANCH  14  15
ATOM     15  C   LIG    1       30.875 -19.426   7.116  0.00  0.00    +0.166 C 
BRANCH  15  16
ATOM     16  O   LIG    1       30.320 -18.356   6.333  0.00  0.00    -0.387 OA
ATOM     17  H   LIG    1       31.073 -17.926   5.885  0.00  0.00    +0.210 HD
ENDBRANCH  15  16
BRANCH  15  18
ATOM     18  C   LIG    1       31.468 -18.874   8.420  0.00  0.00    +0.115 C 
BRANCH  18  19
ATOM     19  N   LIG    1       32.112 -17.566   8.219  0.00  0.00    -0.311 NA
ATOM     20  H   LIG    1       31.820 -17.194   7.312  0.00  0.00    +0.122 HD
BRANCH  19  21
ATOM     21  C   LIG    1       31.837 -16.619   9.306  0.00  0.00    +0.048 C 
ATOM     22  C   LIG    1       32.969 -16.525  10.333  0.00  0.00    +0.024 C 
ATOM     23  C   LIG    1       30.541 -17.019  10.014  0.00  0.00    +0.024 C 
ENDBRANCH  19  21
ENDBRANCH  18  19
ENDBRANCH  15  18
ENDBRANCH  14  15
ENDBRANCH  13  14
ENDBRANCH   4  13
TORSDOF 11
ENDMDL
MODEL 8
REMARK VINA RESULT:      -7.3      5.087      7.101
REMARK  Name = *****
REMARK                            x       y       z     vdW  Elec       q    Type
REMARK                         _______ _______ _______ _____ _____    ______ ____
ROOT
ATOM      1  C   LIG    1       23.976 -22.940   7.112  0.00  0.00    -0.047 A 
ATOM      2  C   LIG    1       23.187 -24.009   6.668  0.00  0.00    +0.007 A 
ATOM      3  C   LIG    1       23.778 -25.237   6.318  0.00  0.00    +0.046 A 
ATOM      4  C   LIG    1       25.164 -25.415   6.402  0.00  0.00    +0.121 A 
ATOM      5  C   LIG    1       25.940 -24.350   6.859  0.00  0.00    +0.046 A 
ATOM      6  C   LIG    1       25.354 -23.134   7.224  0.00  0.00    +0.007 A 
ENDROOT
BRANCH   1   7
ATOM      7  C   LIG    1       23.396 -21.567   7.365  0.00  0.00    +0.046 C 
BRANCH   7   8
ATOM      8  C   LIG    1       23.839 -20.599   6.264  0.00  0.00    +0.125 C 
BRANCH   8   9
ATOM      9  C   LIG    1       22.798 -20.434   5.172  0.00  0.00    +0.307 C 
ATOM     10  O   LIG    1       21.834 -21.139   4.961  0.00  0.00    -0.251 OA
BRANCH   9  12
ATOM     11  C   LIG    1       22.083 -18.290   4.438  0.00  0.00    +0.280 C 
ATOM     12  O   LIG    1       23.131 -19.264   4.501  0.00  0.00    -0.468 OA
ENDBRANCH   9  12
ENDBRANCH   8   9
ENDBRANCH   7   8
ENDBRANCH   1   7
BRANCH   4  13
ATOM     13  O   LIG    1       25.648 -26.654   6.045  0.00  0.00    -0.489 OA
BRANCH  13  14
ATOM     14  C   LIG    1       24.735 -27.516   5.337  0.00  0.00    +0.261 C 
BRANCH  14  15
ATOM     15  C   LIG    1       24.145 -28.596   6.261  0.00  0.00    +0.166 C 
BRANCH  15  16
ATOM     16  O   LIG    1       23.295 -29.458   5.487  0.00  0.00    -0.387 OA
ATOM     17  H   LIG    1       23.605 -29.393   4.565  0.00  0.00    +0.210 HD
ENDBRANCH  15  16
BRANCH  15  18
ATOM     18  C   LIG    1       25.231 -29.420   6.967  0.00  0.00    +0.115 C 
BRANCH  18  19
ATOM     19  N   LIG    1       25.917 -28.641   8.011  0.00  0.00    -0.311 NA
ATOM     20  H   LIG    1       25.446 -27.738   8.109  0.00  0.00    +0.122 HD
BRANCH  19  21
ATOM     21  C   LIG    1       25.998 -29.350   9.294  0.00  0.00    +0.048 C 
ATOM     22  C   LIG    1       26.921 -28.670  10.309  0.00  0.00    +0.024 C 
ATOM     23  C   LIG    1       26.477 -30.784   9.054  0.00  0.00    +0.024 C 
ENDBRANCH  19  21
ENDBRANCH  18  19
ENDBRANCH  15  18
ENDBRANCH  14  15
ENDBRANCH  13  14
ENDBRANCH   4  13
TORSDOF 11
ENDMDL
MODEL 9
REMARK VINA RESULT:      -7.2      3.881      6.177
REMARK  Name = *****
REMARK                            x       y       z     vdW  Elec       q    Type
REMARK                         _______ _______ _______ _____ _____    ______ ____
ROOT
ATOM      1  C   LIG    1       24.517 -23.298   6.918  0.00  0.00    -0.047 A 
ATOM      2  C   LIG    1       25.860 -23.696   6.892  0.00  0.00    +0.007 A 
ATOM      3  C   LIG    1       26.209 -25.010   6.531  0.00  0.00    +0.046 A 
ATOM      4  C   LIG    1       25.223 -25.947   6.196  0.00  0.00    +0.121 A 
ATOM      5  C   LIG    1       23.890 -25.537   6.212  0.00  0.00    +0.046 A 
ATOM      6  C   LIG    1       23.541 -24.227   6.553  0.00  0.00    +0.007 A 
ENDROOT
BRANCH   1   7
ATOM      7  C   LIG    1       24.095 -21.940   7.432  0.00  0.00    +0.046 C 
BRANCH   7   8
ATOM      8  C   LIG    1       25.168 -20.898   7.106  0.00  0.00    +0.125 C 
BRANCH   8   9
ATOM      9  C   LIG    1       26.059 -20.578   8.293  0.00  0.00    +0.307 C 
ATOM     10  O   LIG    1       25.816 -20.766   9.467  0.00  0.00    -0.251 OA
BRANCH   9  12
ATOM     11  C   LIG    1       28.301 -21.054   7.666  0.00  0.00    +0.280 C 
ATOM     12  O   LIG    1       27.245 -20.091   7.760  0.00  0.00    -0.468 OA
ENDBRANCH   9  12
ENDBRANCH   8   9
ENDBRANCH   7   8
ENDBRANCH   1   7
BRANCH   4  13
ATOM     13  O   LIG    1       25.663 -27.205   5.850  0.00  0.00    -0.489 OA
BRANCH  13  14
ATOM     14  C   LIG    1       24.691 -28.073   5.232  0.00  0.00    +0.261 C 
BRANCH  14  15
ATOM     15  C   LIG    1       24.059 -29.033   6.254  0.00  0.00    +0.166 C 
BRANCH  15  16
ATOM     16  O   LIG    1       23.138 -29.901   5.573  0.00  0.00    -0.387 OA
ATOM     17  H   LIG    1       23.206 -29.682   4.625  0.00  0.00    +0.210 HD
ENDBRANCH  15  16
BRANCH  15  18
ATOM     18  C   LIG    1       25.109 -29.862   7.007  0.00  0.00    +0.115 C 
BRANCH  18  19
ATOM     19  N   LIG    1       25.844 -29.053   7.991  0.00  0.00    -0.311 NA
ATOM     20  H   LIG    1       25.387 -28.141   8.072  0.00  0.00    +0.122 HD
BRANCH  19  21
ATOM     21  C   LIG    1       25.969 -29.712   9.296  0.00  0.00    +0.048 C 
ATOM     22  C   LIG    1       26.880 -30.943   9.273  0.00  0.00    +0.024 C 
ATOM     23  C   LIG    1       24.581 -30.117   9.797  0.00  0.00    +0.024 C 
ENDBRANCH  19  21
ENDBRANCH  18  19
ENDBRANCH  15  18
ENDBRANCH  14  15
ENDBRANCH  13  14
ENDBRANCH   4  13
TORSDOF 11
ENDMDL
