MODEL 1
REMARK VINA RESULT:      -9.8      0.000      0.000
REMARK  Name = *****
REMARK                            x       y       z     vdW  Elec       q    Type
REMARK                         _______ _______ _______ _____ _____    ______ ____
ROOT
ATOM      1  C   LIG    1       24.456 -21.608   7.336  0.00  0.00    +0.190 C 
ENDROOT
BRANCH   1   2
ATOM      2  C   LIG    1       24.646 -23.093   6.952  0.00  0.00    -0.005 A 
ATOM      3  C   LIG    1       23.540 -23.909   6.632  0.00  0.00    +0.007 A 
ATOM      4  C   LIG    1       23.690 -25.267   6.326  0.00  0.00    +0.000 A 
ATOM      5  C   LIG    1       24.955 -25.842   6.305  0.00  0.00    +0.000 A 
ATOM      6  C   LIG    1       26.067 -25.059   6.596  0.00  0.00    +0.000 A 
ATOM      7  C   LIG    1       25.916 -23.702   6.916  0.00  0.00    +0.007 A 
ENDBRANCH   1   2
BRANCH   1   8
ATOM      8  C   LIG    1       24.378 -20.632   6.122  0.00  0.00    +0.036 C 
ATOM      9  C   LIG    1       24.721 -21.269   4.757  0.00  0.00    +0.007 C 
ATOM     10  C   LIG    1       23.829 -20.567   3.742  0.00  0.00    +0.000 C 
ATOM     11  C   LIG    1       22.526 -20.407   4.495  0.00  0.00    +0.000 C 
ATOM     12  C   LIG    1       22.963 -20.023   5.904  0.00  0.00    +0.007 C 
ENDBRANCH   1   8
BRANCH   1  13
ATOM     13  C   LIG    1       25.616 -21.136   8.291  0.00  0.00    +0.344 C 
ATOM     14  O   LIG    1       25.783 -21.475   9.450  0.00  0.00    -0.247 OA
BRANCH  13  15
ATOM     15  O   LIG    1       26.439 -20.241   7.645  0.00  0.00    -0.454 OA
BRANCH  15  19
ATOM     16  C   LIG    1       29.594 -18.629   8.579  0.00  0.00    +0.192 C 
ATOM     17  N   LIG    1       29.814 -19.972   7.886  0.00  0.00    +0.242 N 
ATOM     18  C   LIG    1       28.669 -20.952   8.187  0.00  0.00    +0.178 C 
ATOM     19  C   LIG    1       27.637 -20.782   7.061  0.00  0.00    +0.226 C 
ATOM     20  C   LIG    1       28.261 -19.806   6.066  0.00  0.00    +0.101 C 
ATOM     21  C   LIG    1       29.748 -19.821   6.371  0.00  0.00    +0.136 C 
ATOM     22  C   LIG    1       31.146 -20.542   8.341  0.00  0.00    +0.192 C 
ENDBRANCH  15  19
ENDBRANCH  13  15
ENDBRANCH   1  13
BRANCH   1  23
ATOM     23  O   LIG    1       23.219 -21.472   8.075  0.00  0.00    -0.373 OA
ATOM     24  H   LIG    1       22.583 -22.080   7.660  0.00  0.00    +0.211 HD
ENDBRANCH   1  23
TORSDOF 6
ENDMDL
MODEL 2
REMARK VINA RESULT:      -9.2      1.160      3.843
REMARK  Name = *****
REMARK                            x       y       z     vdW  Elec       q    Type
REMARK                         _______ _______ _______ _____ _____    ______ ____
ROOT
ATOM      1  C   LIG    1       25.507 -21.452   6.678  0.00  0.00    +0.190 C 
ENDROOT
BRANCH   1   2
ATOM      2  C   LIG    1       24.569 -20.609   5.782  0.00  0.00    -0.005 A 
ATOM      3  C   LIG    1       24.989 -20.153   4.515  0.00  0.00    +0.007 A 
ATOM      4  C   LIG    1       24.169 -19.350   3.712  0.00  0.00    +0.000 A 
ATOM      5  C   LIG    1       22.894 -19.004   4.143  0.00  0.00    +0.000 A 
ATOM      6  C   LIG    1       22.443 -19.456   5.379  0.00  0.00    +0.000 A 
ATOM      7  C   LIG    1       23.269 -20.248   6.190  0.00  0.00    +0.007 A 
ENDBRANCH   1   2
BRANCH   1   8
ATOM      8  C   LIG    1       24.860 -22.753   7.244  0.00  0.00    +0.036 C 
ATOM      9  C   LIG    1       23.589 -23.220   6.501  0.00  0.00    +0.007 C 
ATOM     10  C   LIG    1       23.621 -24.742   6.550  0.00  0.00    +0.000 C 
ATOM     11  C   LIG    1       25.090 -25.052   6.355  0.00  0.00    +0.000 C 
ATOM     12  C   LIG    1       25.801 -23.991   7.187  0.00  0.00    +0.007 C 
ENDBRANCH   1   8
BRANCH   1  13
ATOM     13  C   LIG    1       26.040 -20.586   7.880  0.00  0.00    +0.344 C 
ATOM     14  O   LIG    1       25.503 -20.445   8.965  0.00  0.00    -0.247 OA
BRANCH  13  15
ATOM     15  O   LIG    1       27.220 -19.963   7.540  0.00  0.00    -0.454 OA
BRANCH  15  19
ATOM     16  C   LIG    1       30.539 -19.085   6.260  0.00  0.00    +0.192 C 
ATOM     17  N   LIG    1       30.540 -19.299   7.773  0.00  0.00    +0.242 N 
ATOM     18  C   LIG    1       29.195 -18.897   8.396  0.00  0.00    +0.178 C 
ATOM     19  C   LIG    1       28.330 -20.166   8.432  0.00  0.00    +0.226 C 
ATOM     20  C   LIG    1       29.231 -21.300   7.950  0.00  0.00    +0.101 C 
ATOM     21  C   LIG    1       30.648 -20.781   8.113  0.00  0.00    +0.136 C 
ATOM     22  C   LIG    1       31.677 -18.495   8.377  0.00  0.00    +0.192 C 
ENDBRANCH  15  19
ENDBRANCH  13  15
ENDBRANCH   1  13
BRANCH   1  23
ATOM     23  O   LIG    1       26.659 -21.851   5.899  0.00  0.00    -0.373 OA
ATOM     24  H   LIG    1       26.532 -21.479   5.009  0.00  0.00    +0.211 HD
ENDBRANCH   1  23
TORSDOF 6
ENDMDL
MODEL 3
REMARK VINA RESULT:      -8.8      2.583      5.948
REMARK  Name = *****
REMARK                            x       y       z     vdW  Elec       q    Type
REMARK                         _______ _______ _______ _____ _____    ______ ____
ROOT
ATOM      1  C   LIG    1       23.907 -22.030   7.068  0.00  0.00    +0.190 C 
ENDROOT
BRANCH   1   2
ATOM      2  C   LIG    1       23.696 -21.132   5.827  0.00  0.00    -0.005 A 
ATOM      3  C   LIG    1       24.358 -21.404   4.611  0.00  0.00    +0.007 A 
ATOM      4  C   LIG    1       24.213 -20.574   3.493  0.00  0.00    +0.000 A 
ATOM      5  C   LIG    1       23.380 -19.463   3.550  0.00  0.00    +0.000 A 
ATOM      6  C   LIG    1       22.698 -19.180   4.729  0.00  0.00    +0.000 A 
ATOM      7  C   LIG    1       22.853 -20.003   5.855  0.00  0.00    +0.007 A 
ENDBRANCH   1   2
BRANCH   1   8
ATOM      8  C   LIG    1       25.389 -22.139   7.541  0.00  0.00    +0.036 C 
ATOM      9  C   LIG    1       26.435 -21.680   6.501  0.00  0.00    +0.007 C 
ATOM     10  C   LIG    1       27.566 -21.054   7.307  0.00  0.00    +0.000 C 
ATOM     11  C   LIG    1       26.827 -20.319   8.405  0.00  0.00    +0.000 C 
ATOM     12  C   LIG    1       25.708 -21.278   8.796  0.00  0.00    +0.007 C 
ENDBRANCH   1   8
BRANCH   1  13
ATOM     13  C   LIG    1       23.353 -23.479   6.797  0.00  0.00    +0.344 C 
ATOM     14  O   LIG    1       22.206 -23.773   6.510  0.00  0.00    -0.247 OA
BRANCH  13  15
ATOM     15  O   LIG    1       24.351 -24.414   6.953  0.00  0.00    -0.454 OA
BRANCH  15  19
ATOM     16  C   LIG    1       25.384 -27.906   7.358  0.00  0.00    +0.192 C 
ATOM     17  N   LIG    1       25.164 -27.534   5.892  0.00  0.00    +0.242 N 
ATOM     18  C   LIG    1       24.065 -26.470   5.744  0.00  0.00    +0.178 C 
ATOM     19  C   LIG    1       24.770 -25.105   5.763  0.00  0.00    +0.226 C 
ATOM     20  C   LIG    1       26.267 -25.407   5.792  0.00  0.00    +0.101 C 
ATOM     21  C   LIG    1       26.393 -26.842   5.315  0.00  0.00    +0.136 C 
ATOM     22  C   LIG    1       24.806 -28.791   5.120  0.00  0.00    +0.192 C 
ENDBRANCH  15  19
ENDBRANCH  13  15
ENDBRANCH   1  13
BRANCH   1  23
ATOM     23  O   LIG    1       23.146 -21.486   8.172  0.00  0.00    -0.373 OA
ATOM     24  H   LIG    1       23.297 -22.077   8.929  0.00  0.00    +0.211 HD
ENDBRANCH   1  23
TORSDOF 6
ENDMDL
MODEL 4
REMARK VINA RESULT:      -8.6      2.812      5.683
REMARK  Name = *****
REMARK                            x       y       z     vdW  Elec       q    Type
REMARK                         _______ _______ _______ _____ _____    ______ ____
ROOT
ATOM      1  C   LIG    1       24.273 -22.246   5.642  0.00  0.00    +0.190 C 
ENDROOT
BRANCH   1   2
ATOM      2  C   LIG    1       25.289 -21.526   6.559  0.00  0.00    -0.005 A 
ATOM      3  C   LIG    1       26.429 -20.890   6.022  0.00  0.00    +0.007 A 
ATOM      4  C   LIG    1       27.382 -20.273   6.843  0.00  0.00    +0.000 A 
ATOM      5  C   LIG    1       27.207 -20.251   8.221  0.00  0.00    +0.000 A 
ATOM      6  C   LIG    1       26.083 -20.851   8.778  0.00  0.00    +0.000 A 
ATOM      7  C   LIG    1       25.135 -21.481   7.958  0.00  0.00    +0.007 A 
ENDBRANCH   1   2
BRANCH   1   8
ATOM      8  C   LIG    1       23.142 -21.328   5.086  0.00  0.00    +0.036 C 
ATOM      9  C   LIG    1       22.801 -20.111   5.974  0.00  0.00    +0.007 C 
ATOM     10  C   LIG    1       22.425 -18.993   5.011  0.00  0.00    +0.000 C 
ATOM     11  C   LIG    1       23.408 -19.185   3.876  0.00  0.00    +0.000 C 
ATOM     12  C   LIG    1       23.476 -20.698   3.703  0.00  0.00    +0.007 C 
ENDBRANCH   1   8
BRANCH   1  13
ATOM     13  C   LIG    1       23.614 -23.459   6.400  0.00  0.00    +0.344 C 
ATOM     14  O   LIG    1       22.469 -23.519   6.813  0.00  0.00    -0.247 OA
BRANCH  13  15
ATOM     15  O   LIG    1       24.528 -24.475   6.571  0.00  0.00    -0.454 OA
BRANCH  15  19
ATOM     16  C   LIG    1       26.172 -27.584   7.598  0.00  0.00    +0.192 C 
ATOM     17  N   LIG    1       25.210 -27.797   6.430  0.00  0.00    +0.242 N 
ATOM     18  C   LIG    1       24.024 -26.822   6.498  0.00  0.00    +0.178 C 
ATOM     19  C   LIG    1       24.419 -25.590   5.669  0.00  0.00    +0.226 C 
ATOM     20  C   LIG    1       25.766 -25.928   5.035  0.00  0.00    +0.101 C 
ATOM     21  C   LIG    1       25.873 -27.440   5.105  0.00  0.00    +0.136 C 
ATOM     22  C   LIG    1       24.728 -29.236   6.453  0.00  0.00    +0.192 C 
ENDBRANCH  15  19
ENDBRANCH  13  15
ENDBRANCH   1  13
BRANCH   1  23
ATOM     23  O   LIG    1       24.979 -22.792   4.503  0.00  0.00    -0.373 OA
ATOM     24  H   LIG    1       25.678 -23.367   4.862  0.00  0.00    +0.211 HD
ENDBRANCH   1  23
TORSDOF 6
ENDMDL
MODEL 5
REMARK VINA RESULT:      -8.4      2.135      5.670
REMARK  Name = *****
REMARK                            x       y       z     vdW  Elec       q    Type
REMARK                         _______ _______ _______ _____ _____    ______ ____
ROOT
ATOM      1  C   LIG    1       26.517 -20.972   7.253  0.00  0.00    +0.190 C 
ENDROOT
BRANCH   1   2
ATOM      2  C   LIG    1       25.377 -20.622   6.267  0.00  0.00    -0.005 A 
ATOM      3  C   LIG    1       24.030 -20.617   6.686  0.00  0.00    +0.007 A 
ATOM      4  C   LIG    1       22.983 -20.348   5.795  0.00  0.00    +0.000 A 
ATOM      5  C   LIG    1       23.257 -20.048   4.466  0.00  0.00    +0.000 A 
ATOM      6  C   LIG    1       24.577 -20.025   4.028  0.00  0.00    +0.000 A 
ATOM      7  C   LIG    1       25.625 -20.308   4.916  0.00  0.00    +0.007 A 
ENDBRANCH   1   2
BRANCH   1   8
ATOM      8  C   LIG    1       27.946 -20.914   6.632  0.00  0.00    +0.036 C 
ATOM      9  C   LIG    1       28.395 -19.510   6.171  0.00  0.00    +0.007 C 
ATOM     10  C   LIG    1       29.895 -19.454   6.428  0.00  0.00    +0.000 C 
ATOM     11  C   LIG    1       30.037 -20.191   7.743  0.00  0.00    +0.000 C 
ATOM     12  C   LIG    1       29.069 -21.361   7.612  0.00  0.00    +0.007 C 
ENDBRANCH   1   8
BRANCH   1  13
ATOM     13  C   LIG    1       26.289 -22.403   7.869  0.00  0.00    +0.344 C 
ATOM     14  O   LIG    1       26.073 -22.661   9.040  0.00  0.00    -0.247 OA
BRANCH  13  15
ATOM     15  O   LIG    1       26.391 -23.370   6.894  0.00  0.00    -0.454 OA
BRANCH  15  19
ATOM     16  C   LIG    1       26.944 -26.700   5.470  0.00  0.00    +0.192 C 
ATOM     17  N   LIG    1       25.532 -26.538   6.031  0.00  0.00    +0.242 N 
ATOM     18  C   LIG    1       25.513 -25.581   7.232  0.00  0.00    +0.178 C 
ATOM     19  C   LIG    1       25.222 -24.179   6.673  0.00  0.00    +0.226 C 
ATOM     20  C   LIG    1       24.951 -24.372   5.183  0.00  0.00    +0.101 C 
ATOM     21  C   LIG    1       24.622 -25.845   5.024  0.00  0.00    +0.136 C 
ATOM     22  C   LIG    1       25.005 -27.907   6.423  0.00  0.00    +0.192 C 
ENDBRANCH  15  19
ENDBRANCH  13  15
ENDBRANCH   1  13
BRANCH   1  23
ATOM     23  O   LIG    1       26.489 -20.029   8.350  0.00  0.00    -0.373 OA
ATOM     24  H   LIG    1       26.192 -19.181   7.977  0.00  0.00    +0.211 HD
ENDBRANCH   1  23
TORSDOF 6
ENDMDL
MODEL 6
REMARK VINA RESULT:      -8.0      1.288      1.877
REMARK  Name = *****
REMARK                            x       y       z     vdW  Elec       q    Type
REMARK                         _______ _______ _______ _____ _____    ______ ____
ROOT
ATOM      1  C   LIG    1       24.816 -21.174   6.057  0.00  0.00    +0.190 C 
ENDROOT
BRANCH   1   2
ATOM      2  C   LIG    1       25.108 -22.692   6.079  0.00  0.00    -0.005 A 
ATOM      3  C   LIG    1       24.819 -23.505   4.961  0.00  0.00    +0.007 A 
ATOM      4  C   LIG    1       25.035 -24.888   4.982  0.00  0.00    +0.000 A 
ATOM      5  C   LIG    1       25.573 -25.495   6.110  0.00  0.00    +0.000 A 
ATOM      6  C   LIG    1       25.888 -24.717   7.220  0.00  0.00    +0.000 A 
ATOM      7  C   LIG    1       25.659 -23.333   7.206  0.00  0.00    +0.007 A 
ENDBRANCH   1   2
BRANCH   1   8
ATOM      8  C   LIG    1       23.611 -20.762   5.156  0.00  0.00    +0.036 C 
ATOM      9  C   LIG    1       22.684 -19.688   5.767  0.00  0.00    +0.007 C 
ATOM     10  C   LIG    1       22.199 -18.850   4.592  0.00  0.00    +0.000 C 
ATOM     11  C   LIG    1       23.431 -18.757   3.716  0.00  0.00    +0.000 C 
ATOM     12  C   LIG    1       24.036 -20.154   3.789  0.00  0.00    +0.007 C 
ENDBRANCH   1   8
BRANCH   1  13
ATOM     13  C   LIG    1       26.092 -20.376   5.594  0.00  0.00    +0.344 C 
ATOM     14  O   LIG    1       26.316 -19.957   4.471  0.00  0.00    -0.247 OA
BRANCH  13  15
ATOM     15  O   LIG    1       26.972 -20.224   6.641  0.00  0.00    -0.454 OA
BRANCH  15  19
ATOM     16  C   LIG    1       29.473 -18.750   8.876  0.00  0.00    +0.192 C 
ATOM     17  N   LIG    1       30.057 -19.866   8.012  0.00  0.00    +0.242 N 
ATOM     18  C   LIG    1       29.004 -20.942   7.703  0.00  0.00    +0.178 C 
ATOM     19  C   LIG    1       28.348 -20.545   6.371  0.00  0.00    +0.226 C 
ATOM     20  C   LIG    1       29.118 -19.324   5.874  0.00  0.00    +0.101 C 
ATOM     21  C   LIG    1       30.433 -19.346   6.630  0.00  0.00    +0.136 C 
ATOM     22  C   LIG    1       31.248 -20.469   8.735  0.00  0.00    +0.192 C 
ENDBRANCH  15  19
ENDBRANCH  13  15
ENDBRANCH   1  13
BRANCH   1  23
ATOM     23  O   LIG    1       24.511 -20.740   7.404  0.00  0.00    -0.373 OA
ATOM     24  H   LIG    1       24.028 -19.900   7.319  0.00  0.00    +0.211 HD
ENDBRANCH   1  23
TORSDOF 6
ENDMDL
MODEL 7
REMARK VINA RESULT:      -7.8      2.391      5.619
REMARK  Name = *****
REMARK                            x       y       z     vdW  Elec       q    Type
REMARK                         _______ _______ _______ _____ _____    ______ ____
ROOT
ATOM      1  C   LIG    1       25.719 -21.400   6.299  0.00  0.00    +0.190 C 
ENDROOT
BRANCH   1   2
ATOM      2  C   LIG    1       26.991 -20.534   6.454  0.00  0.00    -0.005 A 
ATOM      3  C   LIG    1       27.517 -19.813   5.361  0.00  0.00    +0.007 A 
ATOM      4  C   LIG    1       28.693 -19.062   5.472  0.00  0.00    +0.000 A 
ATOM      5  C   LIG    1       29.362 -18.987   6.688  0.00  0.00    +0.000 A 
ATOM      6  C   LIG    1       28.856 -19.671   7.789  0.00  0.00    +0.000 A 
ATOM      7  C   LIG    1       27.686 -20.435   7.675  0.00  0.00    +0.007 A 
ENDBRANCH   1   2
BRANCH   1   8
ATOM      8  C   LIG    1       24.381 -20.608   6.426  0.00  0.00    +0.036 C 
ATOM      9  C   LIG    1       24.062 -19.679   5.233  0.00  0.00    +0.007 C 
ATOM     10  C   LIG    1       22.547 -19.706   5.087  0.00  0.00    +0.000 C 
ATOM     11  C   LIG    1       22.208 -21.154   5.372  0.00  0.00    +0.000 C 
ATOM     12  C   LIG    1       23.126 -21.521   6.533  0.00  0.00    +0.007 C 
ENDBRANCH   1   8
BRANCH   1  13
ATOM     13  C   LIG    1       25.719 -22.568   7.355  0.00  0.00    +0.344 C 
ATOM     14  O   LIG    1       25.500 -22.464   8.550  0.00  0.00    -0.247 OA
BRANCH  13  15
ATOM     15  O   LIG    1       26.033 -23.764   6.751  0.00  0.00    -0.454 OA
BRANCH  15  19
ATOM     16  C   LIG    1       26.037 -26.573   4.398  0.00  0.00    +0.192 C 
ATOM     17  N   LIG    1       25.393 -26.939   5.734  0.00  0.00    +0.242 N 
ATOM     18  C   LIG    1       26.033 -26.162   6.896  0.00  0.00    +0.178 C 
ATOM     19  C   LIG    1       25.197 -24.887   7.085  0.00  0.00    +0.226 C 
ATOM     20  C   LIG    1       24.020 -25.011   6.120  0.00  0.00    +0.101 C 
ATOM     21  C   LIG    1       23.938 -26.488   5.779  0.00  0.00    +0.136 C 
ATOM     22  C   LIG    1       25.529 -28.436   5.947  0.00  0.00    +0.192 C 
ENDBRANCH  15  19
ENDBRANCH  13  15
ENDBRANCH   1  13
BRANCH   1  23
ATOM     23  O   LIG    1       25.730 -22.014   4.989  0.00  0.00    -0.373 OA
ATOM     24  H   LIG    1       25.205 -22.830   5.063  0.00  0.00    +0.211 HD
ENDBRANCH   1  23
TORSDOF 6
ENDMDL
MODEL 8
REMARK VINA RESULT:      -7.1      1.304      2.081
REMARK  Name = *****
REMARK                            x       y       z     vdW  Elec       q    Type
REMARK                         _______ _______ _______ _____ _____    ______ ____
ROOT
ATOM      1  C   LIG    1       25.811 -21.743   7.168  0.00  0.00    +0.190 C 
ENDROOT
BRANCH   1   2
ATOM      2  C   LIG    1       25.613 -23.164   6.591  0.00  0.00    -0.005 A 
ATOM      3  C   LIG    1       25.111 -23.355   5.287  0.00  0.00    +0.007 A 
ATOM      4  C   LIG    1       24.882 -24.635   4.767  0.00  0.00    +0.000 A 
ATOM      5  C   LIG    1       25.175 -25.761   5.527  0.00  0.00    +0.000 A 
ATOM      6  C   LIG    1       25.690 -25.604   6.810  0.00  0.00    +0.000 A 
ATOM      7  C   LIG    1       25.907 -24.323   7.337  0.00  0.00    +0.007 A 
ENDBRANCH   1   2
BRANCH   1   8
ATOM      8  C   LIG    1       24.643 -20.755   6.867  0.00  0.00    +0.036 C 
ATOM      9  C   LIG    1       24.521 -20.329   5.387  0.00  0.00    +0.007 C 
ATOM     10  C   LIG    1       23.029 -20.159   5.131  0.00  0.00    +0.000 C 
ATOM     11  C   LIG    1       22.423 -21.302   5.918  0.00  0.00    +0.000 C 
ATOM     12  C   LIG    1       23.238 -21.331   7.206  0.00  0.00    +0.007 C 
ENDBRANCH   1   8
BRANCH   1  13
ATOM     13  C   LIG    1       27.154 -21.117   6.635  0.00  0.00    +0.344 C 
ATOM     14  O   LIG    1       27.260 -20.186   5.856  0.00  0.00    -0.247 OA
BRANCH  13  15
ATOM     15  O   LIG    1       28.239 -21.790   7.152  0.00  0.00    -0.454 OA
BRANCH  15  19
ATOM     16  C   LIG    1       30.680 -19.128   6.538  0.00  0.00    +0.192 C 
ATOM     17  N   LIG    1       30.258 -19.198   8.004  0.00  0.00    +0.242 N 
ATOM     18  C   LIG    1       28.805 -19.677   8.146  0.00  0.00    +0.178 C 
ATOM     19  C   LIG    1       28.859 -21.204   8.310  0.00  0.00    +0.226 C 
ATOM     20  C   LIG    1       30.342 -21.563   8.389  0.00  0.00    +0.101 C 
ATOM     21  C   LIG    1       31.047 -20.268   8.748  0.00  0.00    +0.136 C 
ATOM     22  C   LIG    1       30.437 -17.825   8.628  0.00  0.00    +0.192 C 
ENDBRANCH  15  19
ENDBRANCH  13  15
ENDBRANCH   1  13
BRANCH   1  23
ATOM     23  O   LIG    1       25.931 -21.837   8.607  0.00  0.00    -0.373 OA
ATOM     24  H   LIG    1       25.084 -21.530   8.975  0.00  0.00    +0.211 HD
ENDBRANCH   1  23
TORSDOF 6
ENDMDL
