MODEL 1
REMARK VINA RESULT:      -1.8      0.000      0.000
REMARK  Name = *****
REMARK                            x       y       z     vdW  Elec       q    Type
REMARK                         _______ _______ _______ _____ _____    ______ ____
ROOT
ATOM      1  C   LIG    1       25.442 -18.344   3.459  0.00  0.00    +0.050 C 
ATOM      2  C   LIG    1       24.099 -17.804   3.941  0.00  0.00    -0.037 A 
ATOM      3  C   LIG    1       22.950 -18.630   3.969  0.00  0.00    -0.043 A 
ATOM      4  C   LIG    1       21.715 -18.051   4.327  0.00  0.00    +0.004 A 
ATOM      5  C   LIG    1       21.620 -16.718   4.730  0.00  0.00    +0.000 A 
ATOM      6  C   LIG    1       22.765 -15.943   4.804  0.00  0.00    +0.000 A 
ATOM      7  C   LIG    1       22.929 -20.134   3.727  0.00  0.00    +0.040 C 
ATOM      8  C   LIG    1       24.216 -20.955   3.535  0.00  0.00    +0.040 C 
ATOM      9  C   LIG    1       25.319 -20.634   4.516  0.00  0.00    -0.043 A 
ATOM     10  C   LIG    1       25.707 -21.572   5.481  0.00  0.00    +0.004 A 
ATOM     11  C   LIG    1       26.683 -21.250   6.423  0.00  0.00    +0.000 A 
ATOM     12  C   LIG    1       27.276 -19.989   6.413  0.00  0.00    +0.000 A 
ATOM     13  C   LIG    1       26.909 -19.051   5.447  0.00  0.00    +0.004 A 
ATOM     14  C   LIG    1       23.987 -16.487   4.429  0.00  0.00    +0.004 A 
ATOM     15  C   LIG    1       25.944 -19.364   4.479  0.00  0.00    -0.037 A 
ENDROOT
BRANCH   1  16
ATOM     16  C   LIG    1       26.503 -17.305   2.977  0.00  0.00    +0.017 C 
BRANCH  16  18
ATOM     17  C   LIG    1       25.831 -14.923   2.283  0.00  0.00    +0.009 C 
ATOM     18  C   LIG    1       26.262 -15.839   3.440  0.00  0.00    +0.001 C 
BRANCH  18  19
ATOM     19  C   LIG    1       27.519 -15.224   4.110  0.00  0.00    +0.087 C 
BRANCH  19  20
ATOM     20  N   LIG    1       27.558 -13.753   4.237  0.00  0.00    -0.308 NA
ATOM     21  C   LIG    1       28.832 -13.181   3.799  0.00  0.00    +0.104 C 
ATOM     22  C   LIG    1       27.313 -13.376   5.634  0.00  0.00    +0.104 C 
ENDBRANCH  19  20
ENDBRANCH  18  19
ENDBRANCH  16  18
ENDBRANCH   1  16
TORSDOF 4
ENDMDL
MODEL 2
REMARK VINA RESULT:      -0.9      2.312      6.261
REMARK  Name = *****
REMARK                            x       y       z     vdW  Elec       q    Type
REMARK                         _______ _______ _______ _____ _____    ______ ____
ROOT
ATOM      1  C   LIG    1       25.650 -17.955   3.165  0.00  0.00    +0.050 C 
ATOM      2  C   LIG    1       26.716 -18.309   4.197  0.00  0.00    -0.037 A 
ATOM      3  C   LIG    1       27.813 -17.446   4.437  0.00  0.00    -0.043 A 
ATOM      4  C   LIG    1       28.819 -17.872   5.327  0.00  0.00    +0.004 A 
ATOM      5  C   LIG    1       28.716 -19.073   6.031  0.00  0.00    +0.000 A 
ATOM      6  C   LIG    1       27.589 -19.863   5.874  0.00  0.00    +0.000 A 
ATOM      7  C   LIG    1       27.975 -16.038   3.881  0.00  0.00    +0.040 C 
ATOM      8  C   LIG    1       26.870 -15.341   3.067  0.00  0.00    +0.040 C 
ATOM      9  C   LIG    1       25.481 -15.481   3.644  0.00  0.00    -0.043 A 
ATOM     10  C   LIG    1       24.814 -14.368   4.170  0.00  0.00    +0.004 A 
ATOM     11  C   LIG    1       23.558 -14.511   4.756  0.00  0.00    +0.000 A 
ATOM     12  C   LIG    1       22.959 -15.768   4.827  0.00  0.00    +0.000 A 
ATOM     13  C   LIG    1       23.606 -16.882   4.293  0.00  0.00    +0.004 A 
ATOM     14  C   LIG    1       26.599 -19.475   4.981  0.00  0.00    +0.004 A 
ATOM     15  C   LIG    1       24.861 -16.754   3.682  0.00  0.00    -0.037 A 
ENDROOT
BRANCH   1  16
ATOM     16  C   LIG    1       24.787 -19.124   2.592  0.00  0.00    +0.017 C 
BRANCH  16  18
ATOM     17  C   LIG    1       24.229 -21.572   3.145  0.00  0.00    +0.009 C 
ATOM     18  C   LIG    1       24.226 -20.119   3.648  0.00  0.00    +0.001 C 
BRANCH  18  19
ATOM     19  C   LIG    1       22.780 -19.754   4.083  0.00  0.00    +0.087 C 
BRANCH  19  20
ATOM     20  N   LIG    1       22.318 -20.287   5.380  0.00  0.00    -0.308 NA
ATOM     21  C   LIG    1       23.409 -20.467   6.339  0.00  0.00    +0.104 C 
ATOM     22  C   LIG    1       21.642 -21.572   5.168  0.00  0.00    +0.104 C 
ENDBRANCH  19  20
ENDBRANCH  18  19
ENDBRANCH  16  18
ENDBRANCH   1  16
TORSDOF 4
ENDMDL
MODEL 3
REMARK VINA RESULT:       0.2      2.045      5.456
REMARK  Name = *****
REMARK                            x       y       z     vdW  Elec       q    Type
REMARK                         _______ _______ _______ _____ _____    ______ ____
ROOT
ATOM      1  C   LIG    1       25.961 -16.694   4.172  0.00  0.00    +0.050 C 
ATOM      2  C   LIG    1       24.960 -17.730   3.672  0.00  0.00    -0.037 A 
ATOM      3  C   LIG    1       23.600 -17.677   4.061  0.00  0.00    -0.043 A 
ATOM      4  C   LIG    1       22.743 -18.718   3.650  0.00  0.00    +0.004 A 
ATOM      5  C   LIG    1       23.184 -19.742   2.809  0.00  0.00    +0.000 A 
ATOM      6  C   LIG    1       24.487 -19.730   2.342  0.00  0.00    +0.000 A 
ATOM      7  C   LIG    1       22.938 -16.540   4.827  0.00  0.00    +0.040 C 
ATOM      8  C   LIG    1       23.679 -15.234   5.166  0.00  0.00    +0.040 C 
ATOM      9  C   LIG    1       24.482 -14.653   4.026  0.00  0.00    -0.043 A 
ATOM     10  C   LIG    1       24.095 -13.447   3.426  0.00  0.00    +0.004 A 
ATOM     11  C   LIG    1       24.802 -12.945   2.335  0.00  0.00    +0.000 A 
ATOM     12  C   LIG    1       25.899 -13.643   1.831  0.00  0.00    +0.000 A 
ATOM     13  C   LIG    1       26.303 -14.836   2.430  0.00  0.00    +0.004 A 
ATOM     14  C   LIG    1       25.356 -18.728   2.758  0.00  0.00    +0.004 A 
ATOM     15  C   LIG    1       25.616 -15.348   3.540  0.00  0.00    -0.037 A 
ENDROOT
BRANCH   1  16
ATOM     16  C   LIG    1       27.474 -17.079   4.136  0.00  0.00    +0.017 C 
BRANCH  16  18
ATOM     17  C   LIG    1       29.470 -18.174   5.330  0.00  0.00    +0.009 C 
ATOM     18  C   LIG    1       27.939 -18.065   5.246  0.00  0.00    +0.001 C 
BRANCH  18  19
ATOM     19  C   LIG    1       27.357 -19.490   5.042  0.00  0.00    +0.087 C 
BRANCH  19  20
ATOM     20  N   LIG    1       26.702 -20.118   6.206  0.00  0.00    -0.308 NA
ATOM     21  C   LIG    1       27.576 -21.062   6.906  0.00  0.00    +0.104 C 
ATOM     22  C   LIG    1       25.489 -20.817   5.767  0.00  0.00    +0.104 C 
ENDBRANCH  19  20
ENDBRANCH  18  19
ENDBRANCH  16  18
ENDBRANCH   1  16
TORSDOF 4
ENDMDL
