MODEL 1
REMARK VINA RESULT:      -4.2      0.000      0.000
REMARK  Name = *****
REMARK                            x       y       z     vdW  Elec       q    Type
REMARK                         _______ _______ _______ _____ _____    ______ ____
ROOT
ATOM      1  N   LIG    1       25.887 -18.841   4.300  0.00  0.00    -0.297 N 
ATOM      2  C   LIG    1       24.605 -19.451   4.488  0.00  0.00    +0.048 A 
ATOM      3  C   LIG    1       24.396 -20.451   5.463  0.00  0.00    +0.034 A 
ATOM      4  C   LIG    1       23.135 -21.065   5.626  0.00  0.00    +0.017 A 
ATOM      5  C   LIG    1       22.045 -20.695   4.852  0.00  0.00    +0.001 A 
ATOM      6  C   LIG    1       22.212 -19.701   3.903  0.00  0.00    +0.002 A 
ATOM      7  S   LIG    1       25.646 -21.022   6.583  0.00  0.00    -0.086 S 
ATOM      8  C   LIG    1       27.065 -20.073   6.100  0.00  0.00    +0.034 A 
ATOM      9  C   LIG    1       28.235 -20.340   6.839  0.00  0.00    +0.017 A 
ATOM     10  C   LIG    1       29.437 -19.705   6.551  0.00  0.00    +0.001 A 
ATOM     11  C   LIG    1       29.474 -18.787   5.517  0.00  0.00    +0.002 A 
ATOM     12  C   LIG    1       28.309 -18.502   4.800  0.00  0.00    +0.024 A 
ATOM     13  C   LIG    1       23.466 -19.102   3.725  0.00  0.00    +0.024 A 
ATOM     14  C   LIG    1       27.065 -19.127   5.054  0.00  0.00    +0.048 A 
ENDROOT
BRANCH   1  15
ATOM     15  C   LIG    1       25.990 -17.786   3.257  0.00  0.00    +0.129 C 
BRANCH  15  17
ATOM     16  C   LIG    1       24.387 -15.805   3.768  0.00  0.00    +0.026 C 
ATOM     17  C   LIG    1       25.836 -16.326   3.810  0.00  0.00    +0.071 C 
BRANCH  17  18
ATOM     18  N   LIG    1       26.748 -15.319   3.190  0.00  0.00    -0.304 NA
ATOM     19  C   LIG    1       27.780 -14.803   4.089  0.00  0.00    +0.105 C 
ATOM     20  C   LIG    1       26.022 -14.216   2.560  0.00  0.00    +0.105 C 
ENDBRANCH  17  18
ENDBRANCH  15  17
ENDBRANCH   1  15
TORSDOF 3
ENDMDL
MODEL 2
REMARK VINA RESULT:      -2.3      1.853      5.793
REMARK  Name = *****
REMARK                            x       y       z     vdW  Elec       q    Type
REMARK                         _______ _______ _______ _____ _____    ______ ____
ROOT
ATOM      1  N   LIG    1       25.661 -17.581   3.758  0.00  0.00    -0.297 N 
ATOM      2  C   LIG    1       25.837 -16.165   3.636  0.00  0.00    +0.048 A 
ATOM      3  C   LIG    1       24.748 -15.272   3.740  0.00  0.00    +0.034 A 
ATOM      4  C   LIG    1       24.926 -13.879   3.594  0.00  0.00    +0.017 A 
ATOM      5  C   LIG    1       26.179 -13.329   3.367  0.00  0.00    +0.001 A 
ATOM      6  C   LIG    1       27.271 -14.177   3.284  0.00  0.00    +0.002 A 
ATOM      7  S   LIG    1       23.082 -15.774   4.079  0.00  0.00    -0.086 S 
ATOM      8  C   LIG    1       23.220 -17.539   4.186  0.00  0.00    +0.034 A 
ATOM      9  C   LIG    1       22.010 -18.212   4.446  0.00  0.00    +0.017 A 
ATOM     10  C   LIG    1       21.951 -19.599   4.516  0.00  0.00    +0.001 A 
ATOM     11  C   LIG    1       23.114 -20.325   4.333  0.00  0.00    +0.002 A 
ATOM     12  C   LIG    1       24.319 -19.658   4.101  0.00  0.00    +0.024 A 
ATOM     13  C   LIG    1       27.096 -15.562   3.408  0.00  0.00    +0.024 A 
ATOM     14  C   LIG    1       24.427 -18.249   4.016  0.00  0.00    +0.048 A 
ENDROOT
BRANCH   1  15
ATOM     15  C   LIG    1       26.880 -18.428   3.650  0.00  0.00    +0.129 C 
BRANCH  15  17
ATOM     16  C   LIG    1       29.055 -18.063   5.023  0.00  0.00    +0.026 C 
ATOM     17  C   LIG    1       27.628 -18.643   5.011  0.00  0.00    +0.071 C 
BRANCH  17  18
ATOM     18  N   LIG    1       27.659 -20.056   5.496  0.00  0.00    -0.304 NA
ATOM     19  C   LIG    1       26.520 -20.432   6.333  0.00  0.00    +0.105 C 
ATOM     20  C   LIG    1       28.916 -20.395   6.161  0.00  0.00    +0.105 C 
ENDBRANCH  17  18
ENDBRANCH  15  17
ENDBRANCH   1  15
TORSDOF 3
ENDMDL
MODEL 3
REMARK VINA RESULT:      -2.1      1.859      4.755
REMARK  Name = *****
REMARK                            x       y       z     vdW  Elec       q    Type
REMARK                         _______ _______ _______ _____ _____    ______ ____
ROOT
ATOM      1  N   LIG    1       25.665 -17.562   3.813  0.00  0.00    -0.297 N 
ATOM      2  C   LIG    1       24.423 -18.235   4.046  0.00  0.00    +0.048 A 
ATOM      3  C   LIG    1       23.209 -17.525   4.176  0.00  0.00    +0.034 A 
ATOM      4  C   LIG    1       21.992 -18.193   4.430  0.00  0.00    +0.017 A 
ATOM      5  C   LIG    1       21.934 -19.575   4.539  0.00  0.00    +0.001 A 
ATOM      6  C   LIG    1       23.104 -20.302   4.393  0.00  0.00    +0.002 A 
ATOM      7  S   LIG    1       23.067 -15.765   4.016  0.00  0.00    -0.086 S 
ATOM      8  C   LIG    1       24.743 -15.263   3.722  0.00  0.00    +0.034 A 
ATOM      9  C   LIG    1       24.925 -13.875   3.563  0.00  0.00    +0.017 A 
ATOM     10  C   LIG    1       26.187 -13.326   3.367  0.00  0.00    +0.001 A 
ATOM     11  C   LIG    1       27.281 -14.171   3.322  0.00  0.00    +0.002 A 
ATOM     12  C   LIG    1       27.099 -15.549   3.453  0.00  0.00    +0.024 A 
ATOM     13  C   LIG    1       24.318 -19.641   4.160  0.00  0.00    +0.024 A 
ATOM     14  C   LIG    1       25.835 -16.153   3.659  0.00  0.00    +0.048 A 
ENDROOT
BRANCH   1  15
ATOM     15  C   LIG    1       26.880 -18.410   3.674  0.00  0.00    +0.129 C 
BRANCH  15  17
ATOM     16  C   LIG    1       29.083 -18.064   5.009  0.00  0.00    +0.026 C 
ATOM     17  C   LIG    1       27.653 -18.639   5.019  0.00  0.00    +0.071 C 
BRANCH  17  18
ATOM     18  N   LIG    1       27.687 -20.056   5.492  0.00  0.00    -0.304 NA
ATOM     19  C   LIG    1       26.560 -20.436   6.342  0.00  0.00    +0.105 C 
ATOM     20  C   LIG    1       28.952 -20.403   6.137  0.00  0.00    +0.105 C 
ENDBRANCH  17  18
ENDBRANCH  15  17
ENDBRANCH   1  15
TORSDOF 3
ENDMDL
MODEL 4
REMARK VINA RESULT:      -1.5      0.970      4.383
REMARK  Name = *****
REMARK                            x       y       z     vdW  Elec       q    Type
REMARK                         _______ _______ _______ _____ _____    ______ ____
ROOT
ATOM      1  N   LIG    1       25.273 -18.365   4.026  0.00  0.00    -0.297 N 
ATOM      2  C   LIG    1       26.517 -18.803   4.583  0.00  0.00    +0.048 A 
ATOM      3  C   LIG    1       26.605 -19.969   5.376  0.00  0.00    +0.034 A 
ATOM      4  C   LIG    1       27.831 -20.381   5.942  0.00  0.00    +0.017 A 
ATOM      5  C   LIG    1       29.003 -19.672   5.723  0.00  0.00    +0.001 A 
ATOM      6  C   LIG    1       28.955 -18.538   4.930  0.00  0.00    +0.002 A 
ATOM      7  S   LIG    1       25.233 -21.036   5.726  0.00  0.00    -0.086 S 
ATOM      8  C   LIG    1       23.889 -20.230   4.893  0.00  0.00    +0.034 A 
ATOM      9  C   LIG    1       22.643 -20.876   5.018  0.00  0.00    +0.017 A 
ATOM     10  C   LIG    1       21.490 -20.343   4.456  0.00  0.00    +0.001 A 
ATOM     11  C   LIG    1       21.578 -19.155   3.754  0.00  0.00    +0.002 A 
ATOM     12  C   LIG    1       22.817 -18.527   3.607  0.00  0.00    +0.024 A 
ATOM     13  C   LIG    1       27.736 -18.114   4.383  0.00  0.00    +0.024 A 
ATOM     14  C   LIG    1       24.017 -19.028   4.166  0.00  0.00    +0.048 A 
ENDROOT
BRANCH   1  15
ATOM     15  C   LIG    1       25.299 -17.133   3.191  0.00  0.00    +0.129 C 
BRANCH  15  17
ATOM     16  C   LIG    1       23.459 -15.607   4.210  0.00  0.00    +0.026 C 
ATOM     17  C   LIG    1       24.968 -15.821   3.983  0.00  0.00    +0.071 C 
BRANCH  17  18
ATOM     18  N   LIG    1       25.569 -14.575   3.417  0.00  0.00    -0.304 NA
ATOM     19  C   LIG    1       26.904 -14.754   2.848  0.00  0.00    +0.105 C 
ATOM     20  C   LIG    1       25.564 -13.466   4.369  0.00  0.00    +0.105 C 
ENDBRANCH  17  18
ENDBRANCH  15  17
ENDBRANCH   1  15
TORSDOF 3
ENDMDL
