MODEL 1
REMARK VINA RESULT:       2.7      0.000      0.000
REMARK  Name = *****
REMARK                            x       y       z     vdW  Elec       q    Type
REMARK                         _______ _______ _______ _____ _____    ______ ____
ROOT
ATOM      1  N   LIG    1       27.510 -14.285   2.773  0.00  0.00    -0.296 NA
ATOM      2  C   LIG    1       27.939 -15.301   3.753  0.00  0.00    +0.100 C 
ATOM      3  C   LIG    1       26.859 -15.667   4.793  0.00  0.00    +0.100 C 
ATOM      4  N   LIG    1       25.571 -16.139   4.228  0.00  0.00    -0.289 NA
ATOM      5  C   LIG    1       25.151 -15.195   3.163  0.00  0.00    +0.100 C 
ATOM      6  C   LIG    1       26.247 -14.749   2.159  0.00  0.00    +0.100 C 
ENDROOT
BRANCH   1   7
ATOM      7  C   LIG    1       27.337 -12.944   3.370  0.00  0.00    +0.119 C 
BRANCH   7  11
ATOM      8  C   LIG    1       23.136 -11.447   5.744  0.00  0.00    +0.044 C 
ATOM      9  C   LIG    1       23.889 -11.680   4.468  0.00  0.00    -0.050 A 
ATOM     10  C   LIG    1       25.200 -12.175   4.503  0.00  0.00    +0.008 A 
ATOM     11  C   LIG    1       25.915 -12.417   3.319  0.00  0.00    -0.033 A 
ATOM     12  C   LIG    1       25.288 -12.170   2.089  0.00  0.00    +0.005 A 
ATOM     13  C   LIG    1       23.982 -11.690   2.043  0.00  0.00    +0.001 A 
ATOM     14  C   LIG    1       23.283 -11.448   3.229  0.00  0.00    +0.003 A 
ENDBRANCH   7  11
ENDBRANCH   1   7
BRANCH   4  15
ATOM     15  C   LIG    1       25.614 -17.563   3.774  0.00  0.00    +0.117 C 
BRANCH  15  16
ATOM     16  C   LIG    1       26.603 -18.427   4.583  0.00  0.00    -0.026 A 
ATOM     17  C   LIG    1       26.130 -19.489   5.374  0.00  0.00    +0.007 A 
ATOM     18  C   LIG    1       27.017 -20.275   6.116  0.00  0.00    +0.020 A 
ATOM     19  C   LIG    1       28.384 -20.009   6.074  0.00  0.00    +0.041 A 
ATOM     20 CL   LIG    1       29.475 -20.990   6.973  0.00  0.00    -0.084 Cl
ATOM     21  C   LIG    1       28.873 -18.953   5.311  0.00  0.00    +0.020 A 
ATOM     22  C   LIG    1       27.984 -18.156   4.583  0.00  0.00    +0.007 A 
ENDBRANCH  15  16
BRANCH  15  23
ATOM     23  C   LIG    1       24.242 -18.259   3.808  0.00  0.00    -0.026 A 
ATOM     24  C   LIG    1       24.116 -19.588   3.366  0.00  0.00    +0.005 A 
ATOM     25  C   LIG    1       22.883 -20.243   3.412  0.00  0.00    +0.000 A 
ATOM     26  C   LIG    1       21.757 -19.580   3.896  0.00  0.00    +0.000 A 
ATOM     27  C   LIG    1       21.865 -18.268   4.352  0.00  0.00    +0.000 A 
ATOM     28  C   LIG    1       23.100 -17.617   4.321  0.00  0.00    +0.005 A 
ENDBRANCH  15  23
ENDBRANCH   4  15
TORSDOF 5
ENDMDL
MODEL 2
REMARK VINA RESULT:       5.0      3.006      6.486
REMARK  Name = *****
REMARK                            x       y       z     vdW  Elec       q    Type
REMARK                         _______ _______ _______ _____ _____    ______ ____
ROOT
ATOM      1  N   LIG    1       23.963 -21.549   4.024  0.00  0.00    -0.296 NA
ATOM      2  C   LIG    1       24.200 -20.520   2.993  0.00  0.00    +0.100 C 
ATOM      3  C   LIG    1       24.152 -19.073   3.526  0.00  0.00    +0.100 C 
ATOM      4  N   LIG    1       25.083 -18.778   4.642  0.00  0.00    -0.289 NA
ATOM      5  C   LIG    1       24.948 -19.848   5.662  0.00  0.00    +0.100 C 
ATOM      6  C   LIG    1       24.909 -21.307   5.135  0.00  0.00    +0.100 C 
ENDROOT
BRANCH   1   7
ATOM      7  C   LIG    1       22.570 -21.559   4.519  0.00  0.00    +0.119 C 
BRANCH   7  11
ATOM      8  C   LIG    1       22.138 -16.542   4.937  0.00  0.00    +0.044 C 
ATOM      9  C   LIG    1       21.601 -17.851   4.439  0.00  0.00    -0.050 A 
ATOM     10  C   LIG    1       22.298 -19.041   4.691  0.00  0.00    +0.008 A 
ATOM     11  C   LIG    1       21.802 -20.278   4.249  0.00  0.00    -0.033 A 
ATOM     12  C   LIG    1       20.580 -20.310   3.562  0.00  0.00    +0.005 A 
ATOM     13  C   LIG    1       19.873 -19.135   3.318  0.00  0.00    +0.001 A 
ATOM     14  C   LIG    1       20.381 -17.909   3.758  0.00  0.00    +0.003 A 
ENDBRANCH   7  11
ENDBRANCH   1   7
BRANCH   4  15
ATOM     15  C   LIG    1       26.493 -18.563   4.192  0.00  0.00    +0.117 C 
BRANCH  15  16
ATOM     16  C   LIG    1       26.820 -17.081   3.913  0.00  0.00    -0.026 A 
ATOM     17  C   LIG    1       25.926 -16.289   3.172  0.00  0.00    +0.007 A 
ATOM     18  C   LIG    1       26.215 -14.945   2.909  0.00  0.00    +0.020 A 
ATOM     19  C   LIG    1       27.397 -14.383   3.385  0.00  0.00    +0.041 A 
ATOM     20 CL   LIG    1       27.740 -12.725   3.076  0.00  0.00    -0.084 Cl
ATOM     21  C   LIG    1       28.303 -15.153   4.106  0.00  0.00    +0.020 A 
ATOM     22  C   LIG    1       28.023 -16.500   4.354  0.00  0.00    +0.007 A 
ENDBRANCH  15  16
BRANCH  15  23
ATOM     23  C   LIG    1       27.541 -19.100   5.181  0.00  0.00    -0.026 A 
ATOM     24  C   LIG    1       27.564 -20.468   5.508  0.00  0.00    +0.005 A 
ATOM     25  C   LIG    1       28.525 -20.977   6.386  0.00  0.00    +0.000 A 
ATOM     26  C   LIG    1       29.473 -20.127   6.953  0.00  0.00    +0.000 A 
ATOM     27  C   LIG    1       29.475 -18.772   6.630  0.00  0.00    +0.000 A 
ATOM     28  C   LIG    1       28.526 -18.265   5.740  0.00  0.00    +0.005 A 
ENDBRANCH  15  23
ENDBRANCH   4  15
TORSDOF 5
ENDMDL
