MODEL 1
REMARK VINA RESULT:      -1.2      0.000      0.000
REMARK  Name = *****
REMARK                            x       y       z     vdW  Elec       q    Type
REMARK                         _______ _______ _______ _____ _____    ______ ____
ROOT
ATOM      1  O   LIG    1       24.841 -17.865   3.674  0.00  0.00    -0.362 OA
ENDROOT
BRANCH   1   5
ATOM      2  N   LIG    1       25.083 -20.305   5.381  0.00  0.00    -0.302 NA
ATOM      3  C   LIG    1       25.394 -20.848   4.059  0.00  0.00    +0.087 C 
ATOM      4  C   LIG    1       24.676 -20.134   2.897  0.00  0.00    +0.047 C 
ATOM      5  C   LIG    1       23.894 -18.889   3.348  0.00  0.00    +0.122 C 
ATOM      6  C   LIG    1       22.946 -19.386   4.439  0.00  0.00    +0.047 C 
ATOM      7  C   LIG    1       23.662 -20.092   5.591  0.00  0.00    +0.087 C 
BRANCH   2   8
ATOM      8  C   LIG    1       25.837 -20.941   6.467  0.00  0.00    +0.085 C 
BRANCH   8   9
ATOM      9  C   LIG    1       27.099 -20.264   7.060  0.00  0.00    +0.026 C 
BRANCH   9  10
ATOM     10  C   LIG    1       28.348 -20.259   6.173  0.00  0.00    +0.121 C 
BRANCH  10  12
ATOM     11  O   LIG    1       29.475 -18.287   7.062  0.00  0.00    -0.251 OA
ATOM     12  C   LIG    1       29.079 -18.950   6.077  0.00  0.00    +0.305 C 
BRANCH  12  13
ATOM     13  O   LIG    1       29.135 -18.462   4.795  0.00  0.00    -0.481 OA
ATOM     14  H   LIG    1       29.578 -17.601   4.722  0.00  0.00    +0.295 HD
ENDBRANCH  12  13
ENDBRANCH  10  12
ENDBRANCH   9  10
ENDBRANCH   8   9
ENDBRANCH   2   8
ENDBRANCH   1   5
BRANCH   1  15
ATOM     15  C   LIG    1       24.514 -16.488   3.414  0.00  0.00    +0.197 C 
BRANCH  15  16
ATOM     16  C   LIG    1       25.721 -15.554   3.307  0.00  0.00    -0.013 A 
ATOM     17  C   LIG    1       25.666 -14.279   2.721  0.00  0.00    +0.008 A 
ATOM     18  C   LIG    1       26.765 -13.412   2.806  0.00  0.00    +0.020 A 
ATOM     19  C   LIG    1       27.907 -13.808   3.502  0.00  0.00    +0.041 A 
ATOM     20 CL   LIG    1       29.227 -12.721   3.695  0.00  0.00    -0.084 Cl
ATOM     21  C   LIG    1       27.998 -15.092   4.027  0.00  0.00    +0.020 A 
ATOM     22  C   LIG    1       26.936 -15.981   3.866  0.00  0.00    +0.008 A 
ENDBRANCH  15  16
BRANCH  15  23
ATOM     23  C   LIG    1       23.471 -15.996   4.437  0.00  0.00    +0.074 A 
ATOM     24  N   LIG    1       22.432 -16.815   4.759  0.00  0.00    -0.257 NA
ATOM     25  C   LIG    1       21.507 -16.351   5.631  0.00  0.00    +0.111 A 
ATOM     26  C   LIG    1       21.562 -15.106   6.234  0.00  0.00    +0.020 A 
ATOM     27  C   LIG    1       22.634 -14.283   5.927  0.00  0.00    +0.003 A 
ATOM     28  C   LIG    1       23.598 -14.726   5.017  0.00  0.00    +0.026 A 
ENDBRANCH  15  23
ENDBRANCH   1  15
TORSDOF 9
ENDMDL
MODEL 2
REMARK VINA RESULT:      -0.5      1.924      5.206
REMARK  Name = *****
REMARK                            x       y       z     vdW  Elec       q    Type
REMARK                         _______ _______ _______ _____ _____    ______ ____
ROOT
ATOM      1  O   LIG    1       25.503 -20.031   3.529  0.00  0.00    -0.362 OA
ENDROOT
BRANCH   1   5
ATOM      2  N   LIG    1       22.980 -18.713   4.437  0.00  0.00    -0.302 NA
ATOM      3  C   LIG    1       23.322 -19.517   5.610  0.00  0.00    +0.087 C 
ATOM      4  C   LIG    1       24.067 -20.827   5.285  0.00  0.00    +0.047 C 
ATOM      5  C   LIG    1       24.441 -20.952   3.799  0.00  0.00    +0.122 C 
ATOM      6  C   LIG    1       23.122 -20.795   3.042  0.00  0.00    +0.047 C 
ATOM      7  C   LIG    1       22.387 -19.493   3.365  0.00  0.00    +0.087 C 
BRANCH   2   8
ATOM      8  C   LIG    1       22.345 -17.433   4.769  0.00  0.00    +0.085 C 
BRANCH   8   9
ATOM      9  C   LIG    1       22.732 -16.137   4.013  0.00  0.00    +0.026 C 
BRANCH   9  10
ATOM     10  C   LIG    1       23.056 -14.915   4.879  0.00  0.00    +0.121 C 
BRANCH  10  12
ATOM     11  O   LIG    1       24.761 -13.175   4.778  0.00  0.00    -0.251 OA
ATOM     12  C   LIG    1       23.858 -13.833   4.214  0.00  0.00    +0.305 C 
BRANCH  12  13
ATOM     13  O   LIG    1       23.396 -13.518   2.960  0.00  0.00    -0.481 OA
ATOM     14  H   LIG    1       22.642 -14.057   2.674  0.00  0.00    +0.295 HD
ENDBRANCH  12  13
ENDBRANCH  10  12
ENDBRANCH   9  10
ENDBRANCH   8   9
ENDBRANCH   2   8
ENDBRANCH   1   5
BRANCH   1  15
ATOM     15  C   LIG    1       25.979 -19.170   4.580  0.00  0.00    +0.197 C 
BRANCH  15  16
ATOM     16  C   LIG    1       26.498 -17.811   4.107  0.00  0.00    -0.013 A 
ATOM     17  C   LIG    1       25.776 -16.955   3.260  0.00  0.00    +0.008 A 
ATOM     18  C   LIG    1       26.238 -15.657   3.003  0.00  0.00    +0.020 A 
ATOM     19  C   LIG    1       27.407 -15.204   3.614  0.00  0.00    +0.041 A 
ATOM     20 CL   LIG    1       27.936 -13.584   3.383  0.00  0.00    -0.084 Cl
ATOM     21  C   LIG    1       28.166 -16.064   4.399  0.00  0.00    +0.020 A 
ATOM     22  C   LIG    1       27.748 -17.382   4.584  0.00  0.00    +0.008 A 
ENDBRANCH  15  16
BRANCH  15  23
ATOM     23  C   LIG    1       27.002 -19.926   5.451  0.00  0.00    +0.074 A 
ATOM     24  N   LIG    1       26.563 -20.943   6.243  0.00  0.00    -0.257 NA
ATOM     25  C   LIG    1       27.469 -21.571   7.028  0.00  0.00    +0.111 A 
ATOM     26  C   LIG    1       28.818 -21.259   7.061  0.00  0.00    +0.020 A 
ATOM     27  C   LIG    1       29.269 -20.241   6.235  0.00  0.00    +0.003 A 
ATOM     28  C   LIG    1       28.355 -19.563   5.425  0.00  0.00    +0.026 A 
ENDBRANCH  15  23
ENDBRANCH   1  15
TORSDOF 9
ENDMDL
MODEL 3
REMARK VINA RESULT:      -0.5      3.022      5.860
REMARK  Name = *****
REMARK                            x       y       z     vdW  Elec       q    Type
REMARK                         _______ _______ _______ _____ _____    ______ ____
ROOT
ATOM      1  O   LIG    1       25.700 -14.833   2.614  0.00  0.00    -0.362 OA
ENDROOT
BRANCH   1   5
ATOM      2  N   LIG    1       23.236 -15.370   4.216  0.00  0.00    -0.302 NA
ATOM      3  C   LIG    1       22.708 -14.506   3.160  0.00  0.00    +0.087 C 
ATOM      4  C   LIG    1       23.719 -13.471   2.625  0.00  0.00    +0.047 C 
ATOM      5  C   LIG    1       25.132 -13.658   3.202  0.00  0.00    +0.122 C 
ATOM      6  C   LIG    1       24.953 -13.609   4.719  0.00  0.00    +0.047 C 
ATOM      7  C   LIG    1       23.952 -14.638   5.247  0.00  0.00    +0.087 C 
BRANCH   2   8
ATOM      8  C   LIG    1       22.290 -16.400   4.657  0.00  0.00    +0.085 C 
BRANCH   8   9
ATOM      9  C   LIG    1       22.386 -17.849   4.114  0.00  0.00    +0.026 C 
BRANCH   9  10
ATOM     10  C   LIG    1       22.400 -18.968   5.160  0.00  0.00    +0.121 C 
BRANCH  10  12
ATOM     11  O   LIG    1       23.657 -20.652   3.922  0.00  0.00    -0.251 OA
ATOM     12  C   LIG    1       22.677 -20.350   4.640  0.00  0.00    +0.305 C 
BRANCH  12  13
ATOM     13  O   LIG    1       21.656 -21.232   4.895  0.00  0.00    -0.481 OA
ATOM     14  H   LIG    1       21.474 -21.844   4.164  0.00  0.00    +0.295 HD
ENDBRANCH  12  13
ENDBRANCH  10  12
ENDBRANCH   9  10
ENDBRANCH   8   9
ENDBRANCH   2   8
ENDBRANCH   1   5
BRANCH   1  15
ATOM     15  C   LIG    1       27.035 -15.231   2.972  0.00  0.00    +0.197 C 
BRANCH  15  16
ATOM     16  C   LIG    1       27.145 -16.631   3.578  0.00  0.00    -0.013 A 
ATOM     17  C   LIG    1       28.222 -17.050   4.377  0.00  0.00    +0.008 A 
ATOM     18  C   LIG    1       28.176 -18.287   5.035  0.00  0.00    +0.020 A 
ATOM     19  C   LIG    1       27.044 -19.092   4.919  0.00  0.00    +0.041 A 
ATOM     20 CL   LIG    1       26.935 -20.569   5.796  0.00  0.00    -0.084 Cl
ATOM     21  C   LIG    1       26.002 -18.720   4.077  0.00  0.00    +0.020 A 
ATOM     22  C   LIG    1       26.088 -17.529   3.357  0.00  0.00    +0.008 A 
ENDBRANCH  15  16
BRANCH  15  23
ATOM     23  C   LIG    1       27.684 -14.148   3.857  0.00  0.00    +0.074 A 
ATOM     24  N   LIG    1       27.414 -14.144   5.192  0.00  0.00    -0.257 NA
ATOM     25  C   LIG    1       27.964 -13.165   5.946  0.00  0.00    +0.111 A 
ATOM     26  C   LIG    1       28.801 -12.179   5.451  0.00  0.00    +0.020 A 
ATOM     27  C   LIG    1       29.096 -12.199   4.097  0.00  0.00    +0.003 A 
ATOM     28  C   LIG    1       28.532 -13.188   3.288  0.00  0.00    +0.026 A 
ENDBRANCH  15  23
ENDBRANCH   1  15
TORSDOF 9
ENDMDL
MODEL 4
REMARK VINA RESULT:      -0.1      3.348      7.212
REMARK  Name = *****
REMARK                            x       y       z     vdW  Elec       q    Type
REMARK                         _______ _______ _______ _____ _____    ______ ____
ROOT
ATOM      1  O   LIG    1       26.536 -17.517   4.088  0.00  0.00    -0.362 OA
ENDROOT
BRANCH   1   5
ATOM      2  N   LIG    1       26.066 -14.601   4.535  0.00  0.00    -0.302 NA
ATOM      3  C   LIG    1       24.703 -15.079   4.306  0.00  0.00    +0.087 C 
ATOM      4  C   LIG    1       24.608 -16.286   3.351  0.00  0.00    +0.047 C 
ATOM      5  C   LIG    1       25.983 -16.845   2.951  0.00  0.00    +0.122 C 
ATOM      6  C   LIG    1       26.741 -15.656   2.360  0.00  0.00    +0.047 C 
ATOM      7  C   LIG    1       26.835 -14.462   3.311  0.00  0.00    +0.087 C 
BRANCH   2   8
ATOM      8  C   LIG    1       26.146 -13.506   5.508  0.00  0.00    +0.085 C 
BRANCH   8   9
ATOM      9  C   LIG    1       25.265 -12.241   5.352  0.00  0.00    +0.026 C 
BRANCH   9  10
ATOM     10  C   LIG    1       24.072 -12.356   4.398  0.00  0.00    +0.121 C 
BRANCH  10  12
ATOM     11  O   LIG    1       25.320 -11.456   2.506  0.00  0.00    -0.251 OA
ATOM     12  C   LIG    1       24.373 -12.149   2.941  0.00  0.00    +0.305 C 
BRANCH  12  13
ATOM     13  O   LIG    1       23.406 -12.668   2.116  0.00  0.00    -0.481 OA
ATOM     14  H   LIG    1       23.256 -13.619   2.238  0.00  0.00    +0.295 HD
ENDBRANCH  12  13
ENDBRANCH  10  12
ENDBRANCH   9  10
ENDBRANCH   8   9
ENDBRANCH   2   8
ENDBRANCH   1   5
BRANCH   1  15
ATOM     15  C   LIG    1       26.536 -18.955   4.131  0.00  0.00    +0.197 C 
BRANCH  15  16
ATOM     16  C   LIG    1       25.154 -19.590   4.289  0.00  0.00    -0.013 A 
ATOM     17  C   LIG    1       24.489 -19.708   5.521  0.00  0.00    +0.008 A 
ATOM     18  C   LIG    1       23.158 -20.148   5.569  0.00  0.00    +0.020 A 
ATOM     19  C   LIG    1       22.483 -20.441   4.385  0.00  0.00    +0.041 A 
ATOM     20 CL   LIG    1       20.822 -20.891   4.420  0.00  0.00    -0.084 Cl
ATOM     21  C   LIG    1       23.151 -20.394   3.166  0.00  0.00    +0.020 A 
ATOM     22  C   LIG    1       24.499 -20.040   3.131  0.00  0.00    +0.008 A 
ENDBRANCH  15  16
BRANCH  15  23
ATOM     23  C   LIG    1       27.540 -19.447   5.193  0.00  0.00    +0.074 A 
ATOM     24  N   LIG    1       28.570 -18.631   5.548  0.00  0.00    -0.257 NA
ATOM     25  C   LIG    1       29.461 -19.094   6.455  0.00  0.00    +0.111 A 
ATOM     26  C   LIG    1       29.380 -20.335   7.062  0.00  0.00    +0.020 A 
ATOM     27  C   LIG    1       28.316 -21.156   6.720  0.00  0.00    +0.003 A 
ATOM     28  C   LIG    1       27.387 -20.713   5.774  0.00  0.00    +0.026 A 
ENDBRANCH  15  23
ENDBRANCH   1  15
TORSDOF 9
ENDMDL
MODEL 5
REMARK VINA RESULT:      -0.0      3.169      6.545
REMARK  Name = *****
REMARK                            x       y       z     vdW  Elec       q    Type
REMARK                         _______ _______ _______ _____ _____    ______ ____
ROOT
ATOM      1  O   LIG    1       25.533 -16.472   3.798  0.00  0.00    -0.362 OA
ENDROOT
BRANCH   1   5
ATOM      2  N   LIG    1       25.180 -13.596   4.523  0.00  0.00    -0.302 NA
ATOM      3  C   LIG    1       23.886 -14.152   4.921  0.00  0.00    +0.087 C 
ATOM      4  C   LIG    1       23.424 -15.350   4.067  0.00  0.00    +0.047 C 
ATOM      5  C   LIG    1       24.491 -15.820   3.064  0.00  0.00    +0.122 C 
ATOM      6  C   LIG    1       24.837 -14.580   2.240  0.00  0.00    +0.047 C 
ATOM      7  C   LIG    1       25.298 -13.395   3.090  0.00  0.00    +0.087 C 
BRANCH   2   8
ATOM      8  C   LIG    1       25.643 -12.511   5.396  0.00  0.00    +0.085 C 
BRANCH   8   9
ATOM      9  C   LIG    1       27.079 -12.519   5.978  0.00  0.00    +0.026 C 
BRANCH   9  10
ATOM     10  C   LIG    1       27.992 -13.661   5.520  0.00  0.00    +0.121 C 
BRANCH  10  12
ATOM     11  O   LIG    1       29.301 -12.609   3.752  0.00  0.00    -0.251 OA
ATOM     12  C   LIG    1       28.553 -13.537   4.131  0.00  0.00    +0.305 C 
BRANCH  12  13
ATOM     13  O   LIG    1       28.033 -14.462   3.260  0.00  0.00    -0.481 OA
ATOM     14  H   LIG    1       28.180 -14.246   2.325  0.00  0.00    +0.295 HD
ENDBRANCH  12  13
ENDBRANCH  10  12
ENDBRANCH   9  10
ENDBRANCH   8   9
ENDBRANCH   2   8
ENDBRANCH   1   5
BRANCH   1  15
ATOM     15  C   LIG    1       25.830 -17.854   3.531  0.00  0.00    +0.197 C 
BRANCH  15  16
ATOM     16  C   LIG    1       24.642 -18.806   3.690  0.00  0.00    -0.013 A 
ATOM     17  C   LIG    1       24.675 -20.159   3.315  0.00  0.00    +0.008 A 
ATOM     18  C   LIG    1       23.611 -21.011   3.642  0.00  0.00    +0.020 A 
ATOM     19  C   LIG    1       22.527 -20.518   4.368  0.00  0.00    +0.041 A 
ATOM     20 CL   LIG    1       21.258 -21.572   4.858  0.00  0.00    -0.084 Cl
ATOM     21  C   LIG    1       22.452 -19.166   4.685  0.00  0.00    +0.020 A 
ATOM     22  C   LIG    1       23.472 -18.305   4.284  0.00  0.00    +0.008 A 
ENDBRANCH  15  16
BRANCH  15  23
ATOM     23  C   LIG    1       27.056 -18.294   4.355  0.00  0.00    +0.074 A 
ATOM     24  N   LIG    1       27.041 -19.517   4.953  0.00  0.00    -0.257 NA
ATOM     25  C   LIG    1       28.111 -19.870   5.701  0.00  0.00    +0.111 A 
ATOM     26  C   LIG    1       29.231 -19.076   5.879  0.00  0.00    +0.020 A 
ATOM     27  C   LIG    1       29.259 -17.842   5.249  0.00  0.00    +0.003 A 
ATOM     28  C   LIG    1       28.161 -17.441   4.482  0.00  0.00    +0.026 A 
ENDBRANCH  15  23
ENDBRANCH   1  15
TORSDOF 9
ENDMDL
MODEL 6
REMARK VINA RESULT:      -0.0      1.879      2.959
REMARK  Name = *****
REMARK                            x       y       z     vdW  Elec       q    Type
REMARK                         _______ _______ _______ _____ _____    ______ ____
ROOT
ATOM      1  O   LIG    1       23.744 -19.235   4.963  0.00  0.00    -0.362 OA
ENDROOT
BRANCH   1   5
ATOM      2  N   LIG    1       25.686 -21.036   6.345  0.00  0.00    -0.302 NA
ATOM      3  C   LIG    1       25.760 -21.535   4.972  0.00  0.00    +0.087 C 
ATOM      4  C   LIG    1       24.447 -21.395   4.176  0.00  0.00    +0.047 C 
ATOM      5  C   LIG    1       23.363 -20.615   4.939  0.00  0.00    +0.122 C 
ATOM      6  C   LIG    1       23.198 -21.355   6.266  0.00  0.00    +0.047 C 
ATOM      7  C   LIG    1       24.502 -21.489   7.053  0.00  0.00    +0.087 C 
BRANCH   2   8
ATOM      8  C   LIG    1       26.965 -21.101   7.061  0.00  0.00    +0.085 C 
BRANCH   8   9
ATOM      9  C   LIG    1       28.308 -20.994   6.295  0.00  0.00    +0.026 C 
BRANCH   9  10
ATOM     10  C   LIG    1       29.138 -19.731   6.550  0.00  0.00    +0.121 C 
BRANCH  10  12
ATOM     11  O   LIG    1       29.430 -17.468   5.690  0.00  0.00    -0.251 OA
ATOM     12  C   LIG    1       28.974 -18.624   5.547  0.00  0.00    +0.305 C 
BRANCH  12  13
ATOM     13  O   LIG    1       28.131 -18.957   4.516  0.00  0.00    -0.481 OA
ATOM     14  H   LIG    1       27.192 -18.815   4.716  0.00  0.00    +0.295 HD
ENDBRANCH  12  13
ENDBRANCH  10  12
ENDBRANCH   9  10
ENDBRANCH   8   9
ENDBRANCH   2   8
ENDBRANCH   1   5
BRANCH   1  15
ATOM     15  C   LIG    1       23.538 -18.422   3.794  0.00  0.00    +0.197 C 
BRANCH  15  16
ATOM     16  C   LIG    1       24.137 -17.017   3.878  0.00  0.00    -0.013 A 
ATOM     17  C   LIG    1       25.448 -16.706   3.481  0.00  0.00    +0.008 A 
ATOM     18  C   LIG    1       25.874 -15.371   3.430  0.00  0.00    +0.020 A 
ATOM     19  C   LIG    1       24.983 -14.346   3.747  0.00  0.00    +0.041 A 
ATOM     20 CL   LIG    1       25.463 -12.701   3.598  0.00  0.00    -0.084 Cl
ATOM     21  C   LIG    1       23.706 -14.645   4.207  0.00  0.00    +0.020 A 
ATOM     22  C   LIG    1       23.313 -15.977   4.339  0.00  0.00    +0.008 A 
ENDBRANCH  15  16
BRANCH  15  23
ATOM     23  C   LIG    1       22.042 -18.408   3.423  0.00  0.00    +0.074 A 
ATOM     24  N   LIG    1       21.639 -17.671   2.352  0.00  0.00    -0.257 NA
ATOM     25  C   LIG    1       20.317 -17.642   2.064  0.00  0.00    +0.111 A 
ATOM     26  C   LIG    1       19.351 -18.332   2.776  0.00  0.00    +0.020 A 
ATOM     27  C   LIG    1       19.765 -19.104   3.851  0.00  0.00    +0.003 A 
ATOM     28  C   LIG    1       21.121 -19.142   4.183  0.00  0.00    +0.026 A 
ENDBRANCH  15  23
ENDBRANCH   1  15
TORSDOF 9
ENDMDL
MODEL 7
REMARK VINA RESULT:       1.0      1.717      3.215
REMARK  Name = *****
REMARK                            x       y       z     vdW  Elec       q    Type
REMARK                         _______ _______ _______ _____ _____    ______ ____
ROOT
ATOM      1  O   LIG    1       25.166 -17.554   4.010  0.00  0.00    -0.362 OA
ENDROOT
BRANCH   1   5
ATOM      2  N   LIG    1       25.776 -20.230   5.188  0.00  0.00    -0.302 NA
ATOM      3  C   LIG    1       27.102 -19.611   5.183  0.00  0.00    +0.087 C 
ATOM      4  C   LIG    1       27.327 -18.608   4.034  0.00  0.00    +0.047 C 
ATOM      5  C   LIG    1       26.055 -18.342   3.211  0.00  0.00    +0.122 C 
ATOM      6  C   LIG    1       25.591 -19.719   2.738  0.00  0.00    +0.047 C 
ATOM      7  C   LIG    1       25.366 -20.711   3.880  0.00  0.00    +0.087 C 
BRANCH   2   8
ATOM      8  C   LIG    1       25.550 -21.119   6.333  0.00  0.00    +0.085 C 
BRANCH   8   9
ATOM      9  C   LIG    1       24.115 -21.541   6.739  0.00  0.00    +0.026 C 
BRANCH   9  10
ATOM     10  C   LIG    1       23.020 -20.484   6.561  0.00  0.00    +0.121 C 
BRANCH  10  12
ATOM     11  O   LIG    1       22.349 -19.491   4.437  0.00  0.00    -0.251 OA
ATOM     12  C   LIG    1       22.337 -20.465   5.223  0.00  0.00    +0.305 C 
BRANCH  12  13
ATOM     13  O   LIG    1       21.554 -21.571   5.006  0.00  0.00    -0.481 OA
ATOM     14  H   LIG    1       21.768 -22.049   4.189  0.00  0.00    +0.295 HD
ENDBRANCH  12  13
ENDBRANCH  10  12
ENDBRANCH   9  10
ENDBRANCH   8   9
ENDBRANCH   2   8
ENDBRANCH   1   5
BRANCH   1  15
ATOM     15  C   LIG    1       24.833 -16.217   3.592  0.00  0.00    +0.197 C 
BRANCH  15  16
ATOM     16  C   LIG    1       26.027 -15.269   3.471  0.00  0.00    -0.013 A 
ATOM     17  C   LIG    1       26.107 -14.238   2.520  0.00  0.00    +0.008 A 
ATOM     18  C   LIG    1       27.152 -13.304   2.574  0.00  0.00    +0.020 A 
ATOM     19  C   LIG    1       28.099 -13.383   3.594  0.00  0.00    +0.041 A 
ATOM     20 CL   LIG    1       29.332 -12.190   3.729  0.00  0.00    -0.084 Cl
ATOM     21  C   LIG    1       28.069 -14.438   4.499  0.00  0.00    +0.020 A 
ATOM     22  C   LIG    1       27.079 -15.413   4.391  0.00  0.00    +0.008 A 
ENDBRANCH  15  16
BRANCH  15  23
ATOM     23  C   LIG    1       23.715 -15.652   4.490  0.00  0.00    +0.074 A 
ATOM     24  N   LIG    1       23.798 -14.358   4.904  0.00  0.00    -0.257 NA
ATOM     25  C   LIG    1       22.825 -13.891   5.720  0.00  0.00    +0.111 A 
ATOM     26  C   LIG    1       21.740 -14.638   6.145  0.00  0.00    +0.020 A 
ATOM     27  C   LIG    1       21.642 -15.948   5.702  0.00  0.00    +0.003 A 
ATOM     28  C   LIG    1       22.639 -16.465   4.870  0.00  0.00    +0.026 A 
ENDBRANCH  15  23
ENDBRANCH   1  15
TORSDOF 9
ENDMDL
