MODEL 1
REMARK VINA RESULT:      25.9      0.000      0.000
REMARK  Name = *****
REMARK                            x       y       z     vdW  Elec       q    Type
REMARK                         _______ _______ _______ _____ _____    ______ ____
ROOT
ATOM      1  C   LIG    1       25.520 -14.610   3.095  0.00  0.00    +0.035 C 
ATOM      2  N   LIG    1       24.745 -15.637   3.608  0.00  0.00    -0.342 NA
ATOM      3  C   LIG    1       25.582 -16.756   3.649  0.00  0.00    +0.058 C 
ATOM      4  C   LIG    1       26.829 -16.198   4.105  0.00  0.00    +0.020 C 
ATOM      5  C   LIG    1       26.763 -14.761   3.704  0.00  0.00    +0.066 C 
ENDROOT
BRANCH   3   6
ATOM      6  C   LIG    1       25.133 -18.054   3.077  0.00  0.00    -0.001 C 
ATOM      7  C   LIG    1       23.935 -18.302   2.473  0.00  0.00    +0.013 C 
ATOM      8  C   LIG    1       23.179 -19.334   1.999  0.00  0.00    +0.039 C 
ATOM      9  C   LIG    1       23.787 -20.476   2.230  0.00  0.00    +0.123 C 
ATOM     10  F   LIG    1       23.137 -21.572   1.865  0.00  0.00    -0.205 F 
ATOM     11  C   LIG    1       25.040 -20.456   2.867  0.00  0.00    +0.039 C 
ATOM     12  C   LIG    1       25.711 -19.263   3.290  0.00  0.00    +0.013 C 
ENDBRANCH   3   6
BRANCH   4  13
ATOM     13  C   LIG    1       28.189 -17.035   4.749  0.00  0.00    -0.015 C 
ATOM     14  C   LIG    1       28.289 -18.428   3.598  0.00  0.00    +0.008 C 
ATOM     15  C   LIG    1       28.897 -19.988   4.047  0.00  0.00    +0.001 C 
ATOM     16  C   LIG    1       29.166 -20.400   5.746  0.00  0.00    +0.000 C 
ATOM     17  C   LIG    1       29.004 -19.290   7.061  0.00  0.00    +0.001 C 
ATOM     18  C   LIG    1       28.525 -17.705   6.629  0.00  0.00    +0.008 C 
ENDBRANCH   4  13
BRANCH   5  19
ATOM     19  C   LIG    1       27.827 -13.709   3.643  0.00  0.00    +0.251 C 
ATOM     20  N   LIG    1       27.673 -12.501   4.228  0.00  0.00    -0.281 N 
ATOM     21  H   LIG    1       28.458 -12.167   4.781  0.00  0.00    +0.155 HD
ATOM     22  O   LIG    1       28.925 -13.856   3.122  0.00  0.00    -0.270 OA
BRANCH  20  23
ATOM     23  C   LIG    1       26.475 -12.360   4.777  0.00  0.00    +0.034 C 
ATOM     24  C   LIG    1       25.098 -11.465   3.895  0.00  0.00    +0.023 C 
ATOM     25  C   LIG    1       23.489 -11.779   4.731  0.00  0.00    +0.002 C 
ATOM     26  C   LIG    1       23.596 -12.996   6.267  0.00  0.00    +0.000 C 
ATOM     27  C   LIG    1       24.974 -13.577   7.043  0.00  0.00    +0.002 C 
ATOM     28  C   LIG    1       26.372 -13.256   6.318  0.00  0.00    +0.023 C 
ENDBRANCH  20  23
ENDBRANCH   5  19
BRANCH   1  30
ATOM     29  C   LIG    1       23.602 -13.518   1.815  0.00  0.00    +0.014 C 
ATOM     30  C   LIG    1       25.093 -13.727   1.946  0.00  0.00    +0.030 C 
ATOM     31  C   LIG    1       25.853 -12.403   1.812  0.00  0.00    +0.014 C 
ENDBRANCH   1  30
BRANCH   2  32
ATOM     32  C   LIG    1       23.381 -15.563   4.177  0.00  0.00    +0.124 C 
BRANCH  32  33
ATOM     33  C   LIG    1       23.270 -16.166   5.597  0.00  0.00    +0.053 C 
BRANCH  33  34
ATOM     34  C   LIG    1       22.314 -17.362   5.764  0.00  0.00    +0.119 C 
BRANCH  34  35
ATOM     35  O   LIG    1       23.094 -18.438   6.273  0.00  0.00    -0.392 OA
ATOM     36  H   LIG    1       22.995 -18.462   7.256  0.00  0.00    +0.210 HD
ENDBRANCH  34  35
BRANCH  34  37
ATOM     37  C   LIG    1       21.600 -17.811   4.475  0.00  0.00    +0.063 C 
BRANCH  37  38
ATOM     38  C   LIG    1       21.073 -19.262   4.505  0.00  0.00    +0.128 C 
BRANCH  38  39
ATOM     39  O   LIG    1       20.137 -19.385   3.428  0.00  0.00    -0.391 OA
ATOM     40  H   LIG    1       19.522 -20.113   3.600  0.00  0.00    +0.210 HD
ENDBRANCH  38  39
BRANCH  38  41
ATOM     41  C   LIG    1       22.107 -20.404   4.484  0.00  0.00    +0.151 C 
BRANCH  41  42
ATOM     42  C   LIG    1       22.847 -20.733   5.766  0.00  0.00    +0.307 C 
ATOM     43  O   LIG    1       22.390 -21.419   6.669  0.00  0.00    -0.251 OA
BRANCH  42  44
ATOM     44  O   LIG    1       24.119 -20.269   5.807  0.00  0.00    -0.481 OA
ATOM     45  H   LIG    1       24.428 -19.696   5.080  0.00  0.00    +0.295 HD
ENDBRANCH  42  44
ENDBRANCH  41  42
ENDBRANCH  38  41
ENDBRANCH  37  38
ENDBRANCH  34  37
ENDBRANCH  33  34
ENDBRANCH  32  33
ENDBRANCH   2  32
TORSDOF 15
ENDMDL
