MODEL 1
REMARK VINA RESULT:      -5.0      0.000      0.000
REMARK  Name = *****
REMARK                            x       y       z     vdW  Elec       q    Type
REMARK                         _______ _______ _______ _____ _____    ______ ____
ROOT
ATOM      1  C1* LIG    1       24.362 -20.973   5.072  0.00  0.00    +0.256 C 
ATOM      2  C2* LIG    1       23.222 -20.522   5.997  0.00  0.00    +0.195 C 
ATOM      3  C3* LIG    1       22.122 -20.230   4.986  0.00  0.00    +0.178 C 
ATOM      4  C4* LIG    1       22.896 -19.663   3.799  0.00  0.00    +0.177 C 
ATOM      5  O4* LIG    1       24.211 -20.272   3.824  0.00  0.00    -0.346 OA
ENDROOT
BRANCH   1  10
ATOM      6  C   LIG    1       28.197 -20.527   6.446  0.00  0.00    +0.218 C 
ATOM      7  N   LIG    1       27.819 -19.750   5.492  0.00  0.00    -0.159 NA
ATOM      8  C   LIG    1       26.541 -19.827   5.033  0.00  0.00    +0.354 C 
ATOM      9  O   LIG    1       26.157 -19.054   4.156  0.00  0.00    -0.244 OA
ATOM     10  N   LIG    1       25.710 -20.772   5.572  0.00  0.00    -0.254 N 
ATOM     11  C   LIG    1       26.184 -21.513   6.601  0.00  0.00    +0.209 C 
ATOM     12  N   LIG    1       27.379 -21.413   7.061  0.00  0.00    -0.205 NA
BRANCH   6  13
ATOM     13  N   LIG    1       29.475 -20.454   6.886  0.00  0.00    -0.327 N 
ATOM     14  H   LIG    1       30.060 -21.186   6.508  0.00  0.00    +0.145 HD
ATOM     15  H   LIG    1       29.866 -19.523   6.836  0.00  0.00    +0.145 HD
ENDBRANCH   6  13
ENDBRANCH   1  10
BRANCH   2  16
ATOM     16  O2* LIG    1       22.825 -21.540   6.918  0.00  0.00    -0.385 OA
ATOM     17  H2* LIG    1       23.617 -22.110   7.034  0.00  0.00    +0.210 HD
ENDBRANCH   2  16
BRANCH   3  18
ATOM     18  O3* LIG    1       21.508 -21.490   4.645  0.00  0.00    -0.386 OA
ATOM     19  H3* LIG    1       21.319 -21.473   3.689  0.00  0.00    +0.210 HD
ENDBRANCH   3  18
BRANCH   4  20
ATOM     20  C5* LIG    1       23.033 -18.139   3.859  0.00  0.00    +0.190 C 
BRANCH  20  21
ATOM     21  O5* LIG    1       22.108 -17.609   4.805  0.00  0.00    -0.392 OA
ATOM     22  H5* LIG    1       22.625 -17.458   5.620  0.00  0.00    +0.209 HD
ENDBRANCH  20  21
ENDBRANCH   4  20
TORSDOF 6
ENDMDL
MODEL 2
REMARK VINA RESULT:      -3.9      4.113      5.773
REMARK  Name = *****
REMARK                            x       y       z     vdW  Elec       q    Type
REMARK                         _______ _______ _______ _____ _____    ______ ____
ROOT
ATOM      1  C1* LIG    1       25.869 -15.711   3.087  0.00  0.00    +0.256 C 
ATOM      2  C2* LIG    1       25.151 -14.781   4.077  0.00  0.00    +0.195 C 
ATOM      3  C3* LIG    1       25.408 -13.422   3.440  0.00  0.00    +0.178 C 
ATOM      4  C4* LIG    1       26.813 -13.578   2.865  0.00  0.00    +0.177 C 
ATOM      5  O4* LIG    1       26.977 -14.979   2.531  0.00  0.00    -0.346 OA
ENDROOT
BRANCH   1  10
ATOM      6  C   LIG    1       27.241 -19.208   4.723  0.00  0.00    +0.218 C 
ATOM      7  N   LIG    1       26.034 -19.200   4.277  0.00  0.00    -0.159 NA
ATOM      8  C   LIG    1       25.548 -18.078   3.683  0.00  0.00    +0.354 C 
ATOM      9  O   LIG    1       24.412 -18.078   3.210  0.00  0.00    -0.244 OA
ATOM     10  N   LIG    1       26.350 -16.970   3.626  0.00  0.00    -0.254 N 
ATOM     11  C   LIG    1       27.619 -17.089   4.082  0.00  0.00    +0.209 C 
ATOM     12  N   LIG    1       28.091 -18.161   4.607  0.00  0.00    -0.205 NA
BRANCH   6  13
ATOM     13  N   LIG    1       27.711 -20.324   5.328  0.00  0.00    -0.327 N 
ATOM     14  H   LIG    1       27.775 -21.113   4.698  0.00  0.00    +0.145 HD
ATOM     15  H   LIG    1       28.533 -20.160   5.894  0.00  0.00    +0.145 HD
ENDBRANCH   6  13
ENDBRANCH   1  10
BRANCH   2  16
ATOM     16  O2* LIG    1       23.751 -15.054   4.171  0.00  0.00    -0.385 OA
ATOM     17  H2* LIG    1       23.309 -14.316   3.698  0.00  0.00    +0.210 HD
ENDBRANCH   2  16
BRANCH   3  18
ATOM     18  O3* LIG    1       24.437 -13.250   2.389  0.00  0.00    -0.386 OA
ATOM     19  H3* LIG    1       24.086 -14.132   2.168  0.00  0.00    +0.210 HD
ENDBRANCH   3  18
BRANCH   4  20
ATOM     20  C5* LIG    1       27.905 -13.154   3.851  0.00  0.00    +0.190 C 
BRANCH  20  21
ATOM     21  O5* LIG    1       29.187 -13.329   3.254  0.00  0.00    -0.392 OA
ATOM     22  H5* LIG    1       29.446 -12.444   2.927  0.00  0.00    +0.209 HD
ENDBRANCH  20  21
ENDBRANCH   4  20
TORSDOF 6
ENDMDL
MODEL 3
REMARK VINA RESULT:      -3.8      3.371      5.399
REMARK  Name = *****
REMARK                            x       y       z     vdW  Elec       q    Type
REMARK                         _______ _______ _______ _____ _____    ______ ____
ROOT
ATOM      1  C1* LIG    1       24.749 -16.407   3.278  0.00  0.00    +0.256 C 
ATOM      2  C2* LIG    1       24.399 -15.390   4.375  0.00  0.00    +0.195 C 
ATOM      3  C3* LIG    1       25.090 -14.140   3.847  0.00  0.00    +0.178 C 
ATOM      4  C4* LIG    1       26.352 -14.700   3.196  0.00  0.00    +0.177 C 
ATOM      5  O4* LIG    1       26.031 -16.036   2.736  0.00  0.00    -0.346 OA
ENDROOT
BRANCH   1  10
ATOM      6  C   LIG    1       24.928 -20.306   4.526  0.00  0.00    +0.218 C 
ATOM      7  N   LIG    1       23.769 -19.748   4.499  0.00  0.00    -0.159 NA
ATOM      8  C   LIG    1       23.651 -18.471   4.049  0.00  0.00    +0.354 C 
ATOM      9  O   LIG    1       22.539 -17.948   3.973  0.00  0.00    -0.244 OA
ATOM     10  N   LIG    1       24.787 -17.800   3.684  0.00  0.00    -0.254 N 
ATOM     11  C   LIG    1       25.955 -18.484   3.704  0.00  0.00    +0.209 C 
ATOM     12  N   LIG    1       26.061 -19.703   4.093  0.00  0.00    -0.205 NA
BRANCH   6  13
ATOM     13  N   LIG    1       25.039 -21.572   4.991  0.00  0.00    -0.327 N 
ATOM     14  H   LIG    1       25.454 -22.201   4.318  0.00  0.00    +0.145 HD
ATOM     15  H   LIG    1       25.425 -21.626   5.924  0.00  0.00    +0.145 HD
ENDBRANCH   6  13
ENDBRANCH   1  10
BRANCH   2  16
ATOM     16  O2* LIG    1       22.991 -15.189   4.509  0.00  0.00    -0.385 OA
ATOM     17  H2* LIG    1       22.884 -14.241   4.741  0.00  0.00    +0.210 HD
ENDBRANCH   2  16
BRANCH   3  18
ATOM     18  O3* LIG    1       24.218 -13.554   2.859  0.00  0.00    -0.386 OA
ATOM     19  H3* LIG    1       23.307 -13.828   3.074  0.00  0.00    +0.210 HD
ENDBRANCH   3  18
BRANCH   4  20
ATOM     20  C5* LIG    1       27.537 -14.760   4.164  0.00  0.00    +0.190 C 
BRANCH  20  21
ATOM     21  O5* LIG    1       28.539 -13.833   3.757  0.00  0.00    -0.392 OA
ATOM     22  H5* LIG    1       28.600 -13.924   2.785  0.00  0.00    +0.209 HD
ENDBRANCH  20  21
ENDBRANCH   4  20
TORSDOF 6
ENDMDL
MODEL 4
REMARK VINA RESULT:      -3.7      3.280      4.835
REMARK  Name = *****
REMARK                            x       y       z     vdW  Elec       q    Type
REMARK                         _______ _______ _______ _____ _____    ______ ____
ROOT
ATOM      1  C1* LIG    1       23.718 -18.681   3.677  0.00  0.00    +0.256 C 
ATOM      2  C2* LIG    1       24.893 -19.606   4.031  0.00  0.00    +0.195 C 
ATOM      3  C3* LIG    1       24.154 -20.879   4.420  0.00  0.00    +0.178 C 
ATOM      4  C4* LIG    1       22.898 -20.347   5.104  0.00  0.00    +0.177 C 
ATOM      5  O4* LIG    1       22.600 -19.065   4.499  0.00  0.00    -0.346 OA
ENDROOT
BRANCH   1  10
ATOM      6  C   LIG    1       24.378 -14.675   4.234  0.00  0.00    +0.218 C 
ATOM      7  N   LIG    1       25.340 -15.366   3.731  0.00  0.00    -0.159 NA
ATOM      8  C   LIG    1       25.154 -16.690   3.484  0.00  0.00    +0.354 C 
ATOM      9  O   LIG    1       26.052 -17.347   2.957  0.00  0.00    -0.244 OA
ATOM     10  N   LIG    1       23.957 -17.257   3.829  0.00  0.00    -0.254 N 
ATOM     11  C   LIG    1       22.990 -16.441   4.310  0.00  0.00    +0.209 C 
ATOM     12  N   LIG    1       23.152 -15.182   4.507  0.00  0.00    -0.205 NA
BRANCH   6  13
ATOM     13  N   LIG    1       24.576 -13.361   4.492  0.00  0.00    -0.327 N 
ATOM     14  H   LIG    1       23.874 -12.769   4.069  0.00  0.00    +0.145 HD
ATOM     15  H   LIG    1       24.773 -13.167   5.465  0.00  0.00    +0.145 HD
ENDBRANCH   6  13
ENDBRANCH   1  10
BRANCH   2  16
ATOM     16  O2* LIG    1       25.769 -19.830   2.925  0.00  0.00    -0.385 OA
ATOM     17  H2* LIG    1       25.419 -20.628   2.473  0.00  0.00    +0.210 HD
ENDBRANCH   2  16
BRANCH   3  18
ATOM     18  O3* LIG    1       23.822 -21.572   3.200  0.00  0.00    -0.386 OA
ATOM     19  H3* LIG    1       24.649 -21.694   2.698  0.00  0.00    +0.210 HD
ENDBRANCH   3  18
BRANCH   4  20
ATOM     20  C5* LIG    1       23.080 -20.172   6.615  0.00  0.00    +0.190 C 
BRANCH  20  21
ATOM     21  O5* LIG    1       24.212 -20.918   7.053  0.00  0.00    -0.392 OA
ATOM     22  H5* LIG    1       24.760 -21.054   6.255  0.00  0.00    +0.209 HD
ENDBRANCH  20  21
ENDBRANCH   4  20
TORSDOF 6
ENDMDL
MODEL 5
REMARK VINA RESULT:      -3.4      3.141      4.281
REMARK  Name = *****
REMARK                            x       y       z     vdW  Elec       q    Type
REMARK                         _______ _______ _______ _____ _____    ______ ____
ROOT
ATOM      1  C1* LIG    1       25.482 -18.712   3.641  0.00  0.00    +0.256 C 
ATOM      2  C2* LIG    1       25.627 -19.478   4.964  0.00  0.00    +0.195 C 
ATOM      3  C3* LIG    1       24.491 -20.485   4.846  0.00  0.00    +0.178 C 
ATOM      4  C4* LIG    1       23.408 -19.689   4.122  0.00  0.00    +0.177 C 
ATOM      5  O4* LIG    1       24.087 -18.718   3.287  0.00  0.00    -0.346 OA
ENDROOT
BRANCH   1  10
ATOM      6  C   LIG    1       26.779 -14.826   3.723  0.00  0.00    +0.218 C 
ATOM      7  N   LIG    1       27.640 -15.740   4.003  0.00  0.00    -0.159 NA
ATOM      8  C   LIG    1       27.271 -17.047   3.945  0.00  0.00    +0.354 C 
ATOM      9  O   LIG    1       28.101 -17.929   4.163  0.00  0.00    -0.244 OA
ATOM     10  N   LIG    1       25.970 -17.345   3.636  0.00  0.00    -0.254 N 
ATOM     11  C   LIG    1       25.150 -16.318   3.312  0.00  0.00    +0.209 C 
ATOM     12  N   LIG    1       25.509 -15.085   3.330  0.00  0.00    -0.205 NA
BRANCH   6  13
ATOM     13  N   LIG    1       27.150 -13.526   3.800  0.00  0.00    -0.327 N 
ATOM     14  H   LIG    1       26.553 -12.984   4.410  0.00  0.00    +0.145 HD
ATOM     15  H   LIG    1       28.143 -13.399   3.947  0.00  0.00    +0.145 HD
ENDBRANCH   6  13
ENDBRANCH   1  10
BRANCH   2  16
ATOM     16  O2* LIG    1       26.892 -20.133   5.085  0.00  0.00    -0.385 OA
ATOM     17  H2* LIG    1       27.505 -19.453   5.440  0.00  0.00    +0.210 HD
ENDBRANCH   2  16
BRANCH   3  18
ATOM     18  O3* LIG    1       24.965 -21.572   4.026  0.00  0.00    -0.386 OA
ATOM     19  H3* LIG    1       24.717 -22.403   4.471  0.00  0.00    +0.210 HD
ENDBRANCH   3  18
BRANCH   4  20
ATOM     20  C5* LIG    1       22.464 -18.966   5.087  0.00  0.00    +0.190 C 
BRANCH  20  21
ATOM     21  O5* LIG    1       22.006 -17.754   4.495  0.00  0.00    -0.392 OA
ATOM     22  H5* LIG    1       22.803 -17.199   4.384  0.00  0.00    +0.209 HD
ENDBRANCH  20  21
ENDBRANCH   4  20
TORSDOF 6
ENDMDL
MODEL 6
REMARK VINA RESULT:      -3.2      4.105      5.981
REMARK  Name = *****
REMARK                            x       y       z     vdW  Elec       q    Type
REMARK                         _______ _______ _______ _____ _____    ______ ____
ROOT
ATOM      1  C1* LIG    1       25.293 -15.605   3.089  0.00  0.00    +0.256 C 
ATOM      2  C2* LIG    1       24.950 -14.597   4.196  0.00  0.00    +0.195 C 
ATOM      3  C3* LIG    1       25.621 -13.338   3.664  0.00  0.00    +0.178 C 
ATOM      4  C4* LIG    1       26.879 -13.883   2.992  0.00  0.00    +0.177 C 
ATOM      5  O4* LIG    1       26.563 -15.220   2.530  0.00  0.00    -0.346 OA
ENDROOT
BRANCH   1  10
ATOM      6  C   LIG    1       25.406 -19.575   4.096  0.00  0.00    +0.218 C 
ATOM      7  N   LIG    1       26.526 -18.942   4.070  0.00  0.00    -0.159 NA
ATOM      8  C   LIG    1       26.536 -17.612   3.786  0.00  0.00    +0.354 C 
ATOM      9  O   LIG    1       27.597 -16.989   3.808  0.00  0.00    -0.244 OA
ATOM     10  N   LIG    1       25.349 -16.999   3.487  0.00  0.00    -0.254 N 
ATOM     11  C   LIG    1       24.219 -17.738   3.585  0.00  0.00    +0.209 C 
ATOM     12  N   LIG    1       24.205 -18.985   3.890  0.00  0.00    -0.205 NA
BRANCH   6  13
ATOM     13  N   LIG    1       25.407 -20.902   4.363  0.00  0.00    -0.327 N 
ATOM     14  H   LIG    1       26.189 -21.184   4.939  0.00  0.00    +0.145 HD
ATOM     15  H   LIG    1       24.507 -21.254   4.659  0.00  0.00    +0.145 HD
ENDBRANCH   6  13
ENDBRANCH   1  10
BRANCH   2  16
ATOM     16  O2* LIG    1       23.543 -14.409   4.352  0.00  0.00    -0.385 OA
ATOM     17  H2* LIG    1       23.424 -13.448   4.515  0.00  0.00    +0.210 HD
ENDBRANCH   2  16
BRANCH   3  18
ATOM     18  O3* LIG    1       24.730 -12.755   2.693  0.00  0.00    -0.386 OA
ATOM     19  H3* LIG    1       25.212 -12.031   2.251  0.00  0.00    +0.210 HD
ENDBRANCH   3  18
BRANCH   4  20
ATOM     20  C5* LIG    1       28.078 -13.937   3.943  0.00  0.00    +0.190 C 
BRANCH  20  21
ATOM     21  O5* LIG    1       29.212 -13.339   3.321  0.00  0.00    -0.392 OA
ATOM     22  H5* LIG    1       29.861 -13.199   4.039  0.00  0.00    +0.209 HD
ENDBRANCH  20  21
ENDBRANCH   4  20
TORSDOF 6
ENDMDL
MODEL 7
REMARK VINA RESULT:      -3.2      3.149      4.675
REMARK  Name = *****
REMARK                            x       y       z     vdW  Elec       q    Type
REMARK                         _______ _______ _______ _____ _____    ______ ____
ROOT
ATOM      1  C1* LIG    1       24.203 -18.674   3.510  0.00  0.00    +0.256 C 
ATOM      2  C2* LIG    1       25.089 -19.748   4.159  0.00  0.00    +0.195 C 
ATOM      3  C3* LIG    1       24.062 -20.831   4.459  0.00  0.00    +0.178 C 
ATOM      4  C4* LIG    1       22.819 -20.027   4.830  0.00  0.00    +0.177 C 
ATOM      5  O4* LIG    1       22.893 -18.777   4.099  0.00  0.00    -0.346 OA
ENDROOT
BRANCH   1  10
ATOM      6  C   LIG    1       25.540 -14.805   3.700  0.00  0.00    +0.218 C 
ATOM      7  N   LIG    1       24.325 -15.027   4.060  0.00  0.00    -0.159 NA
ATOM      8  C   LIG    1       23.848 -16.300   4.059  0.00  0.00    +0.354 C 
ATOM      9  O   LIG    1       22.704 -16.526   4.449  0.00  0.00    -0.244 OA
ATOM     10  N   LIG    1       24.670 -17.304   3.622  0.00  0.00    -0.254 N 
ATOM     11  C   LIG    1       25.946 -16.979   3.306  0.00  0.00    +0.209 C 
ATOM     12  N   LIG    1       26.408 -15.782   3.344  0.00  0.00    -0.205 NA
BRANCH   6  13
ATOM     13  N   LIG    1       26.001 -13.533   3.688  0.00  0.00    -0.327 N 
ATOM     14  H   LIG    1       25.262 -12.848   3.773  0.00  0.00    +0.145 HD
ATOM     15  H   LIG    1       26.795 -13.386   4.298  0.00  0.00    +0.145 HD
ENDBRANCH   6  13
ENDBRANCH   1  10
BRANCH   2  16
ATOM     16  O2* LIG    1       26.107 -20.226   3.279  0.00  0.00    -0.385 OA
ATOM     17  H2* LIG    1       25.849 -19.910   2.385  0.00  0.00    +0.210 HD
ENDBRANCH   2  16
BRANCH   3  18
ATOM     18  O3* LIG    1       23.851 -21.572   3.241  0.00  0.00    -0.386 OA
ATOM     19  H3* LIG    1       23.037 -22.097   3.355  0.00  0.00    +0.210 HD
ENDBRANCH   3  18
BRANCH   4  20
ATOM     20  C5* LIG    1       22.730 -19.739   6.332  0.00  0.00    +0.190 C 
BRANCH  20  21
ATOM     21  O5* LIG    1       23.354 -20.792   7.062  0.00  0.00    -0.392 OA
ATOM     22  H5* LIG    1       23.724 -20.372   7.863  0.00  0.00    +0.209 HD
ENDBRANCH  20  21
ENDBRANCH   4  20
TORSDOF 6
ENDMDL
MODEL 8
REMARK VINA RESULT:      -3.0      4.558      6.702
REMARK  Name = *****
REMARK                            x       y       z     vdW  Elec       q    Type
REMARK                         _______ _______ _______ _____ _____    ______ ____
ROOT
ATOM      1  C1* LIG    1       25.034 -15.163   3.189  0.00  0.00    +0.256 C 
ATOM      2  C2* LIG    1       24.410 -13.807   3.554  0.00  0.00    +0.195 C 
ATOM      3  C3* LIG    1       25.638 -12.907   3.538  0.00  0.00    +0.178 C 
ATOM      4  C4* LIG    1       26.734 -13.820   4.080  0.00  0.00    +0.177 C 
ATOM      5  O4* LIG    1       26.379 -15.174   3.703  0.00  0.00    -0.346 OA
ENDROOT
BRANCH   1  10
ATOM      6  C   LIG    1       22.953 -18.460   4.451  0.00  0.00    +0.218 C 
ATOM      7  N   LIG    1       24.099 -18.662   3.901  0.00  0.00    -0.159 NA
ATOM      8  C   LIG    1       24.848 -17.598   3.507  0.00  0.00    +0.354 C 
ATOM      9  O   LIG    1       25.966 -17.780   3.026  0.00  0.00    -0.244 OA
ATOM     10  N   LIG    1       24.331 -16.340   3.666  0.00  0.00    -0.254 N 
ATOM     11  C   LIG    1       23.137 -16.227   4.295  0.00  0.00    +0.209 C 
ATOM     12  N   LIG    1       22.447 -17.230   4.702  0.00  0.00    -0.205 NA
BRANCH   6  13
ATOM     13  N   LIG    1       22.207 -19.525   4.825  0.00  0.00    -0.327 N 
ATOM     14  H   LIG    1       22.756 -20.366   4.944  0.00  0.00    +0.145 HD
ATOM     15  H   LIG    1       21.564 -19.323   5.579  0.00  0.00    +0.145 HD
ENDBRANCH   6  13
ENDBRANCH   1  10
BRANCH   2  16
ATOM     16  O2* LIG    1       23.437 -13.376   2.600  0.00  0.00    -0.385 OA
ATOM     17  H2* LIG    1       23.480 -14.031   1.870  0.00  0.00    +0.210 HD
ENDBRANCH   2  16
BRANCH   3  18
ATOM     18  O3* LIG    1       25.895 -12.555   2.164  0.00  0.00    -0.386 OA
ATOM     19  H3* LIG    1       25.074 -12.171   1.803  0.00  0.00    +0.210 HD
ENDBRANCH   3  18
BRANCH   4  20
ATOM     20  C5* LIG    1       26.876 -13.732   5.603  0.00  0.00    +0.190 C 
BRANCH  20  21
ATOM     21  O5* LIG    1       27.955 -12.863   5.936  0.00  0.00    -0.392 OA
ATOM     22  H5* LIG    1       27.812 -12.053   5.408  0.00  0.00    +0.209 HD
ENDBRANCH  20  21
ENDBRANCH   4  20
TORSDOF 6
ENDMDL
MODEL 9
REMARK VINA RESULT:      -2.8      4.674      6.593
REMARK  Name = *****
REMARK                            x       y       z     vdW  Elec       q    Type
REMARK                         _______ _______ _______ _____ _____    ______ ____
ROOT
ATOM      1  C1* LIG    1       24.261 -14.449   4.375  0.00  0.00    +0.256 C 
ATOM      2  C2* LIG    1       25.458 -13.528   4.653  0.00  0.00    +0.195 C 
ATOM      3  C3* LIG    1       24.857 -12.164   4.340  0.00  0.00    +0.178 C 
ATOM      4  C4* LIG    1       23.920 -12.467   3.173  0.00  0.00    +0.177 C 
ATOM      5  O4* LIG    1       23.474 -13.836   3.337  0.00  0.00    -0.346 OA
ENDROOT
BRANCH   1  10
ATOM      6  C   LIG    1       25.248 -18.301   3.385  0.00  0.00    +0.218 C 
ATOM      7  N   LIG    1       24.063 -18.096   3.844  0.00  0.00    -0.159 NA
ATOM      8  C   LIG    1       23.672 -16.829   4.143  0.00  0.00    +0.354 C 
ATOM      9  O   LIG    1       22.525 -16.618   4.535  0.00  0.00    -0.244 OA
ATOM     10  N   LIG    1       24.578 -15.813   3.992  0.00  0.00    -0.254 N 
ATOM     11  C   LIG    1       25.784 -16.121   3.461  0.00  0.00    +0.209 C 
ATOM     12  N   LIG    1       26.140 -17.312   3.142  0.00  0.00    -0.205 NA
BRANCH   6  13
ATOM     13  N   LIG    1       25.635 -19.568   3.106  0.00  0.00    -0.327 N 
ATOM     14  H   LIG    1       26.388 -19.607   2.432  0.00  0.00    +0.145 HD
ATOM     15  H   LIG    1       25.765 -20.140   3.929  0.00  0.00    +0.145 HD
ENDBRANCH   6  13
ENDBRANCH   1  10
BRANCH   2  16
ATOM     16  O2* LIG    1       25.905 -13.600   6.008  0.00  0.00    -0.385 OA
ATOM     17  H2* LIG    1       26.032 -14.557   6.190  0.00  0.00    +0.210 HD
ENDBRANCH   2  16
BRANCH   3  18
ATOM     18  O3* LIG    1       24.113 -11.747   5.502  0.00  0.00    -0.386 OA
ATOM     19  H3* LIG    1       23.165 -11.824   5.286  0.00  0.00    +0.210 HD
ENDBRANCH   3  18
BRANCH   4  20
ATOM     20  C5* LIG    1       24.604 -12.309   1.812  0.00  0.00    +0.190 C 
BRANCH  20  21
ATOM     21  O5* LIG    1       25.864 -12.974   1.826  0.00  0.00    -0.392 OA
ATOM     22  H5* LIG    1       26.209 -12.901   0.914  0.00  0.00    +0.209 HD
ENDBRANCH  20  21
ENDBRANCH   4  20
TORSDOF 6
ENDMDL
