MODEL 1
REMARK VINA RESULT:      -4.6      0.000      0.000
REMARK  Name = *****
REMARK                            x       y       z     vdW  Elec       q    Type
REMARK                         _______ _______ _______ _____ _____    ______ ____
ROOT
ATOM      1  C   LIG    1       25.725 -16.683   2.957  0.00  0.00    +0.015 C 
ATOM      2  C   LIG    1       25.704 -15.400   3.328  0.00  0.00    -0.000 C 
ATOM      3  C   LIG    1       24.923 -14.634   4.379  0.00  0.00    +0.029 C 
ATOM      4  C   LIG    1       24.641 -13.281   3.661  0.00  0.00    -0.016 C 
ATOM      5  C   LIG    1       26.152 -13.016   3.380  0.00  0.00    +0.036 C 
ATOM      6  C   LIG    1       26.805 -13.141   4.780  0.00  0.00    +0.015 C 
ATOM      7  C   LIG    1       26.519 -11.770   2.611  0.00  0.00    +0.020 C 
ATOM      8  C   LIG    1       23.761 -13.410   2.398  0.00  0.00    +0.012 C 
ATOM      9  C   LIG    1       23.960 -12.233   4.562  0.00  0.00    +0.012 C 
ATOM     10  C   LIG    1       25.952 -14.240   5.468  0.00  0.00    +0.010 C 
ATOM     11  C   LIG    1       26.530 -14.323   2.685  0.00  0.00    +0.166 C 
ATOM     12  O   LIG    1       27.363 -14.492   1.815  0.00  0.00    -0.292 OA
ENDROOT
BRANCH   1  17
ATOM     13  C   LIG    1       22.548 -20.806   5.457  0.00  0.00    +0.044 C 
ATOM     14  C   LIG    1       23.360 -19.740   4.781  0.00  0.00    -0.050 A 
ATOM     15  C   LIG    1       22.791 -18.499   4.478  0.00  0.00    +0.004 A 
ATOM     16  C   LIG    1       23.558 -17.496   3.877  0.00  0.00    +0.008 A 
ATOM     17  C   LIG    1       24.908 -17.717   3.588  0.00  0.00    -0.025 A 
ATOM     18  C   LIG    1       25.480 -18.955   3.896  0.00  0.00    +0.008 A 
ATOM     19  C   LIG    1       24.714 -19.956   4.497  0.00  0.00    +0.004 A 
ENDBRANCH   1  17
TORSDOF 1
ENDMDL
MODEL 2
REMARK VINA RESULT:      -4.5      0.045      1.108
REMARK  Name = *****
REMARK                            x       y       z     vdW  Elec       q    Type
REMARK                         _______ _______ _______ _____ _____    ______ ____
ROOT
ATOM      1  C   LIG    1       25.726 -16.719   2.952  0.00  0.00    +0.015 C 
ATOM      2  C   LIG    1       25.695 -15.436   3.324  0.00  0.00    -0.000 C 
ATOM      3  C   LIG    1       24.908 -14.678   4.377  0.00  0.00    +0.029 C 
ATOM      4  C   LIG    1       24.615 -13.327   3.660  0.00  0.00    -0.016 C 
ATOM      5  C   LIG    1       26.123 -13.049   3.380  0.00  0.00    +0.036 C 
ATOM      6  C   LIG    1       26.778 -13.171   4.780  0.00  0.00    +0.015 C 
ATOM      7  C   LIG    1       26.480 -11.799   2.612  0.00  0.00    +0.020 C 
ATOM      8  C   LIG    1       23.735 -13.461   2.397  0.00  0.00    +0.012 C 
ATOM      9  C   LIG    1       23.925 -12.285   4.563  0.00  0.00    +0.012 C 
ATOM     10  C   LIG    1       25.933 -14.277   5.466  0.00  0.00    +0.010 C 
ATOM     11  C   LIG    1       26.512 -14.352   2.683  0.00  0.00    +0.166 C 
ATOM     12  O   LIG    1       27.347 -14.513   1.812  0.00  0.00    -0.292 OA
ENDROOT
BRANCH   1  17
ATOM     13  C   LIG    1       22.484 -20.800   5.436  0.00  0.00    +0.044 C 
ATOM     14  C   LIG    1       23.339 -19.734   4.816  0.00  0.00    -0.050 A 
ATOM     15  C   LIG    1       24.686 -19.981   4.529  0.00  0.00    +0.004 A 
ATOM     16  C   LIG    1       25.473 -18.998   3.923  0.00  0.00    +0.008 A 
ATOM     17  C   LIG    1       24.918 -17.761   3.582  0.00  0.00    -0.025 A 
ATOM     18  C   LIG    1       23.572 -17.514   3.862  0.00  0.00    +0.008 A 
ATOM     19  C   LIG    1       22.785 -18.496   4.468  0.00  0.00    +0.004 A 
ENDBRANCH   1  17
TORSDOF 1
ENDMDL
MODEL 3
REMARK VINA RESULT:      -1.9      1.581      2.753
REMARK  Name = *****
REMARK                            x       y       z     vdW  Elec       q    Type
REMARK                         _______ _______ _______ _____ _____    ______ ____
ROOT
ATOM      1  C   LIG    1       23.379 -15.818   4.325  0.00  0.00    +0.015 C 
ATOM      2  C   LIG    1       24.351 -14.950   4.030  0.00  0.00    -0.000 C 
ATOM      3  C   LIG    1       25.784 -15.112   3.559  0.00  0.00    +0.029 C 
ATOM      4  C   LIG    1       26.515 -13.971   4.325  0.00  0.00    -0.016 C 
ATOM      5  C   LIG    1       25.568 -12.868   3.763  0.00  0.00    +0.036 C 
ATOM      6  C   LIG    1       25.644 -13.077   2.228  0.00  0.00    +0.015 C 
ATOM      7  C   LIG    1       25.784 -11.448   4.227  0.00  0.00    +0.020 C 
ATOM      8  C   LIG    1       26.487 -14.127   5.862  0.00  0.00    +0.012 C 
ATOM      9  C   LIG    1       27.997 -13.812   3.930  0.00  0.00    +0.012 C 
ATOM     10  C   LIG    1       25.807 -14.614   2.092  0.00  0.00    +0.010 C 
ATOM     11  C   LIG    1       24.212 -13.458   4.143  0.00  0.00    +0.166 C 
ATOM     12  O   LIG    1       23.193 -12.861   4.436  0.00  0.00    -0.292 OA
ENDROOT
BRANCH   1  17
ATOM     13  C   LIG    1       23.934 -21.551   3.917  0.00  0.00    +0.044 C 
ATOM     14  C   LIG    1       23.808 -20.061   4.047  0.00  0.00    -0.050 A 
ATOM     15  C   LIG    1       24.839 -19.221   3.615  0.00  0.00    +0.004 A 
ATOM     16  C   LIG    1       24.707 -17.832   3.707  0.00  0.00    +0.008 A 
ATOM     17  C   LIG    1       23.534 -17.267   4.217  0.00  0.00    -0.025 A 
ATOM     18  C   LIG    1       22.500 -18.105   4.643  0.00  0.00    +0.008 A 
ATOM     19  C   LIG    1       22.632 -19.492   4.550  0.00  0.00    +0.004 A 
ENDBRANCH   1  17
TORSDOF 1
ENDMDL
MODEL 4
REMARK VINA RESULT:      -1.8      1.448      2.327
REMARK  Name = *****
REMARK                            x       y       z     vdW  Elec       q    Type
REMARK                         _______ _______ _______ _____ _____    ______ ____
ROOT
ATOM      1  C   LIG    1       23.266 -16.036   3.739  0.00  0.00    +0.015 C 
ATOM      2  C   LIG    1       24.286 -15.177   3.663  0.00  0.00    -0.000 C 
ATOM      3  C   LIG    1       25.774 -15.302   3.930  0.00  0.00    +0.029 C 
ATOM      4  C   LIG    1       26.110 -13.927   4.579  0.00  0.00    -0.016 C 
ATOM      5  C   LIG    1       25.540 -13.120   3.373  0.00  0.00    +0.036 C 
ATOM      6  C   LIG    1       26.290 -13.717   2.155  0.00  0.00    +0.015 C 
ATOM      7  C   LIG    1       25.557 -11.613   3.461  0.00  0.00    +0.020 C 
ATOM      8  C   LIG    1       25.394 -13.674   5.925  0.00  0.00    +0.012 C 
ATOM      9  C   LIG    1       27.615 -13.718   4.841  0.00  0.00    +0.012 C 
ATOM     10  C   LIG    1       26.463 -15.208   2.545  0.00  0.00    +0.010 C 
ATOM     11  C   LIG    1       24.144 -13.732   3.276  0.00  0.00    +0.166 C 
ATOM     12  O   LIG    1       23.115 -13.193   2.914  0.00  0.00    -0.292 OA
ENDROOT
BRANCH   1  17
ATOM     13  C   LIG    1       23.934 -21.571   5.242  0.00  0.00    +0.044 C 
ATOM     14  C   LIG    1       23.742 -20.141   4.831  0.00  0.00    -0.050 A 
ATOM     15  C   LIG    1       22.593 -19.441   5.214  0.00  0.00    +0.004 A 
ATOM     16  C   LIG    1       22.430 -18.099   4.856  0.00  0.00    +0.008 A 
ATOM     17  C   LIG    1       23.421 -17.437   4.126  0.00  0.00    -0.025 A 
ATOM     18  C   LIG    1       24.572 -18.133   3.747  0.00  0.00    +0.008 A 
ATOM     19  C   LIG    1       24.736 -19.474   4.105  0.00  0.00    +0.004 A 
ENDBRANCH   1  17
TORSDOF 1
ENDMDL
MODEL 5
REMARK VINA RESULT:      -1.7      2.297      6.686
REMARK  Name = *****
REMARK                            x       y       z     vdW  Elec       q    Type
REMARK                         _______ _______ _______ _____ _____    ______ ____
ROOT
ATOM      1  C   LIG    1       23.125 -16.823   3.918  0.00  0.00    +0.015 C 
ATOM      2  C   LIG    1       23.148 -18.109   4.280  0.00  0.00    -0.000 C 
ATOM      3  C   LIG    1       24.253 -19.040   4.742  0.00  0.00    +0.029 C 
ATOM      4  C   LIG    1       23.855 -20.385   4.066  0.00  0.00    -0.016 C 
ATOM      5  C   LIG    1       22.434 -20.388   4.707  0.00  0.00    +0.036 C 
ATOM      6  C   LIG    1       22.723 -20.224   6.221  0.00  0.00    +0.015 C 
ATOM      7  C   LIG    1       21.502 -21.521   4.352  0.00  0.00    +0.020 C 
ATOM      8  C   LIG    1       23.869 -20.342   2.521  0.00  0.00    +0.012 C 
ATOM      9  C   LIG    1       24.750 -21.572   4.476  0.00  0.00    +0.012 C 
ATOM     10  C   LIG    1       23.979 -19.313   6.242  0.00  0.00    +0.010 C 
ATOM     11  C   LIG    1       21.943 -19.006   4.280  0.00  0.00    +0.166 C 
ATOM     12  O   LIG    1       20.803 -18.663   4.029  0.00  0.00    -0.292 OA
ENDROOT
BRANCH   1  17
ATOM     13  C   LIG    1       27.770 -13.394   3.946  0.00  0.00    +0.044 C 
ATOM     14  C   LIG    1       26.559 -14.279   3.910  0.00  0.00    -0.050 A 
ATOM     15  C   LIG    1       26.636 -15.565   3.365  0.00  0.00    +0.004 A 
ATOM     16  C   LIG    1       25.515 -16.400   3.360  0.00  0.00    +0.008 A 
ATOM     17  C   LIG    1       24.309 -15.966   3.917  0.00  0.00    -0.025 A 
ATOM     18  C   LIG    1       24.232 -14.684   4.467  0.00  0.00    +0.008 A 
ATOM     19  C   LIG    1       25.352 -13.849   4.472  0.00  0.00    +0.004 A 
ENDBRANCH   1  17
TORSDOF 1
ENDMDL
