MODEL 1
REMARK VINA RESULT:      -9.0      0.000      0.000
REMARK  Name = *****
REMARK                            x       y       z     vdW  Elec       q    Type
REMARK                         _______ _______ _______ _____ _____    ______ ____
ROOT
ATOM      1  C   LIG    1       26.042 -20.566   5.543  0.00  0.00    +0.027 C 
ATOM      2  C   LIG    1       26.761 -20.508   6.914  0.00  0.00    +0.086 C 
ENDROOT
BRANCH   2   3
ATOM      3  N   LIG    1       28.187 -20.967   6.779  0.00  0.00    -0.297 NA
ATOM      4  C   LIG    1       28.993 -20.182   5.822  0.00  0.00    +0.085 C 
ATOM      5  C   LIG    1       29.230 -18.738   6.279  0.00  0.00    +0.019 C 
ATOM      6  C   LIG    1       29.920 -18.685   7.654  0.00  0.00    -0.004 C 
ATOM      7  C   LIG    1       29.218 -19.633   8.647  0.00  0.00    +0.019 C 
ATOM      8  C   LIG    1       28.956 -21.016   8.037  0.00  0.00    +0.085 C 
BRANCH   6   9
ATOM      9  C   LIG    1       29.965 -17.256   8.237  0.00  0.00    +0.038 C 
BRANCH   9  10
ATOM     10  C   LIG    1       30.873 -17.096   9.435  0.00  0.00    -0.047 A 
ATOM     11  C   LIG    1       32.187 -16.635   9.279  0.00  0.00    +0.003 A 
ATOM     12  C   LIG    1       33.024 -16.491  10.388  0.00  0.00    +0.000 A 
ATOM     13  C   LIG    1       32.553 -16.797  11.665  0.00  0.00    +0.000 A 
ATOM     14  C   LIG    1       31.249 -17.256  11.831  0.00  0.00    +0.000 A 
ATOM     15  C   LIG    1       30.415 -17.409  10.722  0.00  0.00    +0.003 A 
ENDBRANCH   9  10
ENDBRANCH   6   9
ENDBRANCH   2   3
BRANCH   2  16
ATOM     16  C   LIG    1       25.881 -21.327   7.952  0.00  0.00    +0.161 C 
BRANCH  16  17
ATOM     17  C   LIG    1       25.256 -22.588   7.363  0.00  0.00    -0.017 A 
ATOM     18  C   LIG    1       23.866 -22.685   7.157  0.00  0.00    +0.010 A 
ATOM     19  C   LIG    1       23.309 -23.837   6.598  0.00  0.00    +0.046 A 
ATOM     20  C   LIG    1       24.127 -24.896   6.245  0.00  0.00    +0.117 A 
ATOM     21  C   LIG    1       25.504 -24.833   6.447  0.00  0.00    +0.046 A 
ATOM     22  C   LIG    1       26.062 -23.681   7.012  0.00  0.00    +0.010 A 
BRANCH  20  23
ATOM     23  O   LIG    1       23.541 -25.999   5.694  0.00  0.00    -0.507 OA
ATOM     24  H   LIG    1       24.030 -26.787   5.982  0.00  0.00    +0.292 HD
ENDBRANCH  20  23
ENDBRANCH  16  17
BRANCH  16  25
ATOM     25  O   LIG    1       24.780 -20.590   8.486  0.00  0.00    -0.386 OA
ATOM     26  H   LIG    1       23.973 -21.073   8.255  0.00  0.00    +0.210 HD
ENDBRANCH  16  25
ENDBRANCH   2  16
TORSDOF 7
ENDMDL
MODEL 2
REMARK VINA RESULT:      -8.6      2.795      8.316
REMARK  Name = *****
REMARK                            x       y       z     vdW  Elec       q    Type
REMARK                         _______ _______ _______ _____ _____    ______ ____
ROOT
ATOM      1  C   LIG    1       25.938 -21.682   7.975  0.00  0.00    +0.027 C 
ATOM      2  C   LIG    1       26.128 -20.498   6.995  0.00  0.00    +0.086 C 
ENDROOT
BRANCH   2   3
ATOM      3  N   LIG    1       24.912 -20.338   6.123  0.00  0.00    -0.297 NA
ATOM      4  C   LIG    1       24.869 -21.248   4.961  0.00  0.00    +0.085 C 
ATOM      5  C   LIG    1       24.709 -22.720   5.358  0.00  0.00    +0.019 C 
ATOM      6  C   LIG    1       23.439 -22.945   6.199  0.00  0.00    -0.004 C 
ATOM      7  C   LIG    1       23.345 -21.896   7.325  0.00  0.00    +0.019 C 
ATOM      8  C   LIG    1       23.617 -20.475   6.814  0.00  0.00    +0.085 C 
BRANCH   6   9
ATOM      9  C   LIG    1       23.372 -24.366   6.799  0.00  0.00    +0.038 C 
BRANCH   9  10
ATOM     10  C   LIG    1       24.422 -25.318   6.274  0.00  0.00    -0.047 A 
ATOM     11  C   LIG    1       24.103 -26.257   5.284  0.00  0.00    +0.003 A 
ATOM     12  C   LIG    1       25.075 -27.138   4.802  0.00  0.00    +0.000 A 
ATOM     13  C   LIG    1       26.377 -27.083   5.299  0.00  0.00    +0.000 A 
ATOM     14  C   LIG    1       26.705 -26.154   6.283  0.00  0.00    +0.000 A 
ATOM     15  C   LIG    1       25.732 -25.279   6.771  0.00  0.00    +0.003 A 
ENDBRANCH   9  10
ENDBRANCH   6   9
ENDBRANCH   2   3
BRANCH   2  16
ATOM     16  C   LIG    1       27.493 -20.733   6.218  0.00  0.00    +0.161 C 
BRANCH  16  17
ATOM     17  C   LIG    1       28.732 -20.410   7.046  0.00  0.00    -0.017 A 
ATOM     18  C   LIG    1       29.351 -21.391   7.847  0.00  0.00    +0.010 A 
ATOM     19  C   LIG    1       30.497 -21.087   8.584  0.00  0.00    +0.046 A 
ATOM     20  C   LIG    1       31.032 -19.812   8.533  0.00  0.00    +0.117 A 
ATOM     21  C   LIG    1       30.436 -18.819   7.759  0.00  0.00    +0.046 A 
ATOM     22  C   LIG    1       29.285 -19.121   7.024  0.00  0.00    +0.010 A 
BRANCH  20  23
ATOM     23  O   LIG    1       32.158 -19.562   9.263  0.00  0.00    -0.507 OA
ATOM     24  H   LIG    1       32.405 -20.371   9.739  0.00  0.00    +0.292 HD
ENDBRANCH  20  23
ENDBRANCH  16  17
BRANCH  16  25
ATOM     25  O   LIG    1       27.630 -19.945   5.035  0.00  0.00    -0.386 OA
ATOM     26  H   LIG    1       26.737 -19.692   4.756  0.00  0.00    +0.210 HD
ENDBRANCH  16  25
ENDBRANCH   2  16
TORSDOF 7
ENDMDL
MODEL 3
REMARK VINA RESULT:      -8.5      2.807      7.978
REMARK  Name = *****
REMARK                            x       y       z     vdW  Elec       q    Type
REMARK                         _______ _______ _______ _____ _____    ______ ____
ROOT
ATOM      1  C   LIG    1       26.957 -20.004   8.375  0.00  0.00    +0.027 C 
ATOM      2  C   LIG    1       26.924 -21.025   7.210  0.00  0.00    +0.086 C 
ENDROOT
BRANCH   2   3
ATOM      3  N   LIG    1       26.439 -22.363   7.699  0.00  0.00    -0.297 NA
ATOM      4  C   LIG    1       25.232 -22.304   8.546  0.00  0.00    +0.085 C 
ATOM      5  C   LIG    1       23.985 -21.842   7.783  0.00  0.00    +0.019 C 
ATOM      6  C   LIG    1       23.689 -22.753   6.578  0.00  0.00    -0.004 C 
ATOM      7  C   LIG    1       24.971 -22.994   5.756  0.00  0.00    +0.019 C 
ATOM      8  C   LIG    1       26.167 -23.359   6.646  0.00  0.00    +0.085 C 
BRANCH   6   9
ATOM      9  C   LIG    1       22.581 -22.184   5.667  0.00  0.00    +0.038 C 
BRANCH   9  10
ATOM     10  C   LIG    1       22.940 -20.888   4.977  0.00  0.00    -0.047 A 
ATOM     11  C   LIG    1       22.115 -19.761   5.100  0.00  0.00    +0.003 A 
ATOM     12  C   LIG    1       22.449 -18.565   4.459  0.00  0.00    +0.000 A 
ATOM     13  C   LIG    1       23.614 -18.481   3.697  0.00  0.00    +0.000 A 
ATOM     14  C   LIG    1       24.440 -19.594   3.568  0.00  0.00    +0.000 A 
ATOM     15  C   LIG    1       24.104 -20.793   4.201  0.00  0.00    +0.003 A 
ENDBRANCH   9  10
ENDBRANCH   6   9
ENDBRANCH   2   3
BRANCH   2  16
ATOM     16  C   LIG    1       28.362 -21.030   6.537  0.00  0.00    +0.161 C 
BRANCH  16  17
ATOM     17  C   LIG    1       29.437 -20.354   7.382  0.00  0.00    -0.017 A 
ATOM     18  C   LIG    1       29.664 -18.966   7.299  0.00  0.00    +0.010 A 
ATOM     19  C   LIG    1       30.637 -18.356   8.094  0.00  0.00    +0.046 A 
ATOM     20  C   LIG    1       31.388 -19.120   8.971  0.00  0.00    +0.117 A 
ATOM     21  C   LIG    1       31.193 -20.496   9.066  0.00  0.00    +0.046 A 
ATOM     22  C   LIG    1       30.223 -21.108   8.267  0.00  0.00    +0.010 A 
BRANCH  20  23
ATOM     23  O   LIG    1       32.322 -18.481   9.734  0.00  0.00    -0.507 OA
ATOM     24  H   LIG    1       32.258 -17.526   9.568  0.00  0.00    +0.292 HD
ENDBRANCH  20  23
ENDBRANCH  16  17
BRANCH  16  25
ATOM     25  O   LIG    1       28.414 -20.359   5.277  0.00  0.00    -0.386 OA
ATOM     26  H   LIG    1       28.210 -21.016   4.595  0.00  0.00    +0.210 HD
ENDBRANCH  16  25
ENDBRANCH   2  16
TORSDOF 7
ENDMDL
MODEL 4
REMARK VINA RESULT:      -8.5      1.766      2.898
REMARK  Name = *****
REMARK                            x       y       z     vdW  Elec       q    Type
REMARK                         _______ _______ _______ _____ _____    ______ ____
ROOT
ATOM      1  C   LIG    1       25.887 -23.013   8.123  0.00  0.00    +0.027 C 
ATOM      2  C   LIG    1       25.872 -22.536   6.649  0.00  0.00    +0.086 C 
ENDROOT
BRANCH   2   3
ATOM      3  N   LIG    1       25.696 -21.043   6.581  0.00  0.00    -0.297 NA
ATOM      4  C   LIG    1       25.828 -20.353   7.879  0.00  0.00    +0.085 C 
ATOM      5  C   LIG    1       27.248 -20.419   8.453  0.00  0.00    +0.019 C 
ATOM      6  C   LIG    1       28.281 -19.824   7.479  0.00  0.00    -0.004 C 
ATOM      7  C   LIG    1       28.067 -20.382   6.058  0.00  0.00    +0.019 C 
ATOM      8  C   LIG    1       26.591 -20.344   5.639  0.00  0.00    +0.085 C 
BRANCH   6   9
ATOM      9  C   LIG    1       29.735 -20.081   7.930  0.00  0.00    +0.038 C 
BRANCH   9  10
ATOM     10  C   LIG    1       30.406 -18.897   8.587  0.00  0.00    -0.047 A 
ATOM     11  C   LIG    1       31.685 -18.489   8.188  0.00  0.00    +0.003 A 
ATOM     12  C   LIG    1       32.304 -17.395   8.799  0.00  0.00    +0.000 A 
ATOM     13  C   LIG    1       31.646 -16.694   9.810  0.00  0.00    +0.000 A 
ATOM     14  C   LIG    1       30.374 -17.092  10.215  0.00  0.00    +0.000 A 
ATOM     15  C   LIG    1       29.759 -18.189   9.611  0.00  0.00    +0.003 A 
ENDBRANCH   9  10
ENDBRANCH   6   9
ENDBRANCH   2   3
BRANCH   2  16
ATOM     16  C   LIG    1       24.768 -23.384   5.883  0.00  0.00    +0.161 C 
BRANCH  16  17
ATOM     17  C   LIG    1       25.042 -24.884   5.879  0.00  0.00    -0.017 A 
ATOM     18  C   LIG    1       23.994 -25.817   5.758  0.00  0.00    +0.010 A 
ATOM     19  C   LIG    1       24.260 -27.187   5.735  0.00  0.00    +0.046 A 
ATOM     20  C   LIG    1       25.566 -27.637   5.834  0.00  0.00    +0.117 A 
ATOM     21  C   LIG    1       26.622 -26.739   5.967  0.00  0.00    +0.046 A 
ATOM     22  C   LIG    1       26.355 -25.366   5.995  0.00  0.00    +0.010 A 
BRANCH  20  23
ATOM     23  O   LIG    1       25.781 -28.984   5.799  0.00  0.00    -0.507 OA
ATOM     24  H   LIG    1       24.996 -29.414   5.422  0.00  0.00    +0.292 HD
ENDBRANCH  20  23
ENDBRANCH  16  17
BRANCH  16  25
ATOM     25  O   LIG    1       24.624 -23.036   4.505  0.00  0.00    -0.386 OA
ATOM     26  H   LIG    1       24.651 -22.069   4.450  0.00  0.00    +0.210 HD
ENDBRANCH  16  25
ENDBRANCH   2  16
TORSDOF 7
ENDMDL
MODEL 5
REMARK VINA RESULT:      -8.3      2.297      3.995
REMARK  Name = *****
REMARK                            x       y       z     vdW  Elec       q    Type
REMARK                         _______ _______ _______ _____ _____    ______ ____
ROOT
ATOM      1  C   LIG    1       25.861 -24.414   6.604  0.00  0.00    +0.027 C 
ATOM      2  C   LIG    1       25.507 -22.924   6.369  0.00  0.00    +0.086 C 
ENDROOT
BRANCH   2   3
ATOM      3  N   LIG    1       25.441 -22.187   7.680  0.00  0.00    -0.297 NA
ATOM      4  C   LIG    1       26.568 -22.463   8.592  0.00  0.00    +0.085 C 
ATOM      5  C   LIG    1       27.908 -21.935   8.068  0.00  0.00    +0.019 C 
ATOM      6  C   LIG    1       27.857 -20.420   7.804  0.00  0.00    -0.004 C 
ATOM      7  C   LIG    1       26.592 -20.055   7.001  0.00  0.00    +0.019 C 
ATOM      8  C   LIG    1       25.333 -20.720   7.574  0.00  0.00    +0.085 C 
BRANCH   6   9
ATOM      9  C   LIG    1       29.112 -19.906   7.066  0.00  0.00    +0.038 C 
BRANCH   9  10
ATOM     10  C   LIG    1       30.014 -19.027   7.902  0.00  0.00    -0.047 A 
ATOM     11  C   LIG    1       31.374 -18.897   7.589  0.00  0.00    +0.003 A 
ATOM     12  C   LIG    1       32.206 -18.085   8.365  0.00  0.00    +0.000 A 
ATOM     13  C   LIG    1       31.685 -17.391   9.456  0.00  0.00    +0.000 A 
ATOM     14  C   LIG    1       30.335 -17.513   9.777  0.00  0.00    +0.000 A 
ATOM     15  C   LIG    1       29.505 -18.330   9.007  0.00  0.00    +0.003 A 
ENDBRANCH   9  10
ENDBRANCH   6   9
ENDBRANCH   2   3
BRANCH   2  16
ATOM     16  C   LIG    1       24.179 -22.878   5.499  0.00  0.00    +0.161 C 
BRANCH  16  17
ATOM     17  C   LIG    1       23.796 -21.476   5.039  0.00  0.00    -0.017 A 
ATOM     18  C   LIG    1       22.661 -20.822   5.557  0.00  0.00    +0.010 A 
ATOM     19  C   LIG    1       22.333 -19.530   5.143  0.00  0.00    +0.046 A 
ATOM     20  C   LIG    1       23.128 -18.882   4.214  0.00  0.00    +0.117 A 
ATOM     21  C   LIG    1       24.250 -19.507   3.675  0.00  0.00    +0.046 A 
ATOM     22  C   LIG    1       24.576 -20.803   4.086  0.00  0.00    +0.010 A 
BRANCH  20  23
ATOM     23  O   LIG    1       22.775 -17.616   3.844  0.00  0.00    -0.507 OA
ATOM     24  H   LIG    1       23.505 -17.226   3.338  0.00  0.00    +0.292 HD
ENDBRANCH  20  23
ENDBRANCH  16  17
BRANCH  16  25
ATOM     25  O   LIG    1       23.023 -23.367   6.180  0.00  0.00    -0.386 OA
ATOM     26  H   LIG    1       23.296 -24.150   6.681  0.00  0.00    +0.210 HD
ENDBRANCH  16  25
ENDBRANCH   2  16
TORSDOF 7
ENDMDL
MODEL 6
REMARK VINA RESULT:      -8.0      3.130      8.546
REMARK  Name = *****
REMARK                            x       y       z     vdW  Elec       q    Type
REMARK                         _______ _______ _______ _____ _____    ______ ____
ROOT
ATOM      1  C   LIG    1       25.898 -20.549   8.184  0.00  0.00    +0.027 C 
ATOM      2  C   LIG    1       25.434 -20.314   6.725  0.00  0.00    +0.086 C 
ENDROOT
BRANCH   2   3
ATOM      3  N   LIG    1       24.150 -21.052   6.458  0.00  0.00    -0.297 NA
ATOM      4  C   LIG    1       24.120 -21.780   5.174  0.00  0.00    +0.085 C 
ATOM      5  C   LIG    1       25.105 -22.953   5.126  0.00  0.00    +0.019 C 
ATOM      6  C   LIG    1       24.845 -23.960   6.261  0.00  0.00    -0.004 C 
ATOM      7  C   LIG    1       24.687 -23.225   7.608  0.00  0.00    +0.019 C 
ATOM      8  C   LIG    1       23.747 -22.017   7.499  0.00  0.00    +0.085 C 
BRANCH   6   9
ATOM      9  C   LIG    1       25.956 -25.025   6.372  0.00  0.00    +0.038 C 
BRANCH   9  10
ATOM     10  C   LIG    1       25.454 -26.450   6.433  0.00  0.00    -0.047 A 
ATOM     11  C   LIG    1       24.549 -26.930   5.477  0.00  0.00    +0.003 A 
ATOM     12  C   LIG    1       24.086 -28.247   5.537  0.00  0.00    +0.000 A 
ATOM     13  C   LIG    1       24.528 -29.098   6.549  0.00  0.00    +0.000 A 
ATOM     14  C   LIG    1       25.427 -28.632   7.505  0.00  0.00    +0.000 A 
ATOM     15  C   LIG    1       25.884 -27.314   7.450  0.00  0.00    +0.003 A 
ENDBRANCH   9  10
ENDBRANCH   6   9
ENDBRANCH   2   3
BRANCH   2  16
ATOM     16  C   LIG    1       26.645 -20.692   5.770  0.00  0.00    +0.161 C 
BRANCH  16  17
ATOM     17  C   LIG    1       28.015 -20.452   6.394  0.00  0.00    -0.017 A 
ATOM     18  C   LIG    1       28.770 -19.305   6.079  0.00  0.00    +0.010 A 
ATOM     19  C   LIG    1       30.014 -19.087   6.673  0.00  0.00    +0.046 A 
ATOM     20  C   LIG    1       30.515 -20.005   7.580  0.00  0.00    +0.117 A 
ATOM     21  C   LIG    1       29.797 -21.154   7.902  0.00  0.00    +0.046 A 
ATOM     22  C   LIG    1       28.552 -21.376   7.304  0.00  0.00    +0.010 A 
BRANCH  20  23
ATOM     23  O   LIG    1       31.731 -19.748   8.142  0.00  0.00    -0.507 OA
ATOM     24  H   LIG    1       31.892 -20.398   8.845  0.00  0.00    +0.292 HD
ENDBRANCH  20  23
ENDBRANCH  16  17
BRANCH  16  25
ATOM     25  O   LIG    1       26.667 -19.957   4.546  0.00  0.00    -0.386 OA
ATOM     26  H   LIG    1       25.999 -19.260   4.618  0.00  0.00    +0.210 HD
ENDBRANCH  16  25
ENDBRANCH   2  16
TORSDOF 7
ENDMDL
MODEL 7
REMARK VINA RESULT:      -8.0      2.859      8.712
REMARK  Name = *****
REMARK                            x       y       z     vdW  Elec       q    Type
REMARK                         _______ _______ _______ _____ _____    ______ ____
ROOT
ATOM      1  C   LIG    1       30.971 -20.692   9.108  0.00  0.00    +0.027 C 
ATOM      2  C   LIG    1       30.048 -19.927   8.127  0.00  0.00    +0.086 C 
ENDROOT
BRANCH   2   3
ATOM      3  N   LIG    1       29.690 -20.799   6.954  0.00  0.00    -0.297 NA
ATOM      4  C   LIG    1       28.985 -22.045   7.313  0.00  0.00    +0.085 C 
ATOM      5  C   LIG    1       27.586 -21.800   7.888  0.00  0.00    +0.019 C 
ATOM      6  C   LIG    1       26.702 -21.007   6.909  0.00  0.00    -0.004 C 
ATOM      7  C   LIG    1       27.465 -19.783   6.363  0.00  0.00    +0.019 C 
ATOM      8  C   LIG    1       28.884 -20.146   5.905  0.00  0.00    +0.085 C 
BRANCH   6   9
ATOM      9  C   LIG    1       25.372 -20.553   7.549  0.00  0.00    +0.038 C 
BRANCH   9  10
ATOM     10  C   LIG    1       24.134 -21.116   6.890  0.00  0.00    -0.047 A 
ATOM     11  C   LIG    1       23.613 -22.355   7.290  0.00  0.00    +0.003 A 
ATOM     12  C   LIG    1       22.470 -22.874   6.677  0.00  0.00    +0.000 A 
ATOM     13  C   LIG    1       21.832 -22.158   5.665  0.00  0.00    +0.000 A 
ATOM     14  C   LIG    1       22.342 -20.927   5.259  0.00  0.00    +0.000 A 
ATOM     15  C   LIG    1       23.489 -20.411   5.865  0.00  0.00    +0.003 A 
ENDBRANCH   9  10
ENDBRANCH   6   9
ENDBRANCH   2   3
BRANCH   2  16
ATOM     16  C   LIG    1       30.769 -18.560   7.760  0.00  0.00    +0.161 C 
BRANCH  16  17
ATOM     17  C   LIG    1       31.163 -17.729   8.976  0.00  0.00    -0.017 A 
ATOM     18  C   LIG    1       30.254 -17.497  10.027  0.00  0.00    +0.010 A 
ATOM     19  C   LIG    1       30.634 -16.752  11.145  0.00  0.00    +0.046 A 
ATOM     20  C   LIG    1       31.915 -16.233  11.224  0.00  0.00    +0.117 A 
ATOM     21  C   LIG    1       32.831 -16.436  10.195  0.00  0.00    +0.046 A 
ATOM     22  C   LIG    1       32.450 -17.178   9.073  0.00  0.00    +0.010 A 
BRANCH  20  23
ATOM     23  O   LIG    1       32.246 -15.519  12.339  0.00  0.00    -0.507 OA
ATOM     24  H   LIG    1       32.194 -14.572  12.128  0.00  0.00    +0.292 HD
ENDBRANCH  20  23
ENDBRANCH  16  17
BRANCH  16  25
ATOM     25  O   LIG    1       29.973 -17.682   6.961  0.00  0.00    -0.386 OA
ATOM     26  H   LIG    1       30.385 -17.639   6.086  0.00  0.00    +0.210 HD
ENDBRANCH  16  25
ENDBRANCH   2  16
TORSDOF 7
ENDMDL
MODEL 8
REMARK VINA RESULT:      -7.8      2.128      4.077
REMARK  Name = *****
REMARK                            x       y       z     vdW  Elec       q    Type
REMARK                         _______ _______ _______ _____ _____    ______ ____
ROOT
ATOM      1  C   LIG    1       26.111 -24.622   7.646  0.00  0.00    +0.027 C 
ATOM      2  C   LIG    1       25.657 -23.612   6.563  0.00  0.00    +0.086 C 
ENDROOT
BRANCH   2   3
ATOM      3  N   LIG    1       25.106 -22.367   7.204  0.00  0.00    -0.297 NA
ATOM      4  C   LIG    1       25.917 -21.845   8.322  0.00  0.00    +0.085 C 
ATOM      5  C   LIG    1       27.286 -21.319   7.875  0.00  0.00    +0.019 C 
ATOM      6  C   LIG    1       27.150 -20.212   6.815  0.00  0.00    -0.004 C 
ATOM      7  C   LIG    1       26.165 -20.641   5.710  0.00  0.00    +0.019 C 
ATOM      8  C   LIG    1       24.873 -21.235   6.288  0.00  0.00    +0.085 C 
BRANCH   6   9
ATOM      9  C   LIG    1       28.506 -19.826   6.187  0.00  0.00    +0.038 C 
BRANCH   9  10
ATOM     10  C   LIG    1       29.519 -19.282   7.169  0.00  0.00    -0.047 A 
ATOM     11  C   LIG    1       29.103 -18.665   8.356  0.00  0.00    +0.003 A 
ATOM     12  C   LIG    1       30.042 -18.161   9.260  0.00  0.00    +0.000 A 
ATOM     13  C   LIG    1       31.405 -18.277   8.990  0.00  0.00    +0.000 A 
ATOM     14  C   LIG    1       31.830 -18.889   7.813  0.00  0.00    +0.000 A 
ATOM     15  C   LIG    1       30.893 -19.384   6.905  0.00  0.00    +0.003 A 
ENDBRANCH   9  10
ENDBRANCH   6   9
ENDBRANCH   2   3
BRANCH   2  16
ATOM     16  C   LIG    1       24.659 -24.370   5.588  0.00  0.00    +0.161 C 
BRANCH  16  17
ATOM     17  C   LIG    1       24.898 -25.875   5.517  0.00  0.00    -0.017 A 
ATOM     18  C   LIG    1       25.910 -26.415   4.700  0.00  0.00    +0.010 A 
ATOM     19  C   LIG    1       26.132 -27.793   4.660  0.00  0.00    +0.046 A 
ATOM     20  C   LIG    1       25.351 -28.639   5.428  0.00  0.00    +0.117 A 
ATOM     21  C   LIG    1       24.335 -28.135   6.237  0.00  0.00    +0.046 A 
ATOM     22  C   LIG    1       24.109 -26.755   6.273  0.00  0.00    +0.010 A 
BRANCH  20  23
ATOM     23  O   LIG    1       25.608 -29.978   5.364  0.00  0.00    -0.507 OA
ATOM     24  H   LIG    1       26.049 -30.170   4.522  0.00  0.00    +0.292 HD
ENDBRANCH  20  23
ENDBRANCH  16  17
BRANCH  16  25
ATOM     25  O   LIG    1       24.726 -23.926   4.232  0.00  0.00    -0.386 OA
ATOM     26  H   LIG    1       24.937 -24.699   3.688  0.00  0.00    +0.210 HD
ENDBRANCH  16  25
ENDBRANCH   2  16
TORSDOF 7
ENDMDL
MODEL 9
REMARK VINA RESULT:      -7.7      5.023      9.619
REMARK  Name = *****
REMARK                            x       y       z     vdW  Elec       q    Type
REMARK                         _______ _______ _______ _____ _____    ______ ____
ROOT
ATOM      1  C   LIG    1       25.845 -23.021   7.990  0.00  0.00    +0.027 C 
ATOM      2  C   LIG    1       24.830 -23.638   6.996  0.00  0.00    +0.086 C 
ENDROOT
BRANCH   2   3
ATOM      3  N   LIG    1       25.549 -24.265   5.832  0.00  0.00    -0.297 NA
ATOM      4  C   LIG    1       26.590 -25.240   6.211  0.00  0.00    +0.085 C 
ATOM      5  C   LIG    1       26.020 -26.502   6.869  0.00  0.00    +0.019 C 
ATOM      6  C   LIG    1       25.002 -27.207   5.956  0.00  0.00    -0.004 C 
ATOM      7  C   LIG    1       23.992 -26.191   5.386  0.00  0.00    +0.019 C 
ATOM      8  C   LIG    1       24.685 -24.934   4.842  0.00  0.00    +0.085 C 
BRANCH   6   9
ATOM      9  C   LIG    1       24.249 -28.345   6.678  0.00  0.00    +0.038 C 
BRANCH   9  10
ATOM     10  C   LIG    1       24.989 -29.662   6.715  0.00  0.00    -0.047 A 
ATOM     11  C   LIG    1       25.315 -30.331   5.527  0.00  0.00    +0.003 A 
ATOM     12  C   LIG    1       25.998 -31.550   5.564  0.00  0.00    +0.000 A 
ATOM     13  C   LIG    1       26.368 -32.108   6.787  0.00  0.00    +0.000 A 
ATOM     14  C   LIG    1       26.049 -31.451   7.973  0.00  0.00    +0.000 A 
ATOM     15  C   LIG    1       25.360 -30.238   7.938  0.00  0.00    +0.003 A 
ENDBRANCH   9  10
ENDBRANCH   6   9
ENDBRANCH   2   3
BRANCH   2  16
ATOM     16  C   LIG    1       23.782 -22.506   6.616  0.00  0.00    +0.161 C 
BRANCH  16  17
ATOM     17  C   LIG    1       24.344 -21.443   5.678  0.00  0.00    -0.017 A 
ATOM     18  C   LIG    1       25.618 -20.882   5.890  0.00  0.00    +0.010 A 
ATOM     19  C   LIG    1       26.129 -19.925   5.011  0.00  0.00    +0.046 A 
ATOM     20  C   LIG    1       25.377 -19.518   3.922  0.00  0.00    +0.117 A 
ATOM     21  C   LIG    1       24.109 -20.046   3.694  0.00  0.00    +0.046 A 
ATOM     22  C   LIG    1       23.595 -21.002   4.576  0.00  0.00    +0.010 A 
BRANCH  20  23
ATOM     23  O   LIG    1       25.919 -18.586   3.086  0.00  0.00    -0.507 OA
ATOM     24  H   LIG    1       25.864 -17.716   3.512  0.00  0.00    +0.292 HD
ENDBRANCH  20  23
ENDBRANCH  16  17
BRANCH  16  25
ATOM     25  O   LIG    1       23.285 -21.777   7.739  0.00  0.00    -0.386 OA
ATOM     26  H   LIG    1       22.329 -21.682   7.617  0.00  0.00    +0.210 HD
ENDBRANCH  16  25
ENDBRANCH   2  16
TORSDOF 7
ENDMDL
