MODEL 1
REMARK VINA RESULT:      -8.7      0.000      0.000
REMARK  Name = *****
REMARK                            x       y       z     vdW  Elec       q    Type
REMARK                         _______ _______ _______ _____ _____    ______ ____
ROOT
ATOM      1  N   LIG    1       26.440 -20.802   5.558  0.00  0.00    -0.314 N 
ATOM      2  H   LIG    1       26.381 -21.774   5.865  0.00  0.00    +0.152 HD
ENDROOT
BRANCH   1   5
ATOM      3  C   LIG    1       27.901 -21.814   7.929  0.00  0.00    +0.047 C 
ATOM      4  C   LIG    1       28.398 -20.687   7.058  0.00  0.00    -0.011 A 
ATOM      5  C   LIG    1       27.641 -20.169   5.976  0.00  0.00    +0.036 A 
ATOM      6  C   LIG    1       28.154 -19.057   5.282  0.00  0.00    +0.023 A 
ATOM      7  C   LIG    1       29.403 -18.509   5.581  0.00  0.00    +0.003 A 
ATOM      8  C   LIG    1       30.177 -19.068   6.585  0.00  0.00    +0.020 A 
ATOM      9  C   LIG    1       29.678 -20.142   7.322  0.00  0.00    +0.046 A 
ATOM     10 CL   LIG    1       30.710 -20.786   8.556  0.00  0.00    -0.083 Cl
ENDBRANCH   1   5
BRANCH   1  11
ATOM     11  C   LIG    1       25.164 -20.290   5.205  0.00  0.00    +0.045 A 
ATOM     12  C   LIG    1       24.022 -20.483   6.017  0.00  0.00    +0.080 A 
ATOM     13  C   LIG    1       22.775 -19.938   5.647  0.00  0.00    +0.017 A 
ATOM     14  C   LIG    1       22.633 -19.230   4.457  0.00  0.00    +0.001 A 
ATOM     15  C   LIG    1       23.730 -19.081   3.619  0.00  0.00    +0.002 A 
ATOM     16  C   LIG    1       24.973 -19.607   3.988  0.00  0.00    +0.024 A 
BRANCH  12  17
ATOM     17  C   LIG    1       24.008 -21.291   7.264  0.00  0.00    +0.339 C 
ATOM     18  O   LIG    1       23.407 -22.331   7.427  0.00  0.00    -0.245 OA
BRANCH  17  19
ATOM     19  O   LIG    1       24.708 -20.735   8.275  0.00  0.00    -0.477 OA
ATOM     20  H   LIG    1       24.925 -21.508   8.839  0.00  0.00    +0.295 HD
ENDBRANCH  17  19
ENDBRANCH  12  17
ENDBRANCH   1  11
TORSDOF 4
ENDMDL
MODEL 2
REMARK VINA RESULT:      -8.0      2.479      3.842
REMARK  Name = *****
REMARK                            x       y       z     vdW  Elec       q    Type
REMARK                         _______ _______ _______ _____ _____    ______ ____
ROOT
ATOM      1  N   LIG    1       26.035 -21.924   7.510  0.00  0.00    -0.314 N 
ATOM      2  H   LIG    1       25.324 -21.238   7.767  0.00  0.00    +0.152 HD
ENDROOT
BRANCH   1   5
ATOM      3  C   LIG    1       26.359 -20.000   5.280  0.00  0.00    +0.047 C 
ATOM      4  C   LIG    1       27.459 -20.347   6.251  0.00  0.00    -0.011 A 
ATOM      5  C   LIG    1       27.301 -21.331   7.261  0.00  0.00    +0.036 A 
ATOM      6  C   LIG    1       28.418 -21.646   8.058  0.00  0.00    +0.023 A 
ATOM      7  C   LIG    1       29.634 -20.971   7.930  0.00  0.00    +0.003 A 
ATOM      8  C   LIG    1       29.761 -19.954   6.998  0.00  0.00    +0.020 A 
ATOM      9  C   LIG    1       28.687 -19.649   6.161  0.00  0.00    +0.046 A 
ATOM     10 CL   LIG    1       28.925 -18.361   5.026  0.00  0.00    -0.083 Cl
ENDBRANCH   1   5
BRANCH   1  11
ATOM     11  C   LIG    1       25.449 -23.143   7.076  0.00  0.00    +0.045 A 
ATOM     12  C   LIG    1       24.078 -23.245   6.745  0.00  0.00    +0.080 A 
ATOM     13  C   LIG    1       23.535 -24.466   6.293  0.00  0.00    +0.017 A 
ATOM     14  C   LIG    1       24.329 -25.605   6.198  0.00  0.00    +0.001 A 
ATOM     15  C   LIG    1       25.664 -25.537   6.574  0.00  0.00    +0.002 A 
ATOM     16  C   LIG    1       26.211 -24.325   7.009  0.00  0.00    +0.024 A 
BRANCH  12  17
ATOM     17  C   LIG    1       23.098 -22.137   6.885  0.00  0.00    +0.339 C 
ATOM     18  O   LIG    1       23.010 -21.385   7.832  0.00  0.00    -0.245 OA
BRANCH  17  19
ATOM     19  O   LIG    1       22.233 -22.049   5.853  0.00  0.00    -0.477 OA
ATOM     20  H   LIG    1       21.961 -21.106   5.878  0.00  0.00    +0.295 HD
ENDBRANCH  17  19
ENDBRANCH  12  17
ENDBRANCH   1  11
TORSDOF 4
ENDMDL
MODEL 3
REMARK VINA RESULT:      -8.0      2.633      5.307
REMARK  Name = *****
REMARK                            x       y       z     vdW  Elec       q    Type
REMARK                         _______ _______ _______ _____ _____    ______ ____
ROOT
ATOM      1  N   LIG    1       26.960 -20.558   5.102  0.00  0.00    -0.314 N 
ATOM      2  H   LIG    1       27.374 -21.277   4.507  0.00  0.00    +0.152 HD
ENDROOT
BRANCH   1   5
ATOM      3  C   LIG    1       24.554 -22.232   5.537  0.00  0.00    +0.047 C 
ATOM      4  C   LIG    1       24.518 -20.867   4.898  0.00  0.00    -0.011 A 
ATOM      5  C   LIG    1       25.694 -20.120   4.629  0.00  0.00    +0.036 A 
ATOM      6  C   LIG    1       25.559 -18.897   3.947  0.00  0.00    +0.023 A 
ATOM      7  C   LIG    1       24.311 -18.374   3.601  0.00  0.00    +0.003 A 
ATOM      8  C   LIG    1       23.159 -19.067   3.937  0.00  0.00    +0.020 A 
ATOM      9  C   LIG    1       23.260 -20.304   4.573  0.00  0.00    +0.046 A 
ATOM     10 CL   LIG    1       21.773 -21.104   4.963  0.00  0.00    -0.083 Cl
ENDBRANCH   1   5
BRANCH   1  11
ATOM     11  C   LIG    1       27.936 -19.943   5.930  0.00  0.00    +0.045 A 
ATOM     12  C   LIG    1       28.009 -20.188   7.321  0.00  0.00    +0.080 A 
ATOM     13  C   LIG    1       29.009 -19.580   8.108  0.00  0.00    +0.017 A 
ATOM     14  C   LIG    1       29.920 -18.695   7.540  0.00  0.00    +0.001 A 
ATOM     15  C   LIG    1       29.826 -18.397   6.187  0.00  0.00    +0.002 A 
ATOM     16  C   LIG    1       28.846 -19.010   5.398  0.00  0.00    +0.024 A 
BRANCH  12  17
ATOM     17  C   LIG    1       27.049 -21.037   8.073  0.00  0.00    +0.339 C 
ATOM     18  O   LIG    1       26.373 -20.678   9.013  0.00  0.00    -0.245 OA
BRANCH  17  19
ATOM     19  O   LIG    1       27.014 -22.317   7.649  0.00  0.00    -0.477 OA
ATOM     20  H   LIG    1       26.168 -22.646   8.023  0.00  0.00    +0.295 HD
ENDBRANCH  17  19
ENDBRANCH  12  17
ENDBRANCH   1  11
TORSDOF 4
ENDMDL
MODEL 4
REMARK VINA RESULT:      -8.0      3.440      6.443
REMARK  Name = *****
REMARK                            x       y       z     vdW  Elec       q    Type
REMARK                         _______ _______ _______ _____ _____    ______ ____
ROOT
ATOM      1  N   LIG    1       28.792 -21.092   7.480  0.00  0.00    -0.314 N 
ATOM      2  H   LIG    1       29.218 -21.731   6.808  0.00  0.00    +0.152 HD
ENDROOT
BRANCH   1   5
ATOM      3  C   LIG    1       27.458 -19.778   5.184  0.00  0.00    +0.047 C 
ATOM      4  C   LIG    1       26.718 -20.525   6.266  0.00  0.00    -0.011 A 
ATOM      5  C   LIG    1       27.375 -21.076   7.397  0.00  0.00    +0.036 A 
ATOM      6  C   LIG    1       26.583 -21.675   8.395  0.00  0.00    +0.023 A 
ATOM      7  C   LIG    1       25.198 -21.803   8.265  0.00  0.00    +0.003 A 
ATOM      8  C   LIG    1       24.569 -21.336   7.122  0.00  0.00    +0.020 A 
ATOM      9  C   LIG    1       25.319 -20.697   6.135  0.00  0.00    +0.046 A 
ATOM     10 CL   LIG    1       24.457 -20.146   4.736  0.00  0.00    -0.083 Cl
ENDBRANCH   1   5
BRANCH   1  11
ATOM     11  C   LIG    1       29.731 -20.142   7.962  0.00  0.00    +0.045 A 
ATOM     12  C   LIG    1       30.864 -20.518   8.719  0.00  0.00    +0.080 A 
ATOM     13  C   LIG    1       31.791 -19.549   9.159  0.00  0.00    +0.017 A 
ATOM     14  C   LIG    1       31.590 -18.199   8.888  0.00  0.00    +0.001 A 
ATOM     15  C   LIG    1       30.452 -17.806   8.196  0.00  0.00    +0.002 A 
ATOM     16  C   LIG    1       29.538 -18.764   7.744  0.00  0.00    +0.024 A 
BRANCH  12  17
ATOM     17  C   LIG    1       31.155 -21.908   9.157  0.00  0.00    +0.339 C 
ATOM     18  O   LIG    1       30.560 -22.517  10.019  0.00  0.00    -0.245 OA
BRANCH  17  19
ATOM     19  O   LIG    1       32.217 -22.459   8.532  0.00  0.00    -0.477 OA
ATOM     20  H   LIG    1       31.803 -22.924   7.773  0.00  0.00    +0.295 HD
ENDBRANCH  17  19
ENDBRANCH  12  17
ENDBRANCH   1  11
TORSDOF 4
ENDMDL
MODEL 5
REMARK VINA RESULT:      -7.9      3.386      5.775
REMARK  Name = *****
REMARK                            x       y       z     vdW  Elec       q    Type
REMARK                         _______ _______ _______ _____ _____    ______ ____
ROOT
ATOM      1  N   LIG    1       27.468 -21.586   7.251  0.00  0.00    -0.314 N 
ATOM      2  H   LIG    1       27.944 -22.476   7.403  0.00  0.00    +0.152 HD
ENDROOT
BRANCH   1   5
ATOM      3  C   LIG    1       26.307 -24.195   6.462  0.00  0.00    +0.047 C 
ATOM      4  C   LIG    1       25.480 -22.994   6.845  0.00  0.00    -0.011 A 
ATOM      5  C   LIG    1       26.059 -21.733   7.141  0.00  0.00    +0.036 A 
ATOM      6  C   LIG    1       25.196 -20.652   7.399  0.00  0.00    +0.023 A 
ATOM      7  C   LIG    1       23.808 -20.806   7.442  0.00  0.00    +0.003 A 
ATOM      8  C   LIG    1       23.248 -22.055   7.232  0.00  0.00    +0.020 A 
ATOM      9  C   LIG    1       24.074 -23.138   6.930  0.00  0.00    +0.046 A 
ATOM     10 CL   LIG    1       23.296 -24.667   6.686  0.00  0.00    -0.083 Cl
ENDBRANCH   1   5
BRANCH   1  11
ATOM     11  C   LIG    1       28.364 -20.590   6.780  0.00  0.00    +0.045 A 
ATOM     12  C   LIG    1       29.687 -20.476   7.265  0.00  0.00    +0.080 A 
ATOM     13  C   LIG    1       30.559 -19.491   6.755  0.00  0.00    +0.017 A 
ATOM     14  C   LIG    1       30.123 -18.585   5.792  0.00  0.00    +0.001 A 
ATOM     15  C   LIG    1       28.809 -18.645   5.348  0.00  0.00    +0.002 A 
ATOM     16  C   LIG    1       27.944 -19.631   5.839  0.00  0.00    +0.024 A 
BRANCH  12  17
ATOM     17  C   LIG    1       30.256 -21.314   8.352  0.00  0.00    +0.339 C 
ATOM     18  O   LIG    1       29.619 -21.917   9.188  0.00  0.00    -0.245 OA
BRANCH  17  19
ATOM     19  O   LIG    1       31.605 -21.320   8.378  0.00  0.00    -0.477 OA
ATOM     20  H   LIG    1       31.830 -22.064   7.778  0.00  0.00    +0.295 HD
ENDBRANCH  17  19
ENDBRANCH  12  17
ENDBRANCH   1  11
TORSDOF 4
ENDMDL
MODEL 6
REMARK VINA RESULT:      -7.9      2.077      3.252
REMARK  Name = *****
REMARK                            x       y       z     vdW  Elec       q    Type
REMARK                         _______ _______ _______ _____ _____    ______ ____
ROOT
ATOM      1  N   LIG    1       27.445 -20.477   5.939  0.00  0.00    -0.314 N 
ATOM      2  H   LIG    1       27.608 -20.705   4.957  0.00  0.00    +0.152 HD
ENDROOT
BRANCH   1   5
ATOM      3  C   LIG    1       29.479 -18.329   5.774  0.00  0.00    +0.047 C 
ATOM      4  C   LIG    1       29.575 -19.501   6.718  0.00  0.00    -0.011 A 
ATOM      5  C   LIG    1       28.628 -20.557   6.721  0.00  0.00    +0.036 A 
ATOM      6  C   LIG    1       28.858 -21.650   7.578  0.00  0.00    +0.023 A 
ATOM      7  C   LIG    1       29.937 -21.683   8.465  0.00  0.00    +0.003 A 
ATOM      8  C   LIG    1       30.815 -20.613   8.517  0.00  0.00    +0.020 A 
ATOM      9  C   LIG    1       30.642 -19.535   7.649  0.00  0.00    +0.046 A 
ATOM     10 CL   LIG    1       31.780 -18.235   7.782  0.00  0.00    -0.083 Cl
ENDBRANCH   1   5
BRANCH   1  11
ATOM     11  C   LIG    1       26.069 -20.577   6.275  0.00  0.00    +0.045 A 
ATOM     12  C   LIG    1       25.043 -20.326   5.335  0.00  0.00    +0.080 A 
ATOM     13  C   LIG    1       23.686 -20.460   5.697  0.00  0.00    +0.017 A 
ATOM     14  C   LIG    1       23.328 -20.807   6.996  0.00  0.00    +0.001 A 
ATOM     15  C   LIG    1       24.321 -21.001   7.947  0.00  0.00    +0.002 A 
ATOM     16  C   LIG    1       25.669 -20.883   7.590  0.00  0.00    +0.024 A 
BRANCH  12  17
ATOM     17  C   LIG    1       25.277 -19.862   3.943  0.00  0.00    +0.339 C 
ATOM     18  O   LIG    1       24.706 -20.271   2.955  0.00  0.00    -0.245 OA
BRANCH  17  19
ATOM     19  O   LIG    1       26.257 -18.940   3.840  0.00  0.00    -0.477 OA
ATOM     20  H   LIG    1       27.061 -19.450   4.080  0.00  0.00    +0.295 HD
ENDBRANCH  17  19
ENDBRANCH  12  17
ENDBRANCH   1  11
TORSDOF 4
ENDMDL
MODEL 7
REMARK VINA RESULT:      -7.9      1.920      2.541
REMARK  Name = *****
REMARK                            x       y       z     vdW  Elec       q    Type
REMARK                         _______ _______ _______ _____ _____    ______ ____
ROOT
ATOM      1  N   LIG    1       27.024 -20.707   5.552  0.00  0.00    -0.314 N 
ATOM      2  H   LIG    1       27.236 -21.582   5.071  0.00  0.00    +0.152 HD
ENDROOT
BRANCH   1   5
ATOM      3  C   LIG    1       28.347 -21.859   7.939  0.00  0.00    +0.047 C 
ATOM      4  C   LIG    1       28.877 -20.667   7.183  0.00  0.00    -0.011 A 
ATOM      5  C   LIG    1       28.182 -20.086   6.091  0.00  0.00    +0.036 A 
ATOM      6  C   LIG    1       28.716 -18.921   5.511  0.00  0.00    +0.023 A 
ATOM      7  C   LIG    1       29.932 -18.375   5.929  0.00  0.00    +0.003 A 
ATOM      8  C   LIG    1       30.650 -18.991   6.941  0.00  0.00    +0.020 A 
ATOM      9  C   LIG    1       30.126 -20.122   7.568  0.00  0.00    +0.046 A 
ATOM     10 CL   LIG    1       31.087 -20.834   8.821  0.00  0.00    -0.083 Cl
ENDBRANCH   1   5
BRANCH   1  11
ATOM     11  C   LIG    1       25.647 -20.620   5.891  0.00  0.00    +0.045 A 
ATOM     12  C   LIG    1       24.662 -20.240   4.951  0.00  0.00    +0.080 A 
ATOM     13  C   LIG    1       23.300 -20.190   5.316  0.00  0.00    +0.017 A 
ATOM     14  C   LIG    1       22.902 -20.476   6.618  0.00  0.00    +0.001 A 
ATOM     15  C   LIG    1       23.863 -20.793   7.569  0.00  0.00    +0.002 A 
ATOM     16  C   LIG    1       25.214 -20.860   7.209  0.00  0.00    +0.024 A 
BRANCH  12  17
ATOM     17  C   LIG    1       24.952 -19.823   3.555  0.00  0.00    +0.339 C 
ATOM     18  O   LIG    1       24.494 -20.330   2.554  0.00  0.00    -0.245 OA
BRANCH  17  19
ATOM     19  O   LIG    1       25.849 -18.817   3.468  0.00  0.00    -0.477 OA
ATOM     20  H   LIG    1       25.884 -18.480   4.390  0.00  0.00    +0.295 HD
ENDBRANCH  17  19
ENDBRANCH  12  17
ENDBRANCH   1  11
TORSDOF 4
ENDMDL
MODEL 8
REMARK VINA RESULT:      -7.8      2.707      5.651
REMARK  Name = *****
REMARK                            x       y       z     vdW  Elec       q    Type
REMARK                         _______ _______ _______ _____ _____    ______ ____
ROOT
ATOM      1  N   LIG    1       26.562 -20.517   4.984  0.00  0.00    -0.314 N 
ATOM      2  H   LIG    1       26.805 -20.722   4.014  0.00  0.00    +0.152 HD
ENDROOT
BRANCH   1   5
ATOM      3  C   LIG    1       25.107 -18.393   3.516  0.00  0.00    +0.047 C 
ATOM      4  C   LIG    1       24.435 -19.396   4.420  0.00  0.00    -0.011 A 
ATOM      5  C   LIG    1       25.164 -20.352   5.172  0.00  0.00    +0.036 A 
ATOM      6  C   LIG    1       24.449 -21.184   6.055  0.00  0.00    +0.023 A 
ATOM      7  C   LIG    1       23.056 -21.141   6.149  0.00  0.00    +0.003 A 
ATOM      8  C   LIG    1       22.340 -20.262   5.353  0.00  0.00    +0.020 A 
ATOM      9  C   LIG    1       23.021 -19.392   4.501  0.00  0.00    +0.046 A 
ATOM     10 CL   LIG    1       22.052 -18.328   3.536  0.00  0.00    -0.083 Cl
ENDBRANCH   1   5
BRANCH   1  11
ATOM     11  C   LIG    1       27.686 -20.048   5.714  0.00  0.00    +0.045 A 
ATOM     12  C   LIG    1       28.075 -20.619   6.947  0.00  0.00    +0.080 A 
ATOM     13  C   LIG    1       29.214 -20.146   7.633  0.00  0.00    +0.017 A 
ATOM     14  C   LIG    1       29.956 -19.083   7.128  0.00  0.00    +0.001 A 
ATOM     15  C   LIG    1       29.554 -18.472   5.948  0.00  0.00    +0.002 A 
ATOM     16  C   LIG    1       28.434 -18.947   5.256  0.00  0.00    +0.024 A 
BRANCH  12  17
ATOM     17  C   LIG    1       27.326 -21.696   7.646  0.00  0.00    +0.339 C 
ATOM     18  O   LIG    1       27.032 -22.773   7.174  0.00  0.00    -0.245 OA
BRANCH  17  19
ATOM     19  O   LIG    1       26.931 -21.358   8.891  0.00  0.00    -0.477 OA
ATOM     20  H   LIG    1       27.780 -21.155   9.340  0.00  0.00    +0.295 HD
ENDBRANCH  17  19
ENDBRANCH  12  17
ENDBRANCH   1  11
TORSDOF 4
ENDMDL
MODEL 9
REMARK VINA RESULT:      -7.8      3.716      5.948
REMARK  Name = *****
REMARK                            x       y       z     vdW  Elec       q    Type
REMARK                         _______ _______ _______ _____ _____    ______ ____
ROOT
ATOM      1  N   LIG    1       28.096 -21.888   7.725  0.00  0.00    -0.314 N 
ATOM      2  H   LIG    1       28.732 -22.581   8.122  0.00  0.00    +0.152 HD
ENDROOT
BRANCH   1   5
ATOM      3  C   LIG    1       25.702 -20.447   8.710  0.00  0.00    +0.047 C 
ATOM      4  C   LIG    1       25.638 -21.700   7.873  0.00  0.00    -0.011 A 
ATOM      5  C   LIG    1       26.799 -22.415   7.481  0.00  0.00    +0.036 A 
ATOM      6  C   LIG    1       26.627 -23.621   6.778  0.00  0.00    +0.023 A 
ATOM      7  C   LIG    1       25.365 -24.085   6.398  0.00  0.00    +0.003 A 
ATOM      8  C   LIG    1       24.238 -23.343   6.711  0.00  0.00    +0.020 A 
ATOM      9  C   LIG    1       24.371 -22.165   7.447  0.00  0.00    +0.046 A 
ATOM     10 CL   LIG    1       22.913 -21.294   7.793  0.00  0.00    -0.083 Cl
ENDBRANCH   1   5
BRANCH   1  11
ATOM     11  C   LIG    1       28.804 -20.794   7.162  0.00  0.00    +0.045 A 
ATOM     12  C   LIG    1       30.082 -20.403   7.626  0.00  0.00    +0.080 A 
ATOM     13  C   LIG    1       30.768 -19.327   7.026  0.00  0.00    +0.017 A 
ATOM     14  C   LIG    1       30.186 -18.603   5.989  0.00  0.00    +0.001 A 
ATOM     15  C   LIG    1       28.908 -18.935   5.561  0.00  0.00    +0.002 A 
ATOM     16  C   LIG    1       28.229 -20.012   6.143  0.00  0.00    +0.024 A 
BRANCH  12  17
ATOM     17  C   LIG    1       30.781 -21.027   8.779  0.00  0.00    +0.339 C 
ATOM     18  O   LIG    1       30.373 -21.963   9.432  0.00  0.00    -0.245 OA
BRANCH  17  19
ATOM     19  O   LIG    1       31.941 -20.418   9.100  0.00  0.00    -0.477 OA
ATOM     20  H   LIG    1       31.652 -19.508   9.328  0.00  0.00    +0.295 HD
ENDBRANCH  17  19
ENDBRANCH  12  17
ENDBRANCH   1  11
TORSDOF 4
ENDMDL
