MODEL 1
REMARK VINA RESULT:       2.1      0.000      0.000
REMARK  Name = *****
REMARK                            x       y       z     vdW  Elec       q    Type
REMARK                         _______ _______ _______ _____ _____    ______ ____
ROOT
ATOM      1  C   LIG    1       24.462 -14.253   4.150  0.00  0.00    +0.125 A 
ATOM      2  C   LIG    1       25.572 -14.619   3.388  0.00  0.00    +0.069 A 
ATOM      3 CL   LIG    1       26.833 -13.531   2.930  0.00  0.00    -0.082 Cl
ATOM      4  C   LIG    1       25.702 -15.948   2.950  0.00  0.00    +0.047 A 
ATOM      5  C   LIG    1       24.762 -16.930   3.291  0.00  0.00    +0.057 A 
ATOM      6  N   LIG    1       24.942 -18.237   2.848  0.00  0.00    -0.326 N 
ATOM      7  H   LIG    1       25.884 -18.447   2.532  0.00  0.00    +0.148 HD
ATOM      8  C   LIG    1       24.326 -19.320   3.595  0.00  0.00    +0.163 C 
ATOM      9  N   LIG    1       22.890 -19.101   3.633  0.00  0.00    -0.170 NA
ATOM     10  H   LIG    1       22.396 -19.880   4.062  0.00  0.00    +0.150 HD
ATOM     11  S   LIG    1       22.381 -17.685   4.365  0.00  0.00    +0.062 S 
ATOM     12  O   LIG    1       22.417 -17.928   5.791  0.00  0.00    -0.153 OA
ATOM     13  O   LIG    1       21.162 -17.274   3.707  0.00  0.00    -0.153 OA
ATOM     14  C   LIG    1       23.635 -16.517   3.997  0.00  0.00    +0.128 A 
ATOM     15  C   LIG    1       23.477 -15.201   4.443  0.00  0.00    +0.060 A 
ENDROOT
BRANCH   8  16
ATOM     16  C   LIG    1       24.984 -19.522   4.975  0.00  0.00    +0.033 C 
ATOM     17  C   LIG    1       26.448 -20.051   4.885  0.00  0.00    +0.018 C 
ATOM     18  C   LIG    1       26.252 -21.571   4.894  0.00  0.00    +0.015 C 
ATOM     19  C   LIG    1       25.477 -21.564   6.213  0.00  0.00    +0.012 C 
ATOM     20  C   LIG    1       26.459 -20.792   7.061  0.00  0.00    -0.027 C 
ATOM     21  C   LIG    1       27.056 -19.895   6.262  0.00  0.00    -0.027 C 
ATOM     22  C   LIG    1       24.302 -20.632   5.848  0.00  0.00    +0.015 C 
ENDBRANCH   8  16
BRANCH   1  23
ATOM     23  S   LIG    1       24.282 -12.627   4.812  0.00  0.00    +0.057 S 
ATOM     24  O   LIG    1       23.073 -12.577   5.600  0.00  0.00    -0.153 OA
ATOM     25  O   LIG    1       25.552 -12.190   5.341  0.00  0.00    -0.153 OA
BRANCH  23  26
ATOM     26  N   LIG    1       23.951 -11.689   3.462  0.00  0.00    -0.203 NA
ATOM     27  H   LIG    1       22.945 -11.544   3.377  0.00  0.00    +0.144 HD
ATOM     28  H   LIG    1       24.490 -10.822   3.499  0.00  0.00    +0.144 HD
ENDBRANCH  23  26
ENDBRANCH   1  23
TORSDOF 3
ENDMDL
MODEL 2
REMARK VINA RESULT:       3.8      1.528      1.806
REMARK  Name = *****
REMARK                            x       y       z     vdW  Elec       q    Type
REMARK                         _______ _______ _______ _____ _____    ______ ____
ROOT
ATOM      1  C   LIG    1       25.795 -14.380   4.344  0.00  0.00    +0.125 A 
ATOM      2  C   LIG    1       26.706 -15.195   3.671  0.00  0.00    +0.069 A 
ATOM      3 CL   LIG    1       28.354 -14.767   3.380  0.00  0.00    -0.082 Cl
ATOM      4  C   LIG    1       26.289 -16.446   3.186  0.00  0.00    +0.047 A 
ATOM      5  C   LIG    1       24.986 -16.918   3.394  0.00  0.00    +0.057 A 
ATOM      6  N   LIG    1       24.623 -18.171   2.910  0.00  0.00    -0.326 N 
ATOM      7  H   LIG    1       25.407 -18.772   2.672  0.00  0.00    +0.148 HD
ATOM      8  C   LIG    1       23.525 -18.877   3.547  0.00  0.00    +0.163 C 
ATOM      9  N   LIG    1       22.332 -18.051   3.463  0.00  0.00    -0.170 NA
ATOM     10  H   LIG    1       21.506 -18.536   3.810  0.00  0.00    +0.150 HD
ATOM     11  S   LIG    1       22.418 -16.557   4.211  0.00  0.00    +0.062 S 
ATOM     12  O   LIG    1       22.198 -16.793   5.621  0.00  0.00    -0.153 OA
ATOM     13  O   LIG    1       21.573 -15.652   3.464  0.00  0.00    -0.153 OA
ATOM     14  C   LIG    1       24.085 -16.054   4.013  0.00  0.00    +0.128 A 
ATOM     15  C   LIG    1       24.471 -14.802   4.502  0.00  0.00    +0.060 A 
ENDROOT
BRANCH   8  16
ATOM     16  C   LIG    1       23.884 -19.348   4.971  0.00  0.00    +0.033 C 
ATOM     17  C   LIG    1       25.237 -20.120   5.038  0.00  0.00    +0.018 C 
ATOM     18  C   LIG    1       24.804 -21.570   4.801  0.00  0.00    +0.015 C 
ATOM     19  C   LIG    1       23.816 -21.571   5.969  0.00  0.00    +0.012 C 
ATOM     20  C   LIG    1       24.741 -21.090   7.061  0.00  0.00    -0.027 C 
ATOM     21  C   LIG    1       25.606 -20.231   6.501  0.00  0.00    -0.027 C 
ATOM     22  C   LIG    1       22.890 -20.407   5.560  0.00  0.00    +0.015 C 
ENDBRANCH   8  16
BRANCH   1  23
ATOM     23  S   LIG    1       26.274 -12.840   5.061  0.00  0.00    +0.057 S 
ATOM     24  O   LIG    1       27.275 -12.228   4.219  0.00  0.00    -0.153 OA
ATOM     25  O   LIG    1       25.091 -12.125   5.476  0.00  0.00    -0.153 OA
BRANCH  23  26
ATOM     26  N   LIG    1       27.100 -13.294   6.447  0.00  0.00    -0.203 NA
ATOM     27  H   LIG    1       28.088 -13.056   6.357  0.00  0.00    +0.144 HD
ATOM     28  H   LIG    1       26.652 -12.885   7.269  0.00  0.00    +0.144 HD
ENDBRANCH  23  26
ENDBRANCH   1  23
TORSDOF 3
ENDMDL
