MODEL 1
REMARK VINA RESULT:      -4.9      0.000      0.000
REMARK  Name = *****
REMARK                            x       y       z     vdW  Elec       q    Type
REMARK                         _______ _______ _______ _____ _____    ______ ____
ROOT
ATOM      1  O   LIG    1       32.316 -20.724   9.425  0.00  0.00    -0.619 OA
ATOM      2  N   LIG    1       31.245 -20.403   8.813  0.00  0.00    -0.165 NA
ATOM      3  C   LIG    1       30.899 -19.074   8.525  0.00  0.00    +0.251 C 
ATOM      4  C   LIG    1       29.698 -18.800   7.847  0.00  0.00    +0.087 C 
ATOM      5  C   LIG    1       28.851 -19.836   7.457  0.00  0.00    +0.013 C 
ATOM      6  C   LIG    1       29.190 -21.151   7.740  0.00  0.00    +0.071 C 
ATOM      7  C   LIG    1       30.380 -21.416   8.413  0.00  0.00    +0.323 C 
ENDROOT
BRANCH   3   8
ATOM      8  S   LIG    1       31.965 -17.723   9.019  0.00  0.00    -0.073 S 
ATOM      9  H   LIG    1       31.010 -16.884   9.440  0.00  0.00    +0.113 HD
ENDBRANCH   3   8
TORSDOF 1
ENDMDL
MODEL 2
REMARK VINA RESULT:      -4.8      6.411      7.049
REMARK  Name = *****
REMARK                            x       y       z     vdW  Elec       q    Type
REMARK                         _______ _______ _______ _____ _____    ______ ____
ROOT
ATOM      1  O   LIG    1       23.183 -21.020   7.635  0.00  0.00    -0.619 OA
ATOM      2  N   LIG    1       23.870 -22.063   7.377  0.00  0.00    -0.165 NA
ATOM      3  C   LIG    1       25.250 -22.146   7.616  0.00  0.00    +0.251 C 
ATOM      4  C   LIG    1       25.940 -23.332   7.303  0.00  0.00    +0.087 C 
ATOM      5  C   LIG    1       25.262 -24.424   6.762  0.00  0.00    +0.013 C 
ATOM      6  C   LIG    1       23.898 -24.344   6.526  0.00  0.00    +0.071 C 
ATOM      7  C   LIG    1       23.222 -23.167   6.835  0.00  0.00    +0.323 C 
ENDROOT
BRANCH   3   8
ATOM      8  S   LIG    1       26.147 -20.757   8.305  0.00  0.00    -0.073 S 
ATOM      9  H   LIG    1       25.149 -19.865   8.273  0.00  0.00    +0.113 HD
ENDBRANCH   3   8
TORSDOF 1
ENDMDL
MODEL 3
REMARK VINA RESULT:      -4.8      0.995      1.078
REMARK  Name = *****
REMARK                            x       y       z     vdW  Elec       q    Type
REMARK                         _______ _______ _______ _____ _____    ______ ____
ROOT
ATOM      1  O   LIG    1       30.841 -20.867   9.578  0.00  0.00    -0.619 OA
ATOM      2  N   LIG    1       30.273 -20.401   8.536  0.00  0.00    -0.165 NA
ATOM      3  C   LIG    1       30.544 -19.123   8.025  0.00  0.00    +0.251 C 
ATOM      4  C   LIG    1       29.874 -18.679   6.870  0.00  0.00    +0.087 C 
ATOM      5  C   LIG    1       28.948 -19.501   6.228  0.00  0.00    +0.013 C 
ATOM      6  C   LIG    1       28.679 -20.765   6.731  0.00  0.00    +0.071 C 
ATOM      7  C   LIG    1       29.343 -21.197   7.875  0.00  0.00    +0.323 C 
ENDROOT
BRANCH   3   8
ATOM      8  S   LIG    1       31.724 -18.045   8.832  0.00  0.00    -0.073 S 
ATOM      9  H   LIG    1       32.428 -18.991   9.467  0.00  0.00    +0.113 HD
ENDBRANCH   3   8
TORSDOF 1
ENDMDL
MODEL 4
REMARK VINA RESULT:      -4.6      1.850      2.477
REMARK  Name = *****
REMARK                            x       y       z     vdW  Elec       q    Type
REMARK                         _______ _______ _______ _____ _____    ______ ____
ROOT
ATOM      1  O   LIG    1       32.232 -19.338   9.230  0.00  0.00    -0.619 OA
ATOM      2  N   LIG    1       31.254 -19.528   8.435  0.00  0.00    -0.165 NA
ATOM      3  C   LIG    1       30.587 -20.757   8.324  0.00  0.00    +0.251 C 
ATOM      4  C   LIG    1       29.517 -20.889   7.421  0.00  0.00    +0.087 C 
ATOM      5  C   LIG    1       29.112 -19.808   6.639  0.00  0.00    +0.013 C 
ATOM      6  C   LIG    1       29.769 -18.591   6.747  0.00  0.00    +0.071 C 
ATOM      7  C   LIG    1       30.829 -18.468   7.641  0.00  0.00    +0.323 C 
ENDROOT
BRANCH   3   8
ATOM      8  S   LIG    1       31.089 -22.164   9.312  0.00  0.00    -0.073 S 
ATOM      9  H   LIG    1       30.613 -23.126   8.511  0.00  0.00    +0.113 HD
ENDBRANCH   3   8
TORSDOF 1
ENDMDL
MODEL 5
REMARK VINA RESULT:      -4.6      6.978      7.555
REMARK  Name = *****
REMARK                            x       y       z     vdW  Elec       q    Type
REMARK                         _______ _______ _______ _____ _____    ______ ____
ROOT
ATOM      1  O   LIG    1       22.854 -24.286   6.726  0.00  0.00    -0.619 OA
ATOM      2  N   LIG    1       23.685 -23.338   6.915  0.00  0.00    -0.165 NA
ATOM      3  C   LIG    1       25.075 -23.522   6.872  0.00  0.00    +0.251 C 
ATOM      4  C   LIG    1       25.928 -22.425   7.093  0.00  0.00    +0.087 C 
ATOM      5  C   LIG    1       25.404 -21.159   7.349  0.00  0.00    +0.013 C 
ATOM      6  C   LIG    1       24.029 -20.975   7.390  0.00  0.00    +0.071 C 
ATOM      7  C   LIG    1       23.191 -22.065   7.174  0.00  0.00    +0.323 C 
ENDROOT
BRANCH   3   8
ATOM      8  S   LIG    1       25.777 -25.138   6.552  0.00  0.00    -0.073 S 
ATOM      9  H   LIG    1       25.213 -25.786   7.578  0.00  0.00    +0.113 HD
ENDBRANCH   3   8
TORSDOF 1
ENDMDL
MODEL 6
REMARK VINA RESULT:      -4.6      6.677      7.335
REMARK  Name = *****
REMARK                            x       y       z     vdW  Elec       q    Type
REMARK                         _______ _______ _______ _____ _____    ______ ____
ROOT
ATOM      1  O   LIG    1       23.340 -21.045   7.582  0.00  0.00    -0.619 OA
ATOM      2  N   LIG    1       23.677 -20.601   6.435  0.00  0.00    -0.165 NA
ATOM      3  C   LIG    1       24.969 -20.749   5.910  0.00  0.00    +0.251 C 
ATOM      4  C   LIG    1       25.265 -20.230   4.636  0.00  0.00    +0.087 C 
ATOM      5  C   LIG    1       24.284 -19.575   3.892  0.00  0.00    +0.013 C 
ATOM      6  C   LIG    1       23.005 -19.429   4.409  0.00  0.00    +0.071 C 
ATOM      7  C   LIG    1       22.720 -19.942   5.671  0.00  0.00    +0.323 C 
ENDROOT
BRANCH   3   8
ATOM      8  S   LIG    1       26.250 -21.580   6.845  0.00  0.00    -0.073 S 
ATOM      9  H   LIG    1       26.129 -22.789   6.283  0.00  0.00    +0.113 HD
ENDBRANCH   3   8
TORSDOF 1
ENDMDL
MODEL 7
REMARK VINA RESULT:      -4.5      7.072      7.644
REMARK  Name = *****
REMARK                            x       y       z     vdW  Elec       q    Type
REMARK                         _______ _______ _______ _____ _____    ______ ____
ROOT
ATOM      1  O   LIG    1       25.845 -21.383   5.615  0.00  0.00    -0.619 OA
ATOM      2  N   LIG    1       24.880 -20.646   5.226  0.00  0.00    -0.165 NA
ATOM      3  C   LIG    1       23.628 -20.630   5.858  0.00  0.00    +0.251 C 
ATOM      4  C   LIG    1       22.612 -19.790   5.367  0.00  0.00    +0.087 C 
ATOM      5  C   LIG    1       22.841 -18.972   4.261  0.00  0.00    +0.013 C 
ATOM      6  C   LIG    1       24.078 -18.986   3.634  0.00  0.00    +0.071 C 
ATOM      7  C   LIG    1       25.079 -19.821   4.124  0.00  0.00    +0.323 C 
ENDROOT
BRANCH   3   8
ATOM      8  S   LIG    1       23.304 -21.673   7.277  0.00  0.00    -0.073 S 
ATOM      9  H   LIG    1       24.308 -22.540   7.096  0.00  0.00    +0.113 HD
ENDBRANCH   3   8
TORSDOF 1
ENDMDL
MODEL 8
REMARK VINA RESULT:      -4.5      5.833      6.489
REMARK  Name = *****
REMARK                            x       y       z     vdW  Elec       q    Type
REMARK                         _______ _______ _______ _____ _____    ______ ____
ROOT
ATOM      1  O   LIG    1       26.955 -20.314   5.669  0.00  0.00    -0.619 OA
ATOM      2  N   LIG    1       25.688 -20.414   5.770  0.00  0.00    -0.165 NA
ATOM      3  C   LIG    1       25.038 -20.686   6.983  0.00  0.00    +0.251 C 
ATOM      4  C   LIG    1       23.635 -20.784   7.014  0.00  0.00    +0.087 C 
ATOM      5  C   LIG    1       22.887 -20.608   5.850  0.00  0.00    +0.013 C 
ATOM      6  C   LIG    1       23.527 -20.338   4.649  0.00  0.00    +0.071 C 
ATOM      7  C   LIG    1       24.916 -20.246   4.626  0.00  0.00    +0.323 C 
ENDROOT
BRANCH   3   8
ATOM      8  S   LIG    1       25.974 -20.922   8.492  0.00  0.00    -0.073 S 
ATOM      9  H   LIG    1       26.112 -19.632   8.822  0.00  0.00    +0.113 HD
ENDBRANCH   3   8
TORSDOF 1
ENDMDL
MODEL 9
REMARK VINA RESULT:      -4.5      5.905      6.439
REMARK  Name = *****
REMARK                            x       y       z     vdW  Elec       q    Type
REMARK                         _______ _______ _______ _____ _____    ______ ____
ROOT
ATOM      1  O   LIG    1       25.595 -20.309   4.270  0.00  0.00    -0.619 OA
ATOM      2  N   LIG    1       25.635 -20.454   5.535  0.00  0.00    -0.165 NA
ATOM      3  C   LIG    1       24.496 -20.724   6.309  0.00  0.00    +0.251 C 
ATOM      4  C   LIG    1       24.621 -20.870   7.703  0.00  0.00    +0.087 C 
ATOM      5  C   LIG    1       25.866 -20.753   8.319  0.00  0.00    +0.013 C 
ATOM      6  C   LIG    1       26.994 -20.487   7.556  0.00  0.00    +0.071 C 
ATOM      7  C   LIG    1       26.863 -20.341   6.178  0.00  0.00    +0.323 C 
ENDROOT
BRANCH   3   8
ATOM      8  S   LIG    1       22.884 -20.874   5.545  0.00  0.00    -0.073 S 
ATOM      9  H   LIG    1       22.816 -19.643   5.023  0.00  0.00    +0.113 HD
ENDBRANCH   3   8
TORSDOF 1
ENDMDL
