MODEL 1
REMARK VINA RESULT:      -9.4      0.000      0.000
REMARK  Name = *****
REMARK                            x       y       z     vdW  Elec       q    Type
REMARK                         _______ _______ _______ _____ _____    ______ ____
ROOT
ATOM      1  C   LIG    1       26.540 -21.334   6.974  0.00  0.00    +0.129 C 
ATOM      2  C   LIG    1       25.545 -20.734   6.044  0.00  0.00    +0.032 A 
ATOM      3  C   LIG    1       24.155 -20.963   6.127  0.00  0.00    +0.024 A 
ATOM      4  C   LIG    1       23.280 -20.346   5.216  0.00  0.00    +0.017 A 
ATOM      5  C   LIG    1       23.774 -19.521   4.207  0.00  0.00    +0.021 A 
ATOM      6  C   LIG    1       25.144 -19.300   4.112  0.00  0.00    +0.042 A 
ATOM      7 CL   LIG    1       25.759 -18.304   2.852  0.00  0.00    -0.084 Cl
ATOM      8  S   LIG    1       23.414 -22.061   7.336  0.00  0.00    -0.088 S 
ATOM      9  C   LIG    1       24.229 -23.575   6.840  0.00  0.00    +0.020 A 
ATOM     10  C   LIG    1       25.629 -23.696   6.814  0.00  0.00    -0.008 A 
ATOM     11  C   LIG    1       26.200 -24.911   6.404  0.00  0.00    +0.009 A 
ATOM     12  C   LIG    1       25.399 -25.988   6.022  0.00  0.00    +0.001 A 
ATOM     13  C   LIG    1       24.013 -25.867   6.058  0.00  0.00    +0.001 A 
ATOM     14  C   LIG    1       23.429 -24.666   6.464  0.00  0.00    +0.015 A 
ATOM     15  C   LIG    1       26.021 -19.889   5.023  0.00  0.00    +0.032 A 
ATOM     16  C   LIG    1       26.553 -22.644   7.283  0.00  0.00    +0.055 C 
ENDROOT
BRANCH   1  17
ATOM     17  O   LIG    1       27.467 -20.400   7.428  0.00  0.00    -0.490 OA
BRANCH  17  18
ATOM     18  C   LIG    1       28.791 -20.863   7.733  0.00  0.00    +0.244 C 
BRANCH  18  19
ATOM     19  C   LIG    1       29.834 -19.939   7.070  0.00  0.00    +0.124 C 
BRANCH  19  21
ATOM     20  C   LIG    1       31.606 -18.682   8.167  0.00  0.00    +0.104 C 
ATOM     21  N   LIG    1       31.177 -19.999   7.691  0.00  0.00    -0.305 NA
ATOM     22  C   LIG    1       31.184 -20.941   8.817  0.00  0.00    +0.104 C 
ENDBRANCH  19  21
ENDBRANCH  18  19
ENDBRANCH  17  18
ENDBRANCH   1  17
TORSDOF 4
ENDMDL
MODEL 2
REMARK VINA RESULT:      -7.6      3.340      6.098
REMARK  Name = *****
REMARK                            x       y       z     vdW  Elec       q    Type
REMARK                         _______ _______ _______ _____ _____    ______ ____
ROOT
ATOM      1  C   LIG    1       25.311 -23.020   5.725  0.00  0.00    +0.129 C 
ATOM      2  C   LIG    1       25.886 -22.139   6.779  0.00  0.00    +0.032 A 
ATOM      3  C   LIG    1       25.113 -21.290   7.600  0.00  0.00    +0.024 A 
ATOM      4  C   LIG    1       25.734 -20.499   8.583  0.00  0.00    +0.017 A 
ATOM      5  C   LIG    1       27.119 -20.524   8.743  0.00  0.00    +0.021 A 
ATOM      6  C   LIG    1       27.887 -21.350   7.929  0.00  0.00    +0.042 A 
ATOM      7 CL   LIG    1       29.598 -21.364   8.106  0.00  0.00    -0.084 Cl
ATOM      8  S   LIG    1       23.336 -21.121   7.435  0.00  0.00    -0.088 S 
ATOM      9  C   LIG    1       23.291 -20.509   5.754  0.00  0.00    +0.020 A 
ATOM     10  C   LIG    1       23.848 -21.228   4.683  0.00  0.00    -0.008 A 
ATOM     11  C   LIG    1       23.787 -20.683   3.391  0.00  0.00    +0.009 A 
ATOM     12  C   LIG    1       23.187 -19.444   3.163  0.00  0.00    +0.001 A 
ATOM     13  C   LIG    1       22.628 -18.739   4.225  0.00  0.00    +0.001 A 
ATOM     14  C   LIG    1       22.680 -19.268   5.516  0.00  0.00    +0.015 A 
ATOM     15  C   LIG    1       27.282 -22.156   6.965  0.00  0.00    +0.032 A 
ATOM     16  C   LIG    1       24.424 -22.582   4.813  0.00  0.00    +0.055 C 
ENDROOT
BRANCH   1  17
ATOM     17  O   LIG    1       25.839 -24.307   5.769  0.00  0.00    -0.490 OA
BRANCH  17  18
ATOM     18  C   LIG    1       25.141 -25.342   5.061  0.00  0.00    +0.244 C 
BRANCH  18  19
ATOM     19  C   LIG    1       24.170 -26.067   6.017  0.00  0.00    +0.124 C 
BRANCH  19  21
ATOM     20  C   LIG    1       24.807 -28.230   5.100  0.00  0.00    +0.104 C 
ATOM     21  N   LIG    1       24.552 -27.465   6.323  0.00  0.00    -0.305 NA
ATOM     22  C   LIG    1       25.752 -27.499   7.168  0.00  0.00    +0.104 C 
ENDBRANCH  19  21
ENDBRANCH  18  19
ENDBRANCH  17  18
ENDBRANCH   1  17
TORSDOF 4
ENDMDL
MODEL 3
REMARK VINA RESULT:      -7.2      3.271      6.499
REMARK  Name = *****
REMARK                            x       y       z     vdW  Elec       q    Type
REMARK                         _______ _______ _______ _____ _____    ______ ____
ROOT
ATOM      1  C   LIG    1       24.825 -21.258   5.103  0.00  0.00    +0.129 C 
ATOM      2  C   LIG    1       25.128 -22.562   5.754  0.00  0.00    +0.032 A 
ATOM      3  C   LIG    1       25.523 -22.693   7.103  0.00  0.00    +0.024 A 
ATOM      4  C   LIG    1       25.778 -23.965   7.645  0.00  0.00    +0.017 A 
ATOM      5  C   LIG    1       25.667 -25.108   6.855  0.00  0.00    +0.021 A 
ATOM      6  C   LIG    1       25.289 -24.984   5.522  0.00  0.00    +0.042 A 
ATOM      7 CL   LIG    1       25.176 -26.390   4.537  0.00  0.00    -0.084 Cl
ATOM      8  S   LIG    1       25.770 -21.290   8.191  0.00  0.00    -0.088 S 
ATOM      9  C   LIG    1       27.075 -20.479   7.274  0.00  0.00    +0.020 A 
ATOM     10  C   LIG    1       26.912 -20.080   5.937  0.00  0.00    -0.008 A 
ATOM     11  C   LIG    1       27.982 -19.459   5.275  0.00  0.00    +0.009 A 
ATOM     12  C   LIG    1       29.198 -19.240   5.925  0.00  0.00    +0.001 A 
ATOM     13  C   LIG    1       29.353 -19.629   7.252  0.00  0.00    +0.001 A 
ATOM     14  C   LIG    1       28.297 -20.247   7.925  0.00  0.00    +0.015 A 
ATOM     15  C   LIG    1       25.012 -23.730   4.977  0.00  0.00    +0.032 A 
ATOM     16  C   LIG    1       25.638 -20.189   5.197  0.00  0.00    +0.055 C 
ENDROOT
BRANCH   1  17
ATOM     17  O   LIG    1       23.651 -21.301   4.357  0.00  0.00    -0.490 OA
BRANCH  17  18
ATOM     18  C   LIG    1       22.425 -20.948   5.015  0.00  0.00    +0.244 C 
BRANCH  18  19
ATOM     19  C   LIG    1       22.446 -19.452   5.393  0.00  0.00    +0.124 C 
BRANCH  19  21
ATOM     20  C   LIG    1       20.959 -18.750   3.599  0.00  0.00    +0.104 C 
ATOM     21  N   LIG    1       22.255 -18.535   4.246  0.00  0.00    -0.305 NA
ATOM     22  C   LIG    1       22.347 -17.136   4.683  0.00  0.00    +0.104 C 
ENDBRANCH  19  21
ENDBRANCH  18  19
ENDBRANCH  17  18
ENDBRANCH   1  17
TORSDOF 4
ENDMDL
