MODEL 1
REMARK VINA RESULT:      -4.7      0.000      0.000
REMARK  Name = *****
REMARK                            x       y       z     vdW  Elec       q    Type
REMARK                         _______ _______ _______ _____ _____    ______ ____
ROOT
ATOM      1  C   LIG    1       23.639 -21.365   5.725  0.00  0.00    +0.161 C 
ENDROOT
BRANCH   1   2
ATOM      2  C   LIG    1       25.062 -20.843   5.818  0.00  0.00    -0.018 A 
ATOM      3  C   LIG    1       25.643 -20.182   4.725  0.00  0.00    +0.010 A 
ATOM      4  C   LIG    1       26.948 -19.695   4.797  0.00  0.00    +0.046 A 
ATOM      5  C   LIG    1       27.684 -19.866   5.967  0.00  0.00    +0.117 A 
ATOM      6  C   LIG    1       27.132 -20.520   7.062  0.00  0.00    +0.046 A 
ATOM      7  C   LIG    1       25.825 -21.007   6.989  0.00  0.00    +0.010 A 
BRANCH   5   8
ATOM      8  O   LIG    1       28.953 -19.373   5.993  0.00  0.00    -0.507 OA
ATOM      9  H   LIG    1       28.912 -18.417   6.168  0.00  0.00    +0.292 HD
ENDBRANCH   5   8
ENDBRANCH   1   2
BRANCH   1  10
ATOM     10  C   LIG    1       22.682 -20.486   4.857  0.00  0.00    +0.083 C 
ATOM     11  C   LIG    1       21.381 -21.214   4.506  0.00  0.00    +0.027 C 
BRANCH  10  13
ATOM     12  C   LIG    1       22.206 -18.087   4.445  0.00  0.00    +0.101 C 
ATOM     13  N   LIG    1       22.410 -19.141   5.430  0.00  0.00    -0.314 NA
ATOM     14  H   LIG    1       21.556 -19.228   5.989  0.00  0.00    +0.122 HD
ENDBRANCH  10  13
ENDBRANCH   1  10
BRANCH   1  15
ATOM     15  O   LIG    1       23.107 -21.477   7.055  0.00  0.00    -0.386 OA
ATOM     16  H   LIG    1       22.545 -22.274   7.065  0.00  0.00    +0.210 HD
ENDBRANCH   1  15
TORSDOF 5
ENDMDL
MODEL 2
REMARK VINA RESULT:      -4.2      1.401      1.603
REMARK  Name = *****
REMARK                            x       y       z     vdW  Elec       q    Type
REMARK                         _______ _______ _______ _____ _____    ______ ____
ROOT
ATOM      1  C   LIG    1       24.120 -20.367   4.413  0.00  0.00    +0.161 C 
ENDROOT
BRANCH   1   2
ATOM      2  C   LIG    1       25.454 -20.467   5.132  0.00  0.00    -0.018 A 
ATOM      3  C   LIG    1       26.510 -19.613   4.780  0.00  0.00    +0.010 A 
ATOM      4  C   LIG    1       27.740 -19.693   5.435  0.00  0.00    +0.046 A 
ATOM      5  C   LIG    1       27.922 -20.629   6.449  0.00  0.00    +0.117 A 
ATOM      6  C   LIG    1       26.893 -21.488   6.813  0.00  0.00    +0.046 A 
ATOM      7  C   LIG    1       25.662 -21.408   6.158  0.00  0.00    +0.010 A 
BRANCH   5   8
ATOM      8  O   LIG    1       29.138 -20.669   7.061  0.00  0.00    -0.507 OA
ATOM      9  H   LIG    1       29.112 -20.093   7.843  0.00  0.00    +0.292 HD
ENDBRANCH   5   8
ENDBRANCH   1   2
BRANCH   1  10
ATOM     10  C   LIG    1       22.894 -20.136   5.354  0.00  0.00    +0.083 C 
ATOM     11  C   LIG    1       23.175 -20.574   6.795  0.00  0.00    +0.027 C 
BRANCH  10  13
ATOM     12  C   LIG    1       22.299 -18.161   3.978  0.00  0.00    +0.101 C 
ATOM     13  N   LIG    1       22.348 -18.754   5.307  0.00  0.00    -0.314 NA
ATOM     14  H   LIG    1       21.393 -18.802   5.673  0.00  0.00    +0.122 HD
ENDBRANCH  10  13
ENDBRANCH   1  10
BRANCH   1  15
ATOM     15  O   LIG    1       23.919 -21.572   3.656  0.00  0.00    -0.386 OA
ATOM     16  H   LIG    1       24.800 -21.877   3.376  0.00  0.00    +0.210 HD
ENDBRANCH   1  15
TORSDOF 5
ENDMDL
MODEL 3
REMARK VINA RESULT:      -4.1      2.408      5.119
REMARK  Name = *****
REMARK                            x       y       z     vdW  Elec       q    Type
REMARK                         _______ _______ _______ _____ _____    ______ ____
ROOT
ATOM      1  C   LIG    1       27.013 -20.059   5.009  0.00  0.00    +0.161 C 
ENDROOT
BRANCH   1   2
ATOM      2  C   LIG    1       25.526 -20.364   4.965  0.00  0.00    -0.018 A 
ATOM      3  C   LIG    1       24.853 -20.412   3.734  0.00  0.00    +0.010 A 
ATOM      4  C   LIG    1       23.488 -20.694   3.679  0.00  0.00    +0.046 A 
ATOM      5  C   LIG    1       22.784 -20.930   4.857  0.00  0.00    +0.117 A 
ATOM      6  C   LIG    1       23.427 -20.885   6.088  0.00  0.00    +0.046 A 
ATOM      7  C   LIG    1       24.795 -20.603   6.143  0.00  0.00    +0.010 A 
BRANCH   5   8
ATOM      8  O   LIG    1       21.454 -21.203   4.754  0.00  0.00    -0.507 OA
ATOM      9  H   LIG    1       21.188 -21.108   3.824  0.00  0.00    +0.292 HD
ENDBRANCH   5   8
ENDBRANCH   1   2
BRANCH   1  10
ATOM     10  C   LIG    1       27.664 -20.215   6.422  0.00  0.00    +0.083 C 
ATOM     11  C   LIG    1       27.347 -21.570   7.062  0.00  0.00    +0.027 C 
BRANCH  10  13
ATOM     12  C   LIG    1       29.475 -18.559   6.777  0.00  0.00    +0.101 C 
ATOM     13  N   LIG    1       29.123 -19.934   6.449  0.00  0.00    -0.314 NA
ATOM     14  H   LIG    1       29.527 -20.547   7.163  0.00  0.00    +0.122 HD
ENDBRANCH  10  13
ENDBRANCH   1  10
BRANCH   1  15
ATOM     15  O   LIG    1       27.218 -18.717   4.536  0.00  0.00    -0.386 OA
ATOM     16  H   LIG    1       26.339 -18.363   4.311  0.00  0.00    +0.210 HD
ENDBRANCH   1  15
TORSDOF 5
ENDMDL
MODEL 4
REMARK VINA RESULT:      -4.0      6.247      7.329
REMARK  Name = *****
REMARK                            x       y       z     vdW  Elec       q    Type
REMARK                         _______ _______ _______ _____ _____    ______ ____
ROOT
ATOM      1  C   LIG    1       25.633 -14.739   2.931  0.00  0.00    +0.161 C 
ENDROOT
BRANCH   1   2
ATOM      2  C   LIG    1       26.653 -13.941   3.724  0.00  0.00    -0.018 A 
ATOM      3  C   LIG    1       26.466 -13.729   5.099  0.00  0.00    +0.010 A 
ATOM      4  C   LIG    1       27.397 -12.999   5.840  0.00  0.00    +0.046 A 
ATOM      5  C   LIG    1       28.523 -12.477   5.210  0.00  0.00    +0.117 A 
ATOM      6  C   LIG    1       28.728 -12.670   3.850  0.00  0.00    +0.046 A 
ATOM      7  C   LIG    1       27.796 -13.400   3.108  0.00  0.00    +0.010 A 
BRANCH   5   8
ATOM      8  O   LIG    1       29.405 -11.773   5.974  0.00  0.00    -0.507 OA
ATOM      9  H   LIG    1       28.953 -10.990   6.329  0.00  0.00    +0.292 HD
ENDBRANCH   5   8
ENDBRANCH   1   2
BRANCH   1  10
ATOM     10  C   LIG    1       24.157 -14.253   3.100  0.00  0.00    +0.083 C 
ATOM     11  C   LIG    1       23.488 -14.849   4.343  0.00  0.00    +0.027 C 
BRANCH  10  13
ATOM     12  C   LIG    1       24.420 -12.151   1.812  0.00  0.00    +0.101 C 
ATOM     13  N   LIG    1       23.998 -12.776   3.058  0.00  0.00    -0.314 NA
ATOM     14  H   LIG    1       23.001 -12.584   3.192  0.00  0.00    +0.122 HD
ENDBRANCH  10  13
ENDBRANCH   1  10
BRANCH   1  15
ATOM     15  O   LIG    1       25.728 -16.118   3.323  0.00  0.00    -0.386 OA
ATOM     16  H   LIG    1       26.206 -16.579   2.609  0.00  0.00    +0.210 HD
ENDBRANCH   1  15
TORSDOF 5
ENDMDL
MODEL 5
REMARK VINA RESULT:      -3.9      4.349      5.924
REMARK  Name = *****
REMARK                            x       y       z     vdW  Elec       q    Type
REMARK                         _______ _______ _______ _____ _____    ______ ____
ROOT
ATOM      1  C   LIG    1       26.108 -17.481   3.253  0.00  0.00    +0.161 C 
ENDROOT
BRANCH   1   2
ATOM      2  C   LIG    1       25.526 -16.102   3.506  0.00  0.00    -0.018 A 
ATOM      3  C   LIG    1       26.293 -14.955   3.249  0.00  0.00    +0.010 A 
ATOM      4  C   LIG    1       25.769 -13.681   3.475  0.00  0.00    +0.046 A 
ATOM      5  C   LIG    1       24.471 -13.546   3.960  0.00  0.00    +0.117 A 
ATOM      6  C   LIG    1       23.693 -14.665   4.225  0.00  0.00    +0.046 A 
ATOM      7  C   LIG    1       24.218 -15.941   3.999  0.00  0.00    +0.010 A 
BRANCH   5   8
ATOM      8  O   LIG    1       24.002 -12.283   4.163  0.00  0.00    -0.507 OA
ATOM      9  H   LIG    1       24.387 -11.937   4.986  0.00  0.00    +0.292 HD
ENDBRANCH   5   8
ENDBRANCH   1   2
BRANCH   1  10
ATOM     10  C   LIG    1       25.362 -18.643   3.985  0.00  0.00    +0.083 C 
ATOM     11  C   LIG    1       24.150 -19.147   3.194  0.00  0.00    +0.027 C 
BRANCH  10  13
ATOM     12  C   LIG    1       25.804 -20.493   5.577  0.00  0.00    +0.101 C 
ATOM     13  N   LIG    1       26.245 -19.767   4.393  0.00  0.00    -0.314 NA
ATOM     14  H   LIG    1       26.269 -20.422   3.606  0.00  0.00    +0.122 HD
ENDBRANCH  10  13
ENDBRANCH   1  10
BRANCH   1  15
ATOM     15  O   LIG    1       27.488 -17.475   3.653  0.00  0.00    -0.386 OA
ATOM     16  H   LIG    1       27.918 -18.211   3.183  0.00  0.00    +0.210 HD
ENDBRANCH   1  15
TORSDOF 5
ENDMDL
MODEL 6
REMARK VINA RESULT:      -3.4      3.445      4.655
REMARK  Name = *****
REMARK                            x       y       z     vdW  Elec       q    Type
REMARK                         _______ _______ _______ _____ _____    ______ ____
ROOT
ATOM      1  C   LIG    1       24.386 -19.139   3.614  0.00  0.00    +0.161 C 
ENDROOT
BRANCH   1   2
ATOM      2  C   LIG    1       24.659 -17.646   3.665  0.00  0.00    -0.018 A 
ATOM      3  C   LIG    1       23.651 -16.759   4.073  0.00  0.00    +0.010 A 
ATOM      4  C   LIG    1       23.889 -15.385   4.127  0.00  0.00    +0.046 A 
ATOM      5  C   LIG    1       25.140 -14.888   3.774  0.00  0.00    +0.117 A 
ATOM      6  C   LIG    1       26.154 -15.745   3.364  0.00  0.00    +0.046 A 
ATOM      7  C   LIG    1       25.915 -17.121   3.309  0.00  0.00    +0.010 A 
BRANCH   5   8
ATOM      8  O   LIG    1       25.328 -13.541   3.844  0.00  0.00    -0.507 OA
ATOM      9  H   LIG    1       24.487 -13.099   3.639  0.00  0.00    +0.292 HD
ENDBRANCH   5   8
ENDBRANCH   1   2
BRANCH   1  10
ATOM     10  C   LIG    1       23.879 -19.751   4.960  0.00  0.00    +0.083 C 
ATOM     11  C   LIG    1       22.389 -20.105   4.913  0.00  0.00    +0.027 C 
BRANCH  10  13
ATOM     12  C   LIG    1       25.456 -20.634   6.657  0.00  0.00    +0.101 C 
ATOM     13  N   LIG    1       24.690 -20.898   5.446  0.00  0.00    -0.314 NA
ATOM     14  H   LIG    1       24.034 -21.660   5.642  0.00  0.00    +0.122 HD
ENDBRANCH  10  13
ENDBRANCH   1  10
BRANCH   1  15
ATOM     15  O   LIG    1       25.592 -19.810   3.210  0.00  0.00    -0.386 OA
ATOM     16  H   LIG    1       26.181 -19.127   2.843  0.00  0.00    +0.210 HD
ENDBRANCH   1  15
TORSDOF 5
ENDMDL
MODEL 7
REMARK VINA RESULT:      -3.4      3.552      4.617
REMARK  Name = *****
REMARK                            x       y       z     vdW  Elec       q    Type
REMARK                         _______ _______ _______ _____ _____    ______ ____
ROOT
ATOM      1  C   LIG    1       24.427 -18.748   3.534  0.00  0.00    +0.161 C 
ENDROOT
BRANCH   1   2
ATOM      2  C   LIG    1       24.858 -17.294   3.612  0.00  0.00    -0.018 A 
ATOM      3  C   LIG    1       26.174 -16.930   3.287  0.00  0.00    +0.010 A 
ATOM      4  C   LIG    1       26.582 -15.598   3.352  0.00  0.00    +0.046 A 
ATOM      5  C   LIG    1       25.675 -14.617   3.743  0.00  0.00    +0.117 A 
ATOM      6  C   LIG    1       24.368 -14.952   4.073  0.00  0.00    +0.046 A 
ATOM      7  C   LIG    1       23.959 -16.287   4.008  0.00  0.00    +0.010 A 
BRANCH   5   8
ATOM      8  O   LIG    1       26.117 -13.330   3.791  0.00  0.00    -0.507 OA
ATOM      9  H   LIG    1       25.607 -12.850   4.465  0.00  0.00    +0.292 HD
ENDBRANCH   5   8
ENDBRANCH   1   2
BRANCH   1  10
ATOM     10  C   LIG    1       23.499 -19.212   4.702  0.00  0.00    +0.083 C 
ATOM     11  C   LIG    1       22.013 -19.088   4.350  0.00  0.00    +0.027 C 
BRANCH  10  13
ATOM     12  C   LIG    1       23.416 -20.797   6.607  0.00  0.00    +0.101 C 
ATOM     13  N   LIG    1       23.817 -20.566   5.226  0.00  0.00    -0.314 NA
ATOM     14  H   LIG    1       23.320 -21.235   4.631  0.00  0.00    +0.122 HD
ENDBRANCH  10  13
ENDBRANCH   1  10
BRANCH   1  15
ATOM     15  O   LIG    1       25.604 -19.572   3.505  0.00  0.00    -0.386 OA
ATOM     16  H   LIG    1       25.594 -20.045   2.653  0.00  0.00    +0.210 HD
ENDBRANCH   1  15
TORSDOF 5
ENDMDL
MODEL 8
REMARK VINA RESULT:      -3.3      4.623      6.417
REMARK  Name = *****
REMARK                            x       y       z     vdW  Elec       q    Type
REMARK                         _______ _______ _______ _____ _____    ______ ____
ROOT
ATOM      1  C   LIG    1       25.417 -14.716   3.536  0.00  0.00    +0.161 C 
ENDROOT
BRANCH   1   2
ATOM      2  C   LIG    1       24.943 -16.156   3.630  0.00  0.00    -0.018 A 
ATOM      3  C   LIG    1       23.635 -16.441   4.050  0.00  0.00    +0.010 A 
ATOM      4  C   LIG    1       23.185 -17.759   4.139  0.00  0.00    +0.046 A 
ATOM      5  C   LIG    1       24.043 -18.804   3.807  0.00  0.00    +0.117 A 
ATOM      6  C   LIG    1       25.344 -18.548   3.392  0.00  0.00    +0.046 A 
ATOM      7  C   LIG    1       25.794 -17.228   3.303  0.00  0.00    +0.010 A 
BRANCH   5   8
ATOM      8  O   LIG    1       23.561 -20.073   3.907  0.00  0.00    -0.507 OA
ATOM      9  H   LIG    1       22.849 -20.188   3.256  0.00  0.00    +0.292 HD
ENDBRANCH   5   8
ENDBRANCH   1   2
BRANCH   1  10
ATOM     10  C   LIG    1       24.277 -13.674   3.297  0.00  0.00    +0.083 C 
ATOM     11  C   LIG    1       24.207 -12.623   4.410  0.00  0.00    +0.027 C 
BRANCH  10  13
ATOM     12  C   LIG    1       24.415 -11.583   1.971  0.00  0.00    +0.101 C 
ATOM     13  N   LIG    1       24.313 -13.036   1.955  0.00  0.00    -0.314 NA
ATOM     14  H   LIG    1       25.135 -13.410   1.473  0.00  0.00    +0.122 HD
ENDBRANCH  10  13
ENDBRANCH   1  10
BRANCH   1  15
ATOM     15  O   LIG    1       26.379 -14.622   2.472  0.00  0.00    -0.386 OA
ATOM     16  H   LIG    1       27.258 -14.599   2.892  0.00  0.00    +0.210 HD
ENDBRANCH   1  15
TORSDOF 5
ENDMDL
MODEL 9
REMARK VINA RESULT:      -3.3      4.589      6.376
REMARK  Name = *****
REMARK                            x       y       z     vdW  Elec       q    Type
REMARK                         _______ _______ _______ _____ _____    ______ ____
ROOT
ATOM      1  C   LIG    1       25.344 -14.728   3.607  0.00  0.00    +0.161 C 
ENDROOT
BRANCH   1   2
ATOM      2  C   LIG    1       24.862 -16.166   3.678  0.00  0.00    -0.018 A 
ATOM      3  C   LIG    1       25.726 -17.217   3.332  0.00  0.00    +0.010 A 
ATOM      4  C   LIG    1       25.296 -18.543   3.394  0.00  0.00    +0.046 A 
ATOM      5  C   LIG    1       23.998 -18.828   3.806  0.00  0.00    +0.117 A 
ATOM      6  C   LIG    1       23.122 -17.806   4.151  0.00  0.00    +0.046 A 
ATOM      7  C   LIG    1       23.552 -16.478   4.087  0.00  0.00    +0.010 A 
BRANCH   5   8
ATOM      8  O   LIG    1       23.623 -20.137   3.854  0.00  0.00    -0.507 OA
ATOM      9  H   LIG    1       24.014 -20.543   4.646  0.00  0.00    +0.292 HD
ENDBRANCH   5   8
ENDBRANCH   1   2
BRANCH   1  10
ATOM     10  C   LIG    1       24.209 -13.675   3.390  0.00  0.00    +0.083 C 
ATOM     11  C   LIG    1       24.209 -12.589   4.471  0.00  0.00    +0.027 C 
BRANCH  10  13
ATOM     12  C   LIG    1       24.410 -11.641   1.987  0.00  0.00    +0.101 C 
ATOM     13  N   LIG    1       24.189 -13.080   2.028  0.00  0.00    -0.314 NA
ATOM     14  H   LIG    1       24.937 -13.535   1.497  0.00  0.00    +0.122 HD
ENDBRANCH  10  13
ENDBRANCH   1  10
BRANCH   1  15
ATOM     15  O   LIG    1       26.304 -14.620   2.543  0.00  0.00    -0.386 OA
ATOM     16  H   LIG    1       27.087 -14.177   2.917  0.00  0.00    +0.210 HD
ENDBRANCH   1  15
TORSDOF 5
ENDMDL
