MODEL 1
REMARK VINA RESULT:      -1.9      0.000      0.000
REMARK  Name = *****
REMARK                            x       y       z     vdW  Elec       q    Type
REMARK                         _______ _______ _______ _____ _____    ______ ____
ROOT
ATOM      1  C   LIG    1       23.246 -17.520   3.799  0.00  0.00    +0.201 C 
ATOM      2  C   LIG    1       22.066 -18.425   4.170  0.00  0.00    +0.181 C 
ATOM      3  C   LIG    1       22.702 -19.440   5.106  0.00  0.00    +0.195 C 
ATOM      4  C   LIG    1       24.058 -19.633   4.432  0.00  0.00    +0.253 C 
ATOM      5  O   LIG    1       24.432 -18.361   3.847  0.00  0.00    -0.343 OA
ENDROOT
BRANCH   4   6
ATOM      6  N   LIG    1       25.119 -20.118   5.292  0.00  0.00    -0.285 N 
ATOM      7  C   LIG    1       26.430 -19.722   5.324  0.00  0.00    +0.167 A 
ATOM      8  N   LIG    1       27.013 -18.737   4.619  0.00  0.00    -0.216 NA
ATOM      9  C   LIG    1       28.339 -18.694   4.857  0.00  0.00    +0.225 A 
ATOM     10  N   LIG    1       29.076 -19.491   5.657  0.00  0.00    -0.219 NA
ATOM     11  C   LIG    1       28.445 -20.471   6.341  0.00  0.00    +0.147 A 
ATOM     12  C   LIG    1       27.051 -20.598   6.205  0.00  0.00    +0.147 A 
ATOM     13  N   LIG    1       26.133 -21.474   6.749  0.00  0.00    -0.231 NA
ATOM     14  C   LIG    1       24.983 -21.140   6.200  0.00  0.00    +0.203 A 
BRANCH  11  15
ATOM     15  N   LIG    1       29.256 -21.347   7.062  0.00  0.00    -0.341 N 
ATOM     16  H   LIG    1       29.162 -21.203   8.061  0.00  0.00    +0.144 HD
ATOM     17  H   LIG    1       29.087 -22.293   6.739  0.00  0.00    +0.144 HD
ENDBRANCH  11  15
ENDBRANCH   4   6
BRANCH   2  18
ATOM     18  O   LIG    1       21.599 -19.147   3.009  0.00  0.00    -0.386 OA
ATOM     19  H   LIG    1       21.658 -18.536   2.251  0.00  0.00    +0.210 HD
ENDBRANCH   2  18
BRANCH   3  20
ATOM     20  O   LIG    1       21.937 -20.644   5.161  0.00  0.00    -0.385 OA
ATOM     21  H   LIG    1       21.038 -20.397   4.858  0.00  0.00    +0.210 HD
ENDBRANCH   3  20
BRANCH   1  22
ATOM     22  C   LIG    1       23.454 -16.339   4.759  0.00  0.00    +0.311 C 
BRANCH  22  24
ATOM     23  C   LIG    1       24.300 -13.783   5.255  0.00  0.00    +0.340 C 
ATOM     24  S   LIG    1       23.632 -14.758   3.890  0.00  0.00    -0.011 S 
BRANCH  24  25
ATOM     25  C   LIG    1       25.181 -15.005   2.975  0.00  0.00    +0.280 C 
BRANCH  25  26
ATOM     26  C   LIG    1       26.132 -13.816   2.836  0.00  0.00    +0.084 C 
BRANCH  26  27
ATOM     27  CA  LIG    1       27.569 -14.187   3.231  0.00  0.00    +0.165 C 
BRANCH  27  28
ATOM     28  N   LIG    1       27.623 -15.571   3.799  0.00  0.00    -0.318 NA
ATOM     29  H1  LIG    1       28.483 -16.013   3.456  0.00  0.00    +0.119 HD
ATOM     30  H2  LIG    1       26.876 -16.132   3.375  0.00  0.00    +0.119 HD
ENDBRANCH  27  28
BRANCH  27  31
ATOM     31  C   LIG    1       28.181 -13.215   4.265  0.00  0.00    +0.322 C 
ATOM     32  O   LIG    1       27.717 -12.964   5.356  0.00  0.00    -0.249 OA
BRANCH  31  33
ATOM     33  OXT LIG    1       29.308 -12.626   3.784  0.00  0.00    -0.479 OA
ATOM     34  HXT LIG    1       29.131 -11.653   3.781  0.00  0.00    +0.295 HD
ENDBRANCH  31  33
ENDBRANCH  27  31
ENDBRANCH  26  27
ENDBRANCH  25  26
ENDBRANCH  24  25
ENDBRANCH  22  24
ENDBRANCH   1  22
TORSDOF 12
ENDMDL
MODEL 2
REMARK VINA RESULT:      -1.5      1.192      1.945
REMARK  Name = *****
REMARK                            x       y       z     vdW  Elec       q    Type
REMARK                         _______ _______ _______ _____ _____    ______ ____
ROOT
ATOM      1  C   LIG    1       23.004 -16.556   3.702  0.00  0.00    +0.201 C 
ATOM      2  C   LIG    1       22.116 -17.468   4.555  0.00  0.00    +0.181 C 
ATOM      3  C   LIG    1       23.118 -18.429   5.174  0.00  0.00    +0.195 C 
ATOM      4  C   LIG    1       24.082 -18.622   4.004  0.00  0.00    +0.253 C 
ATOM      5  O   LIG    1       24.134 -17.368   3.279  0.00  0.00    -0.343 OA
ENDROOT
BRANCH   4   6
ATOM      6  N   LIG    1       25.420 -19.048   4.363  0.00  0.00    -0.285 N 
ATOM      7  C   LIG    1       25.789 -20.002   5.272  0.00  0.00    +0.167 A 
ATOM      8  N   LIG    1       24.992 -20.819   5.984  0.00  0.00    -0.216 NA
ATOM      9  C   LIG    1       25.713 -21.571   6.839  0.00  0.00    +0.225 A 
ATOM     10  N   LIG    1       27.046 -21.570   7.042  0.00  0.00    -0.219 NA
ATOM     11  C   LIG    1       27.804 -20.728   6.307  0.00  0.00    +0.147 A 
ATOM     12  C   LIG    1       27.173 -19.912   5.350  0.00  0.00    +0.147 A 
ATOM     13  N   LIG    1       27.650 -18.966   4.465  0.00  0.00    -0.231 NA
ATOM     14  C   LIG    1       26.575 -18.489   3.872  0.00  0.00    +0.203 A 
BRANCH  11  15
ATOM     15  N   LIG    1       29.160 -20.671   6.629  0.00  0.00    -0.341 N 
ATOM     16  H   LIG    1       29.303 -20.636   7.632  0.00  0.00    +0.144 HD
ATOM     17  H   LIG    1       29.645 -21.418   6.145  0.00  0.00    +0.144 HD
ENDBRANCH  11  15
ENDBRANCH   4   6
BRANCH   2  18
ATOM     18  O   LIG    1       21.238 -18.248   3.713  0.00  0.00    -0.386 OA
ATOM     19  H   LIG    1       21.723 -19.060   3.470  0.00  0.00    +0.210 HD
ENDBRANCH   2  18
BRANCH   3  20
ATOM     20  O   LIG    1       22.488 -19.645   5.575  0.00  0.00    -0.385 OA
ATOM     21  H   LIG    1       21.649 -19.685   5.070  0.00  0.00    +0.210 HD
ENDBRANCH   3  20
BRANCH   1  22
ATOM     22  C   LIG    1       23.546 -15.331   4.453  0.00  0.00    +0.311 C 
BRANCH  22  24
ATOM     23  C   LIG    1       24.109 -12.661   4.685  0.00  0.00    +0.340 C 
ATOM     24  S   LIG    1       23.590 -13.842   3.421  0.00  0.00    -0.011 S 
BRANCH  24  25
ATOM     25  C   LIG    1       25.186 -14.020   2.573  0.00  0.00    +0.280 C 
BRANCH  25  26
ATOM     26  C   LIG    1       26.379 -14.529   3.383  0.00  0.00    +0.084 C 
BRANCH  26  27
ATOM     27  CA  LIG    1       27.344 -13.392   3.751  0.00  0.00    +0.165 C 
BRANCH  27  28
ATOM     28  N   LIG    1       28.715 -13.666   3.214  0.00  0.00    -0.318 NA
ATOM     29  H1  LIG    1       29.288 -12.833   3.393  0.00  0.00    +0.119 HD
ATOM     30  H2  LIG    1       28.666 -13.712   2.191  0.00  0.00    +0.119 HD
ENDBRANCH  27  28
BRANCH  27  31
ATOM     31  C   LIG    1       27.457 -13.166   5.275  0.00  0.00    +0.322 C 
ATOM     32  O   LIG    1       26.869 -13.796   6.126  0.00  0.00    -0.249 OA
BRANCH  31  33
ATOM     33  OXT LIG    1       28.283 -12.123   5.560  0.00  0.00    -0.479 OA
ATOM     34  HXT LIG    1       29.203 -12.480   5.512  0.00  0.00    +0.295 HD
ENDBRANCH  31  33
ENDBRANCH  27  31
ENDBRANCH  26  27
ENDBRANCH  25  26
ENDBRANCH  24  25
ENDBRANCH  22  24
ENDBRANCH   1  22
TORSDOF 12
ENDMDL
MODEL 3
REMARK VINA RESULT:       0.4      2.740      5.587
REMARK  Name = *****
REMARK                            x       y       z     vdW  Elec       q    Type
REMARK                         _______ _______ _______ _____ _____    ______ ____
ROOT
ATOM      1  C   LIG    1       23.085 -20.354   5.989  0.00  0.00    +0.201 C 
ATOM      2  C   LIG    1       23.597 -20.788   4.611  0.00  0.00    +0.181 C 
ATOM      3  C   LIG    1       23.893 -19.461   3.930  0.00  0.00    +0.195 C 
ATOM      4  C   LIG    1       22.733 -18.614   4.449  0.00  0.00    +0.253 C 
ATOM      5  O   LIG    1       22.441 -19.064   5.795  0.00  0.00    -0.343 OA
ENDROOT
BRANCH   4   6
ATOM      6  N   LIG    1       22.954 -17.182   4.439  0.00  0.00    -0.285 N 
ATOM      7  C   LIG    1       24.050 -16.498   3.986  0.00  0.00    +0.167 A 
ATOM      8  N   LIG    1       25.139 -16.994   3.374  0.00  0.00    -0.216 NA
ATOM      9  C   LIG    1       26.047 -16.024   3.146  0.00  0.00    +0.225 A 
ATOM     10  N   LIG    1       25.978 -14.716   3.463  0.00  0.00    -0.219 NA
ATOM     11  C   LIG    1       24.866 -14.266   4.082  0.00  0.00    +0.147 A 
ATOM     12  C   LIG    1       23.825 -15.175   4.346  0.00  0.00    +0.147 A 
ATOM     13  N   LIG    1       22.592 -15.038   4.952  0.00  0.00    -0.231 NA
ATOM     14  C   LIG    1       22.088 -16.254   4.967  0.00  0.00    +0.203 A 
BRANCH  11  15
ATOM     15  N   LIG    1       24.882 -12.935   4.500  0.00  0.00    -0.341 N 
ATOM     16  H   LIG    1       24.271 -12.359   3.932  0.00  0.00    +0.144 HD
ATOM     17  H   LIG    1       24.709 -12.902   5.498  0.00  0.00    +0.144 HD
ENDBRANCH  11  15
ENDBRANCH   4   6
BRANCH   2  18
ATOM     18  O   LIG    1       22.542 -21.429   3.860  0.00  0.00    -0.386 OA
ATOM     19  H   LIG    1       22.747 -22.383   3.839  0.00  0.00    +0.210 HD
ENDBRANCH   2  18
BRANCH   3  20
ATOM     20  O   LIG    1       23.884 -19.597   2.510  0.00  0.00    -0.385 OA
ATOM     21  H   LIG    1       23.044 -20.056   2.295  0.00  0.00    +0.210 HD
ENDBRANCH   3  20
BRANCH   1  22
ATOM     22  C   LIG    1       24.190 -20.186   7.043  0.00  0.00    +0.311 C 
BRANCH  22  24
ATOM     23  C   LIG    1       25.491 -21.572   5.072  0.00  0.00    +0.340 C 
ATOM     24  S   LIG    1       25.510 -21.416   6.871  0.00  0.00    -0.011 S 
BRANCH  24  25
ATOM     25  C   LIG    1       27.000 -20.389   7.019  0.00  0.00    +0.280 C 
BRANCH  25  26
ATOM     26  C   LIG    1       28.214 -20.753   6.161  0.00  0.00    +0.084 C 
BRANCH  26  27
ATOM     27  CA  LIG    1       29.054 -19.517   5.810  0.00  0.00    +0.165 C 
BRANCH  27  28
ATOM     28  N   LIG    1       29.446 -18.772   7.049  0.00  0.00    -0.318 NA
ATOM     29  H1  LIG    1       29.172 -19.346   7.854  0.00  0.00    +0.119 HD
ATOM     30  H2  LIG    1       28.855 -17.938   7.133  0.00  0.00    +0.119 HD
ENDBRANCH  27  28
BRANCH  27  31
ATOM     31  C   LIG    1       28.321 -18.536   4.867  0.00  0.00    +0.322 C 
ATOM     32  O   LIG    1       28.692 -17.418   4.588  0.00  0.00    -0.249 OA
BRANCH  31  33
ATOM     33  OXT LIG    1       27.159 -19.071   4.404  0.00  0.00    -0.479 OA
ATOM     34  HXT LIG    1       27.127 -18.865   3.438  0.00  0.00    +0.295 HD
ENDBRANCH  31  33
ENDBRANCH  27  31
ENDBRANCH  26  27
ENDBRANCH  25  26
ENDBRANCH  24  25
ENDBRANCH  22  24
ENDBRANCH   1  22
TORSDOF 12
ENDMDL
MODEL 4
REMARK VINA RESULT:       1.1      2.978      6.705
REMARK  Name = *****
REMARK                            x       y       z     vdW  Elec       q    Type
REMARK                         _______ _______ _______ _____ _____    ______ ____
ROOT
ATOM      1  C   LIG    1       27.029 -20.256   5.510  0.00  0.00    +0.201 C 
ATOM      2  C   LIG    1       28.333 -19.620   6.002  0.00  0.00    +0.181 C 
ATOM      3  C   LIG    1       28.181 -18.169   5.577  0.00  0.00    +0.195 C 
ATOM      4  C   LIG    1       27.491 -18.342   4.226  0.00  0.00    +0.253 C 
ATOM      5  O   LIG    1       26.632 -19.506   4.328  0.00  0.00    -0.343 OA
ENDROOT
BRANCH   4   6
ATOM      6  N   LIG    1       26.729 -17.199   3.763  0.00  0.00    -0.285 N 
ATOM      7  C   LIG    1       27.106 -15.883   3.744  0.00  0.00    +0.167 A 
ATOM      8  N   LIG    1       28.299 -15.360   4.076  0.00  0.00    -0.216 NA
ATOM      9  C   LIG    1       28.271 -14.014   4.008  0.00  0.00    +0.225 A 
ATOM     10  N   LIG    1       27.239 -13.210   3.681  0.00  0.00    -0.219 NA
ATOM     11  C   LIG    1       26.059 -13.782   3.360  0.00  0.00    +0.147 A 
ATOM     12  C   LIG    1       25.968 -15.186   3.359  0.00  0.00    +0.147 A 
ATOM     13  N   LIG    1       24.932 -16.058   3.088  0.00  0.00    -0.231 NA
ATOM     14  C   LIG    1       25.431 -17.255   3.316  0.00  0.00    +0.203 A 
BRANCH  11  15
ATOM     15  N   LIG    1       24.987 -12.917   3.144  0.00  0.00    -0.341 N 
ATOM     16  H   LIG    1       25.040 -12.478   2.232  0.00  0.00    +0.144 HD
ATOM     17  H   LIG    1       24.122 -13.409   3.341  0.00  0.00    +0.144 HD
ENDBRANCH  11  15
ENDBRANCH   4   6
BRANCH   2  18
ATOM     18  O   LIG    1       29.462 -20.161   5.281  0.00  0.00    -0.386 OA
ATOM     19  H   LIG    1       30.058 -19.414   5.081  0.00  0.00    +0.210 HD
ENDBRANCH   2  18
BRANCH   3  20
ATOM     20  O   LIG    1       29.450 -17.525   5.469  0.00  0.00    -0.385 OA
ATOM     21  H   LIG    1       30.101 -18.248   5.344  0.00  0.00    +0.210 HD
ENDBRANCH   3  20
BRANCH   1  22
ATOM     22  C   LIG    1       25.880 -20.195   6.527  0.00  0.00    +0.311 C 
BRANCH  22  24
ATOM     23  C   LIG    1       23.259 -20.778   7.061  0.00  0.00    +0.340 C 
ATOM     24  S   LIG    1       24.715 -21.572   6.347  0.00  0.00    -0.011 S 
BRANCH  24  25
ATOM     25  C   LIG    1       24.243 -21.437   4.598  0.00  0.00    +0.280 C 
BRANCH  25  26
ATOM     26  C   LIG    1       23.706 -20.095   4.099  0.00  0.00    +0.084 C 
BRANCH  26  27
ATOM     27  CA  LIG    1       22.361 -19.742   4.750  0.00  0.00    +0.165 C 
BRANCH  27  28
ATOM     28  N   LIG    1       21.336 -20.793   4.456  0.00  0.00    -0.318 NA
ATOM     29  H1  LIG    1       21.558 -21.193   3.537  0.00  0.00    +0.119 HD
ATOM     30  H2  LIG    1       20.429 -20.338   4.310  0.00  0.00    +0.119 HD
ENDBRANCH  27  28
BRANCH  27  31
ATOM     31  C   LIG    1       21.804 -18.378   4.282  0.00  0.00    +0.322 C 
ATOM     32  O   LIG    1       22.182 -17.294   4.666  0.00  0.00    -0.249 OA
BRANCH  31  33
ATOM     33  OXT LIG    1       20.784 -18.539   3.395  0.00  0.00    -0.479 OA
ATOM     34  HXT LIG    1       20.437 -17.632   3.208  0.00  0.00    +0.295 HD
ENDBRANCH  31  33
ENDBRANCH  27  31
ENDBRANCH  26  27
ENDBRANCH  25  26
ENDBRANCH  24  25
ENDBRANCH  22  24
ENDBRANCH   1  22
TORSDOF 12
ENDMDL
