MODEL 1
REMARK VINA RESULT:      -9.0      0.000      0.000
REMARK  Name = *****
REMARK                            x       y       z     vdW  Elec       q    Type
REMARK                         _______ _______ _______ _____ _____    ______ ____
ROOT
ATOM      1  C   LIG    1       25.094 -25.318   6.629  0.00  0.00    +0.004 A 
ATOM      2  S   LIG    1       25.837 -23.791   6.899  0.00  0.00    -0.089 S 
ATOM      3  C   LIG    1       24.346 -22.942   6.838  0.00  0.00    +0.060 A 
ATOM      4  C   LIG    1       23.297 -23.822   6.631  0.00  0.00    +0.020 A 
ATOM      5  C   LIG    1       23.726 -25.178   6.489  0.00  0.00    +0.013 A 
ENDROOT
BRANCH   1   7
ATOM      6  C   LIG    1       25.159 -27.822   6.971  0.00  0.00    +0.025 C 
ATOM      7  C   LIG    1       25.948 -26.572   6.588  0.00  0.00    +0.131 C 
BRANCH   7   8
ATOM      8  C   LIG    1       26.602 -26.736   5.215  0.00  0.00    +0.312 C 
ATOM      9  O   LIG    1       26.011 -26.693   4.149  0.00  0.00    -0.250 OA
BRANCH   8  10
ATOM     10  O   LIG    1       27.931 -27.003   5.282  0.00  0.00    -0.480 OA
ATOM     11  H   LIG    1       28.488 -26.210   5.391  0.00  0.00    +0.295 HD
ENDBRANCH   8  10
ENDBRANCH   7   8
ENDBRANCH   1   7
BRANCH   3  12
ATOM     12  C   LIG    1       24.336 -21.492   7.040  0.00  0.00    +0.200 C 
ATOM     13  O   LIG    1       24.569 -20.956   8.122  0.00  0.00    -0.286 OA
BRANCH  12  14
ATOM     14  C   LIG    1       24.013 -20.580   5.890  0.00  0.00    +0.023 A 
ATOM     15  C   LIG    1       22.757 -19.972   5.763  0.00  0.00    +0.012 A 
ATOM     16  C   LIG    1       22.494 -19.108   4.697  0.00  0.00    +0.001 A 
ATOM     17  C   LIG    1       23.463 -18.886   3.720  0.00  0.00    +0.000 A 
ATOM     18  C   LIG    1       24.699 -19.524   3.810  0.00  0.00    +0.001 A 
ATOM     19  C   LIG    1       24.977 -20.365   4.892  0.00  0.00    +0.012 A 
ENDBRANCH  12  14
ENDBRANCH   3  12
TORSDOF 5
ENDMDL
MODEL 2
REMARK VINA RESULT:      -8.4      4.395      5.645
REMARK  Name = *****
REMARK                            x       y       z     vdW  Elec       q    Type
REMARK                         _______ _______ _______ _____ _____    ______ ____
ROOT
ATOM      1  C   LIG    1       29.772 -20.317   7.527  0.00  0.00    +0.004 A 
ATOM      2  S   LIG    1       28.542 -21.456   7.911  0.00  0.00    -0.089 S 
ATOM      3  C   LIG    1       27.498 -20.899   6.666  0.00  0.00    +0.060 A 
ATOM      4  C   LIG    1       28.096 -19.869   5.961  0.00  0.00    +0.020 A 
ATOM      5  C   LIG    1       29.386 -19.521   6.466  0.00  0.00    +0.013 A 
ENDROOT
BRANCH   1   7
ATOM      6  C   LIG    1       31.159 -19.110   9.262  0.00  0.00    +0.025 C 
ATOM      7  C   LIG    1       31.064 -20.311   8.323  0.00  0.00    +0.131 C 
BRANCH   7   8
ATOM      8  C   LIG    1       31.232 -21.622   9.093  0.00  0.00    +0.312 C 
ATOM      9  O   LIG    1       30.744 -21.861  10.185  0.00  0.00    -0.250 OA
BRANCH   8  10
ATOM     10  O   LIG    1       32.047 -22.510   8.468  0.00  0.00    -0.480 OA
ATOM     11  H   LIG    1       32.200 -23.328   8.975  0.00  0.00    +0.295 HD
ENDBRANCH   8  10
ENDBRANCH   7   8
ENDBRANCH   1   7
BRANCH   3  12
ATOM     12  C   LIG    1       26.203 -21.553   6.469  0.00  0.00    +0.200 C 
ATOM     13  O   LIG    1       25.966 -22.708   6.818  0.00  0.00    -0.286 OA
BRANCH  12  14
ATOM     14  C   LIG    1       25.086 -20.807   5.795  0.00  0.00    +0.023 A 
ATOM     15  C   LIG    1       23.829 -20.660   6.398  0.00  0.00    +0.012 A 
ATOM     16  C   LIG    1       22.818 -19.939   5.759  0.00  0.00    +0.001 A 
ATOM     17  C   LIG    1       23.034 -19.405   4.490  0.00  0.00    +0.000 A 
ATOM     18  C   LIG    1       24.263 -19.587   3.860  0.00  0.00    +0.001 A 
ATOM     19  C   LIG    1       25.289 -20.282   4.509  0.00  0.00    +0.012 A 
ENDBRANCH  12  14
ENDBRANCH   3  12
TORSDOF 5
ENDMDL
MODEL 3
REMARK VINA RESULT:      -8.4      4.033      6.417
REMARK  Name = *****
REMARK                            x       y       z     vdW  Elec       q    Type
REMARK                         _______ _______ _______ _____ _____    ______ ____
ROOT
ATOM      1  C   LIG    1       28.867 -19.690   7.240  0.00  0.00    +0.004 A 
ATOM      2  S   LIG    1       27.688 -20.287   8.340  0.00  0.00    -0.089 S 
ATOM      3  C   LIG    1       26.555 -20.628   7.095  0.00  0.00    +0.060 A 
ATOM      4  C   LIG    1       27.085 -20.302   5.858  0.00  0.00    +0.020 A 
ATOM      5  C   LIG    1       28.398 -19.746   5.942  0.00  0.00    +0.013 A 
ENDROOT
BRANCH   1   7
ATOM      6  C   LIG    1       30.062 -18.057   8.756  0.00  0.00    +0.025 C 
ATOM      7  C   LIG    1       30.208 -19.210   7.766  0.00  0.00    +0.131 C 
BRANCH   7   8
ATOM      8  C   LIG    1       30.992 -20.367   8.385  0.00  0.00    +0.312 C 
ATOM      9  O   LIG    1       31.934 -20.245   9.151  0.00  0.00    -0.250 OA
BRANCH   8  10
ATOM     10  O   LIG    1       30.581 -21.587   7.952  0.00  0.00    -0.480 OA
ATOM     11  H   LIG    1       30.851 -22.322   8.532  0.00  0.00    +0.295 HD
ENDBRANCH   8  10
ENDBRANCH   7   8
ENDBRANCH   1   7
BRANCH   3  12
ATOM     12  C   LIG    1       25.263 -21.222   7.443  0.00  0.00    +0.200 C 
ATOM     13  O   LIG    1       24.372 -20.611   8.030  0.00  0.00    -0.286 OA
BRANCH  12  14
ATOM     14  C   LIG    1       24.983 -22.657   7.092  0.00  0.00    +0.023 A 
ATOM     15  C   LIG    1       26.015 -23.593   6.941  0.00  0.00    +0.012 A 
ATOM     16  C   LIG    1       25.722 -24.926   6.642  0.00  0.00    +0.001 A 
ATOM     17  C   LIG    1       24.402 -25.323   6.436  0.00  0.00    +0.000 A 
ATOM     18  C   LIG    1       23.372 -24.390   6.535  0.00  0.00    +0.001 A 
ATOM     19  C   LIG    1       23.657 -23.062   6.866  0.00  0.00    +0.012 A 
ENDBRANCH  12  14
ENDBRANCH   3  12
TORSDOF 5
ENDMDL
MODEL 4
REMARK VINA RESULT:      -8.3      4.120      5.620
REMARK  Name = *****
REMARK                            x       y       z     vdW  Elec       q    Type
REMARK                         _______ _______ _______ _____ _____    ______ ____
ROOT
ATOM      1  C   LIG    1       28.709 -19.966   7.678  0.00  0.00    +0.004 A 
ATOM      2  S   LIG    1       28.052 -20.467   6.171  0.00  0.00    -0.089 S 
ATOM      3  C   LIG    1       26.549 -20.925   6.865  0.00  0.00    +0.060 A 
ATOM      4  C   LIG    1       26.552 -20.679   8.228  0.00  0.00    +0.020 A 
ATOM      5  C   LIG    1       27.794 -20.151   8.697  0.00  0.00    +0.013 A 
ENDROOT
BRANCH   1   7
ATOM      6  C   LIG    1       30.157 -18.005   8.352  0.00  0.00    +0.025 C 
ATOM      7  C   LIG    1       30.117 -19.401   7.733  0.00  0.00    +0.131 C 
BRANCH   7   8
ATOM      8  C   LIG    1       31.055 -20.355   8.472  0.00  0.00    +0.312 C 
ATOM      9  O   LIG    1       31.972 -20.012   9.199  0.00  0.00    -0.250 OA
BRANCH   8  10
ATOM     10  O   LIG    1       30.814 -21.663   8.198  0.00  0.00    -0.480 OA
ATOM     11  H   LIG    1       30.938 -22.255   8.963  0.00  0.00    +0.295 HD
ENDBRANCH   8  10
ENDBRANCH   7   8
ENDBRANCH   1   7
BRANCH   3  12
ATOM     12  C   LIG    1       25.488 -21.446   6.001  0.00  0.00    +0.200 C 
ATOM     13  O   LIG    1       25.336 -22.643   5.760  0.00  0.00    -0.286 OA
BRANCH  12  14
ATOM     14  C   LIG    1       24.525 -20.496   5.346  0.00  0.00    +0.023 A 
ATOM     15  C   LIG    1       23.227 -20.305   5.841  0.00  0.00    +0.012 A 
ATOM     16  C   LIG    1       22.363 -19.396   5.226  0.00  0.00    +0.001 A 
ATOM     17  C   LIG    1       22.766 -18.711   4.082  0.00  0.00    +0.000 A 
ATOM     18  C   LIG    1       24.037 -18.929   3.553  0.00  0.00    +0.001 A 
ATOM     19  C   LIG    1       24.917 -19.815   4.182  0.00  0.00    +0.012 A 
ENDBRANCH  12  14
ENDBRANCH   3  12
TORSDOF 5
ENDMDL
MODEL 5
REMARK VINA RESULT:      -8.3      1.884      2.704
REMARK  Name = *****
REMARK                            x       y       z     vdW  Elec       q    Type
REMARK                         _______ _______ _______ _____ _____    ______ ____
ROOT
ATOM      1  C   LIG    1       24.873 -25.188   6.607  0.00  0.00    +0.004 A 
ATOM      2  S   LIG    1       25.884 -23.860   7.023  0.00  0.00    -0.089 S 
ATOM      3  C   LIG    1       24.581 -22.742   7.032  0.00  0.00    +0.060 A 
ATOM      4  C   LIG    1       23.391 -23.385   6.737  0.00  0.00    +0.020 A 
ATOM      5  C   LIG    1       23.560 -24.779   6.472  0.00  0.00    +0.013 A 
ENDROOT
BRANCH   1   7
ATOM      6  C   LIG    1       24.414 -27.668   6.434  0.00  0.00    +0.025 C 
ATOM      7  C   LIG    1       25.478 -26.572   6.454  0.00  0.00    +0.131 C 
BRANCH   7   8
ATOM      8  C   LIG    1       26.360 -26.642   5.208  0.00  0.00    +0.312 C 
ATOM      9  O   LIG    1       25.964 -26.517   4.061  0.00  0.00    -0.250 OA
BRANCH   8  10
ATOM     10  O   LIG    1       27.659 -26.926   5.485  0.00  0.00    -0.480 OA
ATOM     11  H   LIG    1       28.161 -26.168   5.837  0.00  0.00    +0.295 HD
ENDBRANCH   8  10
ENDBRANCH   7   8
ENDBRANCH   1   7
BRANCH   3  12
ATOM     12  C   LIG    1       24.839 -21.341   7.369  0.00  0.00    +0.200 C 
ATOM     13  O   LIG    1       24.009 -20.607   7.902  0.00  0.00    -0.286 OA
BRANCH  12  14
ATOM     14  C   LIG    1       26.174 -20.730   7.045  0.00  0.00    +0.023 A 
ATOM     15  C   LIG    1       26.520 -20.365   5.737  0.00  0.00    +0.012 A 
ATOM     16  C   LIG    1       27.757 -19.774   5.471  0.00  0.00    +0.001 A 
ATOM     17  C   LIG    1       28.681 -19.593   6.498  0.00  0.00    +0.000 A 
ATOM     18  C   LIG    1       28.367 -19.996   7.794  0.00  0.00    +0.001 A 
ATOM     19  C   LIG    1       27.118 -20.559   8.071  0.00  0.00    +0.012 A 
ENDBRANCH  12  14
ENDBRANCH   3  12
TORSDOF 5
ENDMDL
MODEL 6
REMARK VINA RESULT:      -8.1      4.289      6.264
REMARK  Name = *****
REMARK                            x       y       z     vdW  Elec       q    Type
REMARK                         _______ _______ _______ _____ _____    ______ ____
ROOT
ATOM      1  C   LIG    1       28.863 -19.760   7.640  0.00  0.00    +0.004 A 
ATOM      2  S   LIG    1       28.234 -20.071   6.071  0.00  0.00    -0.089 S 
ATOM      3  C   LIG    1       26.711 -20.586   6.674  0.00  0.00    +0.060 A 
ATOM      4  C   LIG    1       26.686 -20.502   8.056  0.00  0.00    +0.020 A 
ATOM      5  C   LIG    1       27.923 -20.051   8.610  0.00  0.00    +0.013 A 
ENDROOT
BRANCH   1   7
ATOM      6  C   LIG    1       30.313 -17.885   8.521  0.00  0.00    +0.025 C 
ATOM      7  C   LIG    1       30.276 -19.225   7.790  0.00  0.00    +0.131 C 
BRANCH   7   8
ATOM      8  C   LIG    1       31.172 -20.252   8.483  0.00  0.00    +0.312 C 
ATOM      9  O   LIG    1       32.070 -19.984   9.264  0.00  0.00    -0.250 OA
BRANCH   8  10
ATOM     10  O   LIG    1       30.920 -21.530   8.100  0.00  0.00    -0.480 OA
ATOM     11  H   LIG    1       30.124 -21.915   8.512  0.00  0.00    +0.295 HD
ENDBRANCH   8  10
ENDBRANCH   7   8
ENDBRANCH   1   7
BRANCH   3  12
ATOM     12  C   LIG    1       25.664 -20.987   5.733  0.00  0.00    +0.200 C 
ATOM     13  O   LIG    1       25.457 -20.415   4.664  0.00  0.00    -0.286 OA
BRANCH  12  14
ATOM     14  C   LIG    1       24.764 -22.145   6.065  0.00  0.00    +0.023 A 
ATOM     15  C   LIG    1       23.429 -21.954   6.448  0.00  0.00    +0.012 A 
ATOM     16  C   LIG    1       22.610 -23.051   6.725  0.00  0.00    +0.001 A 
ATOM     17  C   LIG    1       23.129 -24.343   6.676  0.00  0.00    +0.000 A 
ATOM     18  C   LIG    1       24.468 -24.541   6.344  0.00  0.00    +0.001 A 
ATOM     19  C   LIG    1       25.284 -23.448   6.036  0.00  0.00    +0.012 A 
ENDBRANCH  12  14
ENDBRANCH   3  12
TORSDOF 5
ENDMDL
MODEL 7
REMARK VINA RESULT:      -8.0      4.483      6.179
REMARK  Name = *****
REMARK                            x       y       z     vdW  Elec       q    Type
REMARK                         _______ _______ _______ _____ _____    ______ ____
ROOT
ATOM      1  C   LIG    1       24.649 -21.198   7.205  0.00  0.00    +0.004 A 
ATOM      2  S   LIG    1       25.715 -20.776   5.924  0.00  0.00    -0.089 S 
ATOM      3  C   LIG    1       26.988 -20.343   6.994  0.00  0.00    +0.060 A 
ATOM      4  C   LIG    1       26.600 -20.538   8.308  0.00  0.00    +0.020 A 
ATOM      5  C   LIG    1       25.256 -21.006   8.431  0.00  0.00    +0.013 A 
ENDROOT
BRANCH   1   7
ATOM      6  C   LIG    1       22.693 -21.095   5.605  0.00  0.00    +0.025 C 
ATOM      7  C   LIG    1       23.257 -21.713   6.883  0.00  0.00    +0.131 C 
BRANCH   7   8
ATOM      8  C   LIG    1       23.251 -23.240   6.801  0.00  0.00    +0.312 C 
ATOM      9  O   LIG    1       24.242 -23.949   6.864  0.00  0.00    -0.250 OA
BRANCH   8  10
ATOM     10  O   LIG    1       22.016 -23.761   6.585  0.00  0.00    -0.480 OA
ATOM     11  H   LIG    1       21.930 -24.231   5.735  0.00  0.00    +0.295 HD
ENDBRANCH   8  10
ENDBRANCH   7   8
ENDBRANCH   1   7
BRANCH   3  12
ATOM     12  C   LIG    1       28.266 -19.890   6.442  0.00  0.00    +0.200 C 
ATOM     13  O   LIG    1       28.458 -19.700   5.243  0.00  0.00    -0.286 OA
BRANCH  12  14
ATOM     14  C   LIG    1       29.432 -19.650   7.361  0.00  0.00    +0.023 A 
ATOM     15  C   LIG    1       30.113 -20.707   7.978  0.00  0.00    +0.012 A 
ATOM     16  C   LIG    1       31.210 -20.455   8.806  0.00  0.00    +0.001 A 
ATOM     17  C   LIG    1       31.602 -19.143   9.068  0.00  0.00    +0.000 A 
ATOM     18  C   LIG    1       30.901 -18.082   8.498  0.00  0.00    +0.001 A 
ATOM     19  C   LIG    1       29.822 -18.331   7.644  0.00  0.00    +0.012 A 
ENDBRANCH  12  14
ENDBRANCH   3  12
TORSDOF 5
ENDMDL
MODEL 8
REMARK VINA RESULT:      -7.9      1.510      2.178
REMARK  Name = *****
REMARK                            x       y       z     vdW  Elec       q    Type
REMARK                         _______ _______ _______ _____ _____    ______ ____
ROOT
ATOM      1  C   LIG    1       25.112 -25.469   6.245  0.00  0.00    +0.004 A 
ATOM      2  S   LIG    1       23.711 -24.476   6.146  0.00  0.00    -0.089 S 
ATOM      3  C   LIG    1       24.507 -23.114   6.824  0.00  0.00    +0.060 A 
ATOM      4  C   LIG    1       25.829 -23.417   7.103  0.00  0.00    +0.020 A 
ATOM      5  C   LIG    1       26.170 -24.769   6.793  0.00  0.00    +0.013 A 
ENDROOT
BRANCH   1   7
ATOM      6  C   LIG    1       26.146 -27.202   4.722  0.00  0.00    +0.025 C 
ATOM      7  C   LIG    1       25.053 -26.901   5.746  0.00  0.00    +0.131 C 
BRANCH   7   8
ATOM      8  C   LIG    1       25.112 -27.884   6.915  0.00  0.00    +0.312 C 
ATOM      9  O   LIG    1       24.244 -28.696   7.193  0.00  0.00    -0.250 OA
BRANCH   8  10
ATOM     10  O   LIG    1       26.221 -27.737   7.685  0.00  0.00    -0.480 OA
ATOM     11  H   LIG    1       26.150 -28.155   8.562  0.00  0.00    +0.295 HD
ENDBRANCH   8  10
ENDBRANCH   7   8
ENDBRANCH   1   7
BRANCH   3  12
ATOM     12  C   LIG    1       23.772 -21.858   6.982  0.00  0.00    +0.200 C 
ATOM     13  O   LIG    1       23.139 -21.565   7.996  0.00  0.00    -0.286 OA
BRANCH  12  14
ATOM     14  C   LIG    1       23.755 -20.856   5.861  0.00  0.00    +0.023 A 
ATOM     15  C   LIG    1       24.865 -20.666   5.027  0.00  0.00    +0.012 A 
ATOM     16  C   LIG    1       24.811 -19.747   3.977  0.00  0.00    +0.001 A 
ATOM     17  C   LIG    1       23.669 -18.971   3.783  0.00  0.00    +0.000 A 
ATOM     18  C   LIG    1       22.577 -19.118   4.636  0.00  0.00    +0.001 A 
ATOM     19  C   LIG    1       22.615 -20.058   5.670  0.00  0.00    +0.012 A 
ENDBRANCH  12  14
ENDBRANCH   3  12
TORSDOF 5
ENDMDL
MODEL 9
REMARK VINA RESULT:      -7.7      5.792      7.466
REMARK  Name = *****
REMARK                            x       y       z     vdW  Elec       q    Type
REMARK                         _______ _______ _______ _____ _____    ______ ____
ROOT
ATOM      1  C   LIG    1       27.292 -20.783   6.698  0.00  0.00    +0.004 A 
ATOM      2  S   LIG    1       28.642 -20.939   7.751  0.00  0.00    -0.089 S 
ATOM      3  C   LIG    1       29.537 -19.713   6.948  0.00  0.00    +0.060 A 
ATOM      4  C   LIG    1       28.800 -19.185   5.901  0.00  0.00    +0.020 A 
ATOM      5  C   LIG    1       27.526 -19.811   5.744  0.00  0.00    +0.013 A 
ENDROOT
BRANCH   1   7
ATOM      6  C   LIG    1       26.426 -23.129   7.070  0.00  0.00    +0.025 C 
ATOM      7  C   LIG    1       26.067 -21.653   6.914  0.00  0.00    +0.131 C 
BRANCH   7   8
ATOM      8  C   LIG    1       25.256 -21.158   8.111  0.00  0.00    +0.312 C 
ATOM      9  O   LIG    1       25.568 -21.310   9.281  0.00  0.00    -0.250 OA
BRANCH   8  10
ATOM     10  O   LIG    1       24.086 -20.564   7.759  0.00  0.00    -0.480 OA
ATOM     11  H   LIG    1       24.116 -19.590   7.783  0.00  0.00    +0.295 HD
ENDBRANCH   8  10
ENDBRANCH   7   8
ENDBRANCH   1   7
BRANCH   3  12
ATOM     12  C   LIG    1       30.866 -19.352   7.445  0.00  0.00    +0.200 C 
ATOM     13  O   LIG    1       31.910 -19.815   6.987  0.00  0.00    -0.286 OA
BRANCH  12  14
ATOM     14  C   LIG    1       30.999 -18.380   8.583  0.00  0.00    +0.023 A 
ATOM     15  C   LIG    1       29.965 -18.184   9.509  0.00  0.00    +0.012 A 
ATOM     16  C   LIG    1       30.128 -17.293  10.572  0.00  0.00    +0.001 A 
ATOM     17  C   LIG    1       31.300 -16.549  10.689  0.00  0.00    +0.000 A 
ATOM     18  C   LIG    1       32.315 -16.699   9.747  0.00  0.00    +0.001 A 
ATOM     19  C   LIG    1       32.170 -17.613   8.698  0.00  0.00    +0.012 A 
ENDBRANCH  12  14
ENDBRANCH   3  12
TORSDOF 5
ENDMDL
