MODEL 1
REMARK VINA RESULT:      -1.1      0.000      0.000
REMARK  Name = *****
REMARK                            x       y       z     vdW  Elec       q    Type
REMARK                         _______ _______ _______ _____ _____    ______ ____
ROOT
ATOM      1  C   LIG    1       25.729 -15.884   3.567  0.00  0.00    +0.146 C 
ENDROOT
BRANCH   1   2
ATOM      2  C   LIG    1       24.382 -16.575   3.947  0.00  0.00    -0.004 A 
ATOM      3  C   LIG    1       24.174 -17.954   3.730  0.00  0.00    +0.007 A 
ATOM      4  C   LIG    1       22.987 -18.602   4.108  0.00  0.00    +0.000 A 
ATOM      5  C   LIG    1       21.941 -17.879   4.663  0.00  0.00    +0.000 A 
ATOM      6  C   LIG    1       22.099 -16.514   4.862  0.00  0.00    +0.000 A 
ATOM      7  C   LIG    1       23.302 -15.878   4.518  0.00  0.00    +0.007 A 
ENDBRANCH   1   2
BRANCH   1   8
ATOM      8  C   LIG    1       25.526 -14.832   2.341  0.00  0.00    +0.049 C 
ATOM      9  C   LIG    1       26.800 -14.004   2.054  0.00  0.00    +0.013 C 
BRANCH   8  10
ATOM     10  C   LIG    1       24.308 -13.822   2.504  0.00  0.00    +0.091 C 
BRANCH  10  11
ATOM     11  N   LIG    1       24.598 -12.414   2.940  0.00  0.00    -0.308 NA
ATOM     12  C   LIG    1       23.931 -11.951   4.158  0.00  0.00    +0.104 C 
ATOM     13  C   LIG    1       24.262 -11.448   1.880  0.00  0.00    +0.104 C 
ENDBRANCH  10  11
ENDBRANCH   8  10
ENDBRANCH   1   8
BRANCH   1  14
ATOM     14  O   LIG    1       26.207 -14.990   4.668  0.00  0.00    -0.453 OA
BRANCH  14  15
ATOM     15  C   LIG    1       27.350 -14.217   4.668  0.00  0.00    +0.308 C 
ATOM     16  O   LIG    1       28.395 -14.452   4.106  0.00  0.00    -0.251 OA
BRANCH  15  18
ATOM     17  C   LIG    1       28.412 -12.220   5.744  0.00  0.00    +0.015 C 
ATOM     18  C   LIG    1       27.129 -13.008   5.572  0.00  0.00    +0.117 C 
ENDBRANCH  15  18
ENDBRANCH  14  15
ENDBRANCH   1  14
BRANCH   1  19
ATOM     19  C   LIG    1       26.850 -16.976   3.229  0.00  0.00    +0.088 C 
BRANCH  19  20
ATOM     20  C   LIG    1       27.437 -17.915   4.290  0.00  0.00    -0.043 A 
ATOM     21  C   LIG    1       28.722 -17.671   4.812  0.00  0.00    +0.004 A 
ATOM     22  C   LIG    1       29.336 -18.567   5.698  0.00  0.00    +0.000 A 
ATOM     23  C   LIG    1       28.683 -19.735   6.076  0.00  0.00    +0.000 A 
ATOM     24  C   LIG    1       27.404 -19.989   5.587  0.00  0.00    +0.000 A 
ATOM     25  C   LIG    1       26.785 -19.088   4.704  0.00  0.00    +0.004 A 
ENDBRANCH  19  20
ENDBRANCH   1  19
TORSDOF 9
ENDMDL
MODEL 2
REMARK VINA RESULT:      -0.3      2.826      6.328
REMARK  Name = *****
REMARK                            x       y       z     vdW  Elec       q    Type
REMARK                         _______ _______ _______ _____ _____    ______ ____
ROOT
ATOM      1  C   LIG    1       25.290 -19.104   4.115  0.00  0.00    +0.146 C 
ENDROOT
BRANCH   1   2
ATOM      2  C   LIG    1       26.511 -19.455   5.022  0.00  0.00    -0.004 A 
ATOM      3  C   LIG    1       26.389 -20.343   6.113  0.00  0.00    +0.007 A 
ATOM      4  C   LIG    1       27.486 -20.706   6.911  0.00  0.00    +0.000 A 
ATOM      5  C   LIG    1       28.734 -20.146   6.681  0.00  0.00    +0.000 A 
ATOM      6  C   LIG    1       28.885 -19.246   5.636  0.00  0.00    +0.000 A 
ATOM      7  C   LIG    1       27.794 -18.916   4.817  0.00  0.00    +0.007 A 
ENDBRANCH   1   2
BRANCH   1   8
ATOM      8  C   LIG    1       24.656 -20.442   3.437  0.00  0.00    +0.049 C 
ATOM      9  C   LIG    1       23.542 -20.116   2.415  0.00  0.00    +0.013 C 
BRANCH   8  10
ATOM     10  C   LIG    1       24.087 -21.520   4.459  0.00  0.00    +0.091 C 
BRANCH  10  11
ATOM     11  N   LIG    1       22.973 -21.116   5.382  0.00  0.00    -0.308 NA
ATOM     12  C   LIG    1       23.069 -21.572   6.769  0.00  0.00    +0.104 C 
ATOM     13  C   LIG    1       21.667 -21.572   4.875  0.00  0.00    +0.104 C 
ENDBRANCH  10  11
ENDBRANCH   8  10
ENDBRANCH   1   8
BRANCH   1  14
ATOM     14  O   LIG    1       24.142 -18.593   4.928  0.00  0.00    -0.453 OA
BRANCH  14  15
ATOM     15  C   LIG    1       22.943 -18.106   4.451  0.00  0.00    +0.308 C 
ATOM     16  O   LIG    1       22.223 -18.613   3.621  0.00  0.00    -0.251 OA
BRANCH  15  18
ATOM     17  C   LIG    1       21.319 -16.211   4.665  0.00  0.00    +0.015 C 
ATOM     18  C   LIG    1       22.673 -16.745   5.086  0.00  0.00    +0.117 C 
ENDBRANCH  15  18
ENDBRANCH  14  15
ENDBRANCH   1  14
BRANCH   1  19
ATOM     19  C   LIG    1       25.698 -18.019   3.012  0.00  0.00    +0.088 C 
BRANCH  19  20
ATOM     20  C   LIG    1       25.989 -16.554   3.359  0.00  0.00    -0.043 A 
ATOM     21  C   LIG    1       27.250 -16.188   3.867  0.00  0.00    +0.004 A 
ATOM     22  C   LIG    1       27.517 -14.882   4.301  0.00  0.00    +0.000 A 
ATOM     23  C   LIG    1       26.523 -13.910   4.244  0.00  0.00    +0.000 A 
ATOM     24  C   LIG    1       25.273 -14.243   3.727  0.00  0.00    +0.000 A 
ATOM     25  C   LIG    1       25.008 -15.551   3.287  0.00  0.00    +0.004 A 
ENDBRANCH  19  20
ENDBRANCH   1  19
TORSDOF 9
ENDMDL
MODEL 3
REMARK VINA RESULT:       1.7      2.712      6.139
REMARK  Name = *****
REMARK                            x       y       z     vdW  Elec       q    Type
REMARK                         _______ _______ _______ _____ _____    ______ ____
ROOT
ATOM      1  C   LIG    1       25.838 -17.911   3.631  0.00  0.00    +0.146 C 
ENDROOT
BRANCH   1   2
ATOM      2  C   LIG    1       24.477 -17.305   4.096  0.00  0.00    -0.004 A 
ATOM      3  C   LIG    1       24.277 -15.910   4.168  0.00  0.00    +0.007 A 
ATOM      4  C   LIG    1       23.045 -15.347   4.540  0.00  0.00    +0.000 A 
ATOM      5  C   LIG    1       21.986 -16.164   4.912  0.00  0.00    +0.000 A 
ATOM      6  C   LIG    1       22.157 -17.540   4.883  0.00  0.00    +0.000 A 
ATOM      7  C   LIG    1       23.378 -18.099   4.474  0.00  0.00    +0.007 A 
ENDBRANCH   1   2
BRANCH   1   8
ATOM      8  C   LIG    1       26.746 -18.367   4.903  0.00  0.00    +0.049 C 
ATOM      9  C   LIG    1       28.235 -17.987   4.734  0.00  0.00    +0.013 C 
BRANCH   8  10
ATOM     10  C   LIG    1       26.671 -19.912   5.274  0.00  0.00    +0.091 C 
BRANCH  10  11
ATOM     11  N   LIG    1       27.077 -20.338   6.656  0.00  0.00    -0.308 NA
ATOM     12  C   LIG    1       28.505 -20.570   6.881  0.00  0.00    +0.104 C 
ATOM     13  C   LIG    1       26.379 -21.570   7.062  0.00  0.00    +0.104 C 
ENDBRANCH  10  11
ENDBRANCH   8  10
ENDBRANCH   1   8
BRANCH   1  14
ATOM     14  O   LIG    1       25.635 -19.208   2.912  0.00  0.00    -0.453 OA
BRANCH  14  15
ATOM     15  C   LIG    1       24.486 -19.973   2.896  0.00  0.00    +0.308 C 
ATOM     16  O   LIG    1       23.475 -19.765   2.264  0.00  0.00    -0.251 OA
BRANCH  15  18
ATOM     17  C   LIG    1       23.383 -21.313   4.702  0.00  0.00    +0.015 C 
ATOM     18  C   LIG    1       24.644 -21.125   3.883  0.00  0.00    +0.117 C 
ENDBRANCH  15  18
ENDBRANCH  14  15
ENDBRANCH   1  14
BRANCH   1  19
ATOM     19  C   LIG    1       26.621 -16.885   2.684  0.00  0.00    +0.088 C 
BRANCH  19  20
ATOM     20  C   LIG    1       26.734 -15.388   3.001  0.00  0.00    -0.043 A 
ATOM     21  C   LIG    1       27.526 -14.957   4.083  0.00  0.00    +0.004 A 
ATOM     22  C   LIG    1       27.566 -13.611   4.472  0.00  0.00    +0.000 A 
ATOM     23  C   LIG    1       26.807 -12.663   3.792  0.00  0.00    +0.000 A 
ATOM     24  C   LIG    1       26.031 -13.063   2.707  0.00  0.00    +0.000 A 
ATOM     25  C   LIG    1       25.996 -14.412   2.312  0.00  0.00    +0.004 A 
ENDBRANCH  19  20
ENDBRANCH   1  19
TORSDOF 9
ENDMDL
