MODEL 1
REMARK VINA RESULT:      -9.2      0.000      0.000
REMARK  Name = *****
REMARK                            x       y       z     vdW  Elec       q    Type
REMARK                         _______ _______ _______ _____ _____    ______ ____
ROOT
ATOM      1  N   UNK A  0       24.755 -22.917   4.412  0.00  0.00    -0.342 N 
ATOM      2  H   UNK A  0       25.656 -22.543   4.113  0.00  0.00    +0.146 HD
ENDROOT
BRANCH   1   3
ATOM      3  C   UNK A  0       24.984 -24.102   5.125  0.00  0.00    +0.027 A 
ATOM      4  C   UNK A  0       25.477 -24.056   6.441  0.00  0.00    +0.024 A 
ATOM      5  C   UNK A  0       25.703 -25.238   7.170  0.00  0.00    +0.015 A 
ATOM      6  C   UNK A  0       25.455 -26.481   6.573  0.00  0.00    +0.037 A 
ATOM      7  C   UNK A  0       25.035 -26.520   5.250  0.00  0.00    +0.015 A 
ATOM      8  C   UNK A  0       24.795 -25.354   4.551  0.00  0.00    +0.024 A 
BRANCH   6   9
ATOM      9  C   UNK A  0       25.653 -27.740   7.341  0.00  0.00    +0.245 C 
ATOM     10  N   GLU A  1       24.893 -28.825   6.939  0.00  0.00    -0.298 N 
ATOM     11  H   GLU A  1       24.095 -28.672   6.352  0.00  0.00    +0.150 HD
ATOM     12  O   UNK A  0       26.457 -27.806   8.250  0.00  0.00    -0.270 OA
BRANCH  10  13
ATOM     13  CA  GLU A  1       24.955 -30.154   7.536  0.00  0.00    +0.182 C 
BRANCH  13  14
ATOM     14  C   GLU A  1       24.379 -31.235   6.591  0.00  0.00    +0.325 C 
ATOM     15  O   GLU A  1       24.803 -32.373   6.501  0.00  0.00    -0.249 OA
BRANCH  14  16
ATOM     16  OXT GLU A  1       23.374 -30.803   5.795  0.00  0.00    -0.479 OA
ATOM     17  HXT GLU A  1       23.457 -31.108   4.854  0.00  0.00    +0.295 HD
ENDBRANCH  14  16
ENDBRANCH  13  14
BRANCH  13  18
ATOM     18  CB  GLU A  1       24.233 -30.158   8.912  0.00  0.00    +0.045 C 
BRANCH  18  19
ATOM     19  CG  GLU A  1       25.167 -30.257  10.131  0.00  0.00    +0.123 C 
BRANCH  19  20
ATOM     20  CD  GLU A  1       26.475 -30.925   9.792  0.00  0.00    +0.305 C 
ATOM     21  OE1 GLU A  1       26.680 -32.119   9.702  0.00  0.00    -0.251 OA
BRANCH  20  22
ATOM     22  OE2 GLU A  1       27.452 -30.034   9.524  0.00  0.00    -0.481 OA
ATOM     23  HE2 GLU A  1       26.979 -29.215   9.269  0.00  0.00    +0.295 HD
ENDBRANCH  20  22
ENDBRANCH  19  20
ENDBRANCH  18  19
ENDBRANCH  13  18
ENDBRANCH  10  13
ENDBRANCH   6   9
ENDBRANCH   1   3
BRANCH   1  24
ATOM     24  C   UNK A  0       23.872 -21.886   5.009  0.00  0.00    +0.126 C 
BRANCH  24  32
ATOM     25  C   UNK A  0       29.453 -19.916   6.636  0.00  0.00    +0.195 C 
ATOM     26  N   UNK A  0       28.953 -20.560   7.715  0.00  0.00    -0.294 N 
ATOM     27  H   UNK A  0       29.552 -20.808   8.486  0.00  0.00    +0.172 HD
ATOM     28  C   UNK A  0       27.622 -20.810   7.871  0.00  0.00    +0.276 C 
ATOM     29  O   UNK A  0       27.217 -21.371   8.885  0.00  0.00    -0.266 OA
ATOM     30  C   UNK A  0       26.743 -20.412   6.722  0.00  0.00    +0.142 C 
ATOM     31  N   UNK A  0       25.363 -20.689   6.683  0.00  0.00    -0.261 N 
ATOM     32  C   UNK A  0       24.636 -20.589   5.372  0.00  0.00    +0.115 C 
ATOM     33  C   UNK A  0       25.532 -20.211   4.180  0.00  0.00    +0.127 C 
ATOM     34  N   UNK A  0       26.627 -19.364   4.608  0.00  0.00    -0.326 N 
ATOM     35  H   UNK A  0       27.259 -19.071   3.867  0.00  0.00    +0.148 HD
ATOM     36  C   UNK A  0       24.593 -20.803   7.835  0.00  0.00    +0.333 C 
ATOM     37  O   UNK A  0       23.377 -20.973   7.866  0.00  0.00    -0.279 OA
ATOM     38  C   UNK A  0       27.370 -19.775   5.701  0.00  0.00    +0.149 C 
ATOM     39  N   UNK A  0       28.713 -19.516   5.660  0.00  0.00    -0.199 NA
BRANCH  25  40
ATOM     40  N   UNK A  0       30.792 -19.714   6.605  0.00  0.00    -0.329 N 
ATOM     41  H   UNK A  0       31.306 -19.976   7.436  0.00  0.00    +0.145 HD
ATOM     42  H   UNK A  0       31.205 -20.100   5.760  0.00  0.00    +0.145 HD
ENDBRANCH  25  40
ENDBRANCH  24  32
ENDBRANCH   1  24
TORSDOF 12
ENDMDL
MODEL 2
REMARK VINA RESULT:      -8.9      1.052      2.542
REMARK  Name = *****
REMARK                            x       y       z     vdW  Elec       q    Type
REMARK                         _______ _______ _______ _____ _____    ______ ____
ROOT
ATOM      1  N   UNK A  0       24.937 -23.440   4.573  0.00  0.00    -0.342 N 
ATOM      2  H   UNK A  0       25.900 -23.120   4.681  0.00  0.00    +0.146 HD
ENDROOT
BRANCH   1   3
ATOM      3  C   UNK A  0       24.857 -24.761   5.039  0.00  0.00    +0.027 A 
ATOM      4  C   UNK A  0       24.168 -25.054   6.229  0.00  0.00    +0.024 A 
ATOM      5  C   UNK A  0       24.073 -26.376   6.702  0.00  0.00    +0.015 A 
ATOM      6  C   UNK A  0       24.690 -27.414   5.991  0.00  0.00    +0.037 A 
ATOM      7  C   UNK A  0       25.427 -27.107   4.856  0.00  0.00    +0.015 A 
ATOM      8  C   UNK A  0       25.495 -25.809   4.388  0.00  0.00    +0.024 A 
BRANCH   6   9
ATOM      9  C   UNK A  0       24.569 -28.822   6.457  0.00  0.00    +0.245 C 
ATOM     10  N   GLU A  1       25.593 -29.287   7.265  0.00  0.00    -0.298 N 
ATOM     11  H   GLU A  1       26.458 -28.781   7.297  0.00  0.00    +0.150 HD
ATOM     12  O   UNK A  0       23.609 -29.506   6.160  0.00  0.00    -0.270 OA
BRANCH  10  13
ATOM     13  CA  GLU A  1       25.654 -30.621   7.851  0.00  0.00    +0.182 C 
BRANCH  13  14
ATOM     14  C   GLU A  1       26.612 -30.672   9.064  0.00  0.00    +0.325 C 
ATOM     15  O   GLU A  1       26.691 -31.603   9.845  0.00  0.00    -0.249 OA
BRANCH  14  16
ATOM     16  OXT GLU A  1       27.343 -29.549   9.247  0.00  0.00    -0.479 OA
ATOM     17  HXT GLU A  1       26.964 -28.752   8.792  0.00  0.00    +0.295 HD
ENDBRANCH  14  16
ENDBRANCH  13  14
BRANCH  13  18
ATOM     18  CB  GLU A  1       26.051 -31.664   6.768  0.00  0.00    +0.045 C 
BRANCH  18  19
ATOM     19  CG  GLU A  1       25.110 -32.877   6.665  0.00  0.00    +0.123 C 
BRANCH  19  20
ATOM     20  CD  GLU A  1       24.344 -32.892   5.367  0.00  0.00    +0.305 C 
ATOM     21  OE1 GLU A  1       24.611 -33.536   4.372  0.00  0.00    -0.251 OA
BRANCH  20  22
ATOM     22  OE2 GLU A  1       23.234 -32.127   5.417  0.00  0.00    -0.481 OA
ATOM     23  HE2 GLU A  1       22.589 -32.587   4.840  0.00  0.00    +0.295 HD
ENDBRANCH  20  22
ENDBRANCH  19  20
ENDBRANCH  18  19
ENDBRANCH  13  18
ENDBRANCH  10  13
ENDBRANCH   6   9
ENDBRANCH   1   3
BRANCH   1  24
ATOM     24  C   UNK A  0       23.942 -22.453   5.057  0.00  0.00    +0.126 C 
BRANCH  24  32
ATOM     25  C   UNK A  0       29.317 -19.932   6.616  0.00  0.00    +0.195 C 
ATOM     26  N   UNK A  0       28.884 -20.598   7.710  0.00  0.00    -0.294 N 
ATOM     27  H   UNK A  0       29.506 -20.773   8.482  0.00  0.00    +0.172 HD
ATOM     28  C   UNK A  0       27.583 -20.970   7.877  0.00  0.00    +0.276 C 
ATOM     29  O   UNK A  0       27.236 -21.547   8.904  0.00  0.00    -0.266 OA
ATOM     30  C   UNK A  0       26.667 -20.680   6.726  0.00  0.00    +0.142 C 
ATOM     31  N   UNK A  0       25.319 -21.087   6.699  0.00  0.00    -0.261 N 
ATOM     32  C   UNK A  0       24.581 -21.082   5.391  0.00  0.00    +0.115 C 
ATOM     33  C   UNK A  0       25.434 -20.645   4.186  0.00  0.00    +0.127 C 
ATOM     34  N   UNK A  0       26.445 -19.689   4.592  0.00  0.00    -0.326 N 
ATOM     35  H   UNK A  0       27.044 -19.353   3.842  0.00  0.00    +0.148 HD
ATOM     36  C   UNK A  0       24.567 -21.250   7.858  0.00  0.00    +0.333 C 
ATOM     37  O   UNK A  0       23.373 -21.534   7.898  0.00  0.00    -0.279 OA
ATOM     38  C   UNK A  0       27.227 -20.006   5.689  0.00  0.00    +0.149 C 
ATOM     39  N   UNK A  0       28.540 -19.622   5.637  0.00  0.00    -0.199 NA
BRANCH  25  40
ATOM     40  N   UNK A  0       30.630 -19.604   6.574  0.00  0.00    -0.329 N 
ATOM     41  H   UNK A  0       30.939 -18.898   7.230  0.00  0.00    +0.145 HD
ATOM     42  H   UNK A  0       31.219 -20.432   6.596  0.00  0.00    +0.145 HD
ENDBRANCH  25  40
ENDBRANCH  24  32
ENDBRANCH   1  24
TORSDOF 12
ENDMDL
MODEL 3
REMARK VINA RESULT:      -8.9      1.358      1.857
REMARK  Name = *****
REMARK                            x       y       z     vdW  Elec       q    Type
REMARK                         _______ _______ _______ _____ _____    ______ ____
ROOT
ATOM      1  N   UNK A  0       24.976 -23.232   4.589  0.00  0.00    -0.342 N 
ATOM      2  H   UNK A  0       25.944 -22.933   4.712  0.00  0.00    +0.146 HD
ENDROOT
BRANCH   1   3
ATOM      3  C   UNK A  0       24.855 -24.545   5.064  0.00  0.00    +0.027 A 
ATOM      4  C   UNK A  0       25.352 -25.622   4.309  0.00  0.00    +0.024 A 
ATOM      5  C   UNK A  0       25.245 -26.944   4.778  0.00  0.00    +0.015 A 
ATOM      6  C   UNK A  0       24.616 -27.197   6.004  0.00  0.00    +0.037 A 
ATOM      7  C   UNK A  0       24.066 -26.136   6.710  0.00  0.00    +0.015 A 
ATOM      8  C   UNK A  0       24.196 -24.840   6.251  0.00  0.00    +0.024 A 
BRANCH   6   9
ATOM      9  C   UNK A  0       24.526 -28.585   6.533  0.00  0.00    +0.245 C 
ATOM     10  N   GLU A  1       25.324 -28.873   7.628  0.00  0.00    -0.298 N 
ATOM     11  H   GLU A  1       26.081 -28.257   7.855  0.00  0.00    +0.150 HD
ATOM     12  O   UNK A  0       23.773 -29.403   6.041  0.00  0.00    -0.270 OA
BRANCH  10  13
ATOM     13  CA  GLU A  1       25.365 -30.158   8.316  0.00  0.00    +0.182 C 
BRANCH  13  14
ATOM     14  C   GLU A  1       24.008 -30.499   8.976  0.00  0.00    +0.325 C 
ATOM     15  O   GLU A  1       23.645 -30.088  10.065  0.00  0.00    -0.249 OA
BRANCH  14  16
ATOM     16  OXT GLU A  1       23.244 -31.363   8.271  0.00  0.00    -0.479 OA
ATOM     17  HXT GLU A  1       22.734 -31.996   8.840  0.00  0.00    +0.295 HD
ENDBRANCH  14  16
ENDBRANCH  13  14
BRANCH  13  18
ATOM     18  CB  GLU A  1       26.522 -30.173   9.354  0.00  0.00    +0.045 C 
BRANCH  18  19
ATOM     19  CG  GLU A  1       26.893 -28.795   9.927  0.00  0.00    +0.123 C 
BRANCH  19  20
ATOM     20  CD  GLU A  1       27.780 -28.905  11.141  0.00  0.00    +0.305 C 
ATOM     21  OE1 GLU A  1       28.615 -29.760  11.356  0.00  0.00    -0.251 OA
BRANCH  20  22
ATOM     22  OE2 GLU A  1       27.600 -27.883  12.004  0.00  0.00    -0.481 OA
ATOM     23  HE2 GLU A  1       27.943 -28.217  12.859  0.00  0.00    +0.295 HD
ENDBRANCH  20  22
ENDBRANCH  19  20
ENDBRANCH  18  19
ENDBRANCH  13  18
ENDBRANCH  10  13
ENDBRANCH   6   9
ENDBRANCH   1   3
BRANCH   1  24
ATOM     24  C   UNK A  0       23.997 -22.216   5.047  0.00  0.00    +0.126 C 
BRANCH  24  32
ATOM     25  C   UNK A  0       29.449 -19.857   6.594  0.00  0.00    +0.195 C 
ATOM     26  N   UNK A  0       29.024 -20.559   7.671  0.00  0.00    -0.294 N 
ATOM     27  H   UNK A  0       29.658 -20.776   8.422  0.00  0.00    +0.172 HD
ATOM     28  C   UNK A  0       27.720 -20.913   7.849  0.00  0.00    +0.276 C 
ATOM     29  O   UNK A  0       27.383 -21.524   8.860  0.00  0.00    -0.266 OA
ATOM     30  C   UNK A  0       26.787 -20.561   6.729  0.00  0.00    +0.142 C 
ATOM     31  N   UNK A  0       25.432 -20.942   6.713  0.00  0.00    -0.261 N 
ATOM     32  C   UNK A  0       24.668 -20.872   5.422  0.00  0.00    +0.115 C 
ATOM     33  C   UNK A  0       25.505 -20.403   4.218  0.00  0.00    +0.127 C 
ATOM     34  N   UNK A  0       26.542 -19.483   4.641  0.00  0.00    -0.326 N 
ATOM     35  H   UNK A  0       27.133 -19.128   3.892  0.00  0.00    +0.148 HD
ATOM     36  C   UNK A  0       24.699 -21.137   7.880  0.00  0.00    +0.333 C 
ATOM     37  O   UNK A  0       23.501 -21.401   7.933  0.00  0.00    -0.279 OA
ATOM     38  C   UNK A  0       27.340 -19.857   5.708  0.00  0.00    +0.149 C 
ATOM     39  N   UNK A  0       28.658 -19.495   5.644  0.00  0.00    -0.199 NA
BRANCH  25  40
ATOM     40  N   UNK A  0       30.767 -19.552   6.539  0.00  0.00    -0.329 N 
ATOM     41  H   UNK A  0       31.023 -18.767   5.954  0.00  0.00    +0.145 HD
ATOM     42  H   UNK A  0       31.171 -19.486   7.469  0.00  0.00    +0.145 HD
ENDBRANCH  25  40
ENDBRANCH  24  32
ENDBRANCH   1  24
TORSDOF 12
ENDMDL
MODEL 4
REMARK VINA RESULT:      -8.9      1.295      1.509
REMARK  Name = *****
REMARK                            x       y       z     vdW  Elec       q    Type
REMARK                         _______ _______ _______ _____ _____    ______ ____
ROOT
ATOM      1  N   UNK A  0       24.777 -23.050   4.437  0.00  0.00    -0.342 N 
ATOM      2  H   UNK A  0       25.673 -22.659   4.144  0.00  0.00    +0.146 HD
ENDROOT
BRANCH   1   3
ATOM      3  C   UNK A  0       25.022 -24.236   5.144  0.00  0.00    +0.027 A 
ATOM      4  C   UNK A  0       25.468 -24.188   6.477  0.00  0.00    +0.024 A 
ATOM      5  C   UNK A  0       25.711 -25.371   7.200  0.00  0.00    +0.015 A 
ATOM      6  C   UNK A  0       25.526 -26.614   6.581  0.00  0.00    +0.037 A 
ATOM      7  C   UNK A  0       25.153 -26.652   5.244  0.00  0.00    +0.015 A 
ATOM      8  C   UNK A  0       24.897 -25.486   4.550  0.00  0.00    +0.024 A 
BRANCH   6   9
ATOM      9  C   UNK A  0       25.742 -27.875   7.341  0.00  0.00    +0.245 C 
ATOM     10  N   GLU A  1       25.259 -29.032   6.753  0.00  0.00    -0.298 N 
ATOM     11  H   GLU A  1       24.593 -28.959   6.007  0.00  0.00    +0.150 HD
ATOM     12  O   UNK A  0       26.331 -27.879   8.404  0.00  0.00    -0.270 OA
BRANCH  10  13
ATOM     13  CA  GLU A  1       25.392 -30.371   7.314  0.00  0.00    +0.182 C 
BRANCH  13  14
ATOM     14  C   GLU A  1       25.697 -31.423   6.222  0.00  0.00    +0.325 C 
ATOM     15  O   GLU A  1       26.713 -32.093   6.172  0.00  0.00    -0.249 OA
BRANCH  14  16
ATOM     16  OXT GLU A  1       24.757 -31.514   5.254  0.00  0.00    -0.479 OA
ATOM     17  HXT GLU A  1       23.958 -30.951   5.426  0.00  0.00    +0.295 HD
ENDBRANCH  14  16
ENDBRANCH  13  14
BRANCH  13  18
ATOM     18  CB  GLU A  1       24.116 -30.743   8.121  0.00  0.00    +0.045 C 
BRANCH  18  19
ATOM     19  CG  GLU A  1       24.131 -30.298   9.594  0.00  0.00    +0.123 C 
BRANCH  19  20
ATOM     20  CD  GLU A  1       22.762 -30.363  10.220  0.00  0.00    +0.305 C 
ATOM     21  OE1 GLU A  1       21.785 -30.934   9.777  0.00  0.00    -0.251 OA
BRANCH  20  22
ATOM     22  OE2 GLU A  1       22.714 -29.743  11.418  0.00  0.00    -0.481 OA
ATOM     23  HE2 GLU A  1       21.758 -29.632  11.602  0.00  0.00    +0.295 HD
ENDBRANCH  20  22
ENDBRANCH  19  20
ENDBRANCH  18  19
ENDBRANCH  13  18
ENDBRANCH  10  13
ENDBRANCH   6   9
ENDBRANCH   1   3
BRANCH   1  24
ATOM     24  C   UNK A  0       23.873 -22.038   5.035  0.00  0.00    +0.126 C 
BRANCH  24  32
ATOM     25  C   UNK A  0       29.411 -19.915   6.617  0.00  0.00    +0.195 C 
ATOM     26  N   UNK A  0       28.930 -20.557   7.707  0.00  0.00    -0.294 N 
ATOM     27  H   UNK A  0       29.538 -20.782   8.478  0.00  0.00    +0.172 HD
ATOM     28  C   UNK A  0       27.606 -20.837   7.870  0.00  0.00    +0.276 C 
ATOM     29  O   UNK A  0       27.218 -21.396   8.892  0.00  0.00    -0.266 OA
ATOM     30  C   UNK A  0       26.714 -20.475   6.720  0.00  0.00    +0.142 C 
ATOM     31  N   UNK A  0       25.341 -20.785   6.689  0.00  0.00    -0.261 N 
ATOM     32  C   UNK A  0       24.607 -20.718   5.380  0.00  0.00    +0.115 C 
ATOM     33  C   UNK A  0       25.490 -20.334   4.180  0.00  0.00    +0.127 C 
ATOM     34  N   UNK A  0       26.565 -19.455   4.594  0.00  0.00    -0.326 N 
ATOM     35  H   UNK A  0       27.188 -19.156   3.847  0.00  0.00    +0.148 HD
ATOM     36  C   UNK A  0       24.577 -20.904   7.846  0.00  0.00    +0.333 C 
ATOM     37  O   UNK A  0       23.367 -21.103   7.883  0.00  0.00    -0.279 OA
ATOM     38  C   UNK A  0       27.322 -19.835   5.689  0.00  0.00    +0.149 C 
ATOM     39  N   UNK A  0       28.658 -19.544   5.640  0.00  0.00    -0.199 NA
BRANCH  25  40
ATOM     40  N   UNK A  0       30.744 -19.680   6.579  0.00  0.00    -0.329 N 
ATOM     41  H   UNK A  0       31.055 -18.951   5.950  0.00  0.00    +0.145 HD
ATOM     42  H   UNK A  0       31.127 -19.569   7.514  0.00  0.00    +0.145 HD
ENDBRANCH  25  40
ENDBRANCH  24  32
ENDBRANCH   1  24
TORSDOF 12
ENDMDL
MODEL 5
REMARK VINA RESULT:      -8.5      2.719      9.349
REMARK  Name = *****
REMARK                            x       y       z     vdW  Elec       q    Type
REMARK                         _______ _______ _______ _____ _____    ______ ____
ROOT
ATOM      1  N   UNK A  0       25.465 -29.747   6.938  0.00  0.00    -0.342 N 
ATOM      2  H   UNK A  0       25.909 -30.159   6.116  0.00  0.00    +0.146 HD
ENDROOT
BRANCH   1   3
ATOM      3  C   UNK A  0       25.334 -28.368   6.723  0.00  0.00    +0.027 A 
ATOM      4  C   UNK A  0       26.127 -27.458   7.443  0.00  0.00    +0.024 A 
ATOM      5  C   UNK A  0       26.010 -26.072   7.231  0.00  0.00    +0.015 A 
ATOM      6  C   UNK A  0       25.077 -25.587   6.305  0.00  0.00    +0.037 A 
ATOM      7  C   UNK A  0       24.249 -26.488   5.650  0.00  0.00    +0.015 A 
ATOM      8  C   UNK A  0       24.387 -27.847   5.849  0.00  0.00    +0.024 A 
BRANCH   6   9
ATOM      9  C   UNK A  0       24.966 -24.127   6.041  0.00  0.00    +0.245 C 
ATOM     10  N   GLU A  1       24.995 -23.302   7.154  0.00  0.00    -0.298 N 
ATOM     11  H   GLU A  1       24.837 -23.700   8.060  0.00  0.00    +0.150 HD
ATOM     12  O   UNK A  0       24.881 -23.693   4.909  0.00  0.00    -0.270 OA
BRANCH  10  13
ATOM     13  CA  GLU A  1       24.930 -21.846   7.115  0.00  0.00    +0.182 C 
BRANCH  13  14
ATOM     14  C   GLU A  1       25.781 -21.204   8.236  0.00  0.00    +0.325 C 
ATOM     15  O   GLU A  1       25.706 -21.499   9.416  0.00  0.00    -0.249 OA
BRANCH  14  16
ATOM     16  OXT GLU A  1       26.602 -20.214   7.818  0.00  0.00    -0.479 OA
ATOM     17  HXT GLU A  1       26.937 -20.343   6.893  0.00  0.00    +0.295 HD
ENDBRANCH  14  16
ENDBRANCH  13  14
BRANCH  13  18
ATOM     18  CB  GLU A  1       23.451 -21.374   7.182  0.00  0.00    +0.045 C 
BRANCH  18  19
ATOM     19  CG  GLU A  1       23.061 -20.320   6.131  0.00  0.00    +0.123 C 
BRANCH  19  20
ATOM     20  CD  GLU A  1       23.862 -20.461   4.862  0.00  0.00    +0.305 C 
ATOM     21  OE1 GLU A  1       24.846 -19.821   4.547  0.00  0.00    -0.251 OA
BRANCH  20  22
ATOM     22  OE2 GLU A  1       23.406 -21.457   4.074  0.00  0.00    -0.481 OA
ATOM     23  HE2 GLU A  1       24.204 -21.803   3.623  0.00  0.00    +0.295 HD
ENDBRANCH  20  22
ENDBRANCH  19  20
ENDBRANCH  18  19
ENDBRANCH  13  18
ENDBRANCH  10  13
ENDBRANCH   6   9
ENDBRANCH   1   3
BRANCH   1  24
ATOM     24  C   UNK A  0       24.282 -30.513   7.399  0.00  0.00    +0.126 C 
BRANCH  24  32
ATOM     25  C   UNK A  0       25.860 -28.113  12.824  0.00  0.00    +0.195 C 
ATOM     26  N   UNK A  0       27.018 -28.338  12.162  0.00  0.00    -0.294 N 
ATOM     27  H   UNK A  0       27.881 -27.936  12.491  0.00  0.00    +0.172 HD
ATOM     28  C   UNK A  0       27.105 -29.186  11.099  0.00  0.00    +0.276 C 
ATOM     29  O   UNK A  0       28.187 -29.377  10.552  0.00  0.00    -0.266 OA
ATOM     30  C   UNK A  0       25.811 -29.792  10.638  0.00  0.00    +0.142 C 
ATOM     31  N   UNK A  0       25.713 -30.610   9.497  0.00  0.00    -0.261 N 
ATOM     32  C   UNK A  0       24.359 -30.875   8.903  0.00  0.00    +0.115 C 
ATOM     33  C   UNK A  0       23.202 -30.164   9.627  0.00  0.00    +0.127 C 
ATOM     34  N   UNK A  0       23.494 -30.015  11.039  0.00  0.00    -0.326 N 
ATOM     35  H   UNK A  0       22.766 -29.556  11.581  0.00  0.00    +0.148 HD
ATOM     36  C   UNK A  0       26.774 -31.388   9.044  0.00  0.00    +0.333 C 
ATOM     37  O   UNK A  0       26.731 -32.171   8.100  0.00  0.00    -0.279 OA
ATOM     38  C   UNK A  0       24.724 -29.486  11.390  0.00  0.00    +0.149 C 
ATOM     39  N   UNK A  0       24.746 -28.663  12.483  0.00  0.00    -0.199 NA
BRANCH  25  40
ATOM     40  N   UNK A  0       25.906 -27.260  13.875  0.00  0.00    -0.329 N 
ATOM     41  H   UNK A  0       25.423 -27.553  14.714  0.00  0.00    +0.145 HD
ATOM     42  H   UNK A  0       26.859 -26.960  14.066  0.00  0.00    +0.145 HD
ENDBRANCH  25  40
ENDBRANCH  24  32
ENDBRANCH   1  24
TORSDOF 12
ENDMDL
MODEL 6
REMARK VINA RESULT:      -8.4      2.627      9.294
REMARK  Name = *****
REMARK                            x       y       z     vdW  Elec       q    Type
REMARK                         _______ _______ _______ _____ _____    ______ ____
ROOT
ATOM      1  N   UNK A  0       25.747 -29.169   6.702  0.00  0.00    -0.342 N 
ATOM      2  H   UNK A  0       26.425 -29.371   5.967  0.00  0.00    +0.146 HD
ENDROOT
BRANCH   1   3
ATOM      3  C   UNK A  0       25.416 -27.808   6.636  0.00  0.00    +0.027 A 
ATOM      4  C   UNK A  0       24.281 -27.387   5.920  0.00  0.00    +0.024 A 
ATOM      5  C   UNK A  0       23.933 -26.025   5.853  0.00  0.00    +0.015 A 
ATOM      6  C   UNK A  0       24.738 -25.070   6.489  0.00  0.00    +0.037 A 
ATOM      7  C   UNK A  0       25.894 -25.487   7.134  0.00  0.00    +0.015 A 
ATOM      8  C   UNK A  0       26.215 -26.828   7.213  0.00  0.00    +0.024 A 
BRANCH   6   9
ATOM      9  C   UNK A  0       24.365 -23.630   6.459  0.00  0.00    +0.245 C 
ATOM     10  N   GLU A  1       25.405 -22.735   6.276  0.00  0.00    -0.298 N 
ATOM     11  H   GLU A  1       26.348 -23.045   6.421  0.00  0.00    +0.150 HD
ATOM     12  O   UNK A  0       23.208 -23.274   6.564  0.00  0.00    -0.270 OA
BRANCH  10  13
ATOM     13  CA  GLU A  1       25.254 -21.287   6.187  0.00  0.00    +0.182 C 
BRANCH  13  14
ATOM     14  C   GLU A  1       25.375 -20.786   4.729  0.00  0.00    +0.325 C 
ATOM     15  O   GLU A  1       24.505 -20.900   3.883  0.00  0.00    -0.249 OA
BRANCH  14  16
ATOM     16  OXT GLU A  1       26.577 -20.248   4.420  0.00  0.00    -0.479 OA
ATOM     17  HXT GLU A  1       27.107 -19.983   5.215  0.00  0.00    +0.295 HD
ENDBRANCH  14  16
ENDBRANCH  13  14
BRANCH  13  18
ATOM     18  CB  GLU A  1       26.282 -20.584   7.117  0.00  0.00    +0.045 C 
BRANCH  18  19
ATOM     19  CG  GLU A  1       27.176 -21.537   7.929  0.00  0.00    +0.123 C 
BRANCH  19  20
ATOM     20  CD  GLU A  1       28.641 -21.324   7.642  0.00  0.00    +0.305 C 
ATOM     21  OE1 GLU A  1       29.548 -21.328   8.449  0.00  0.00    -0.251 OA
BRANCH  20  22
ATOM     22  OE2 GLU A  1       28.889 -21.171   6.325  0.00  0.00    -0.481 OA
ATOM     23  HE2 GLU A  1       28.040 -21.385   5.885  0.00  0.00    +0.295 HD
ENDBRANCH  20  22
ENDBRANCH  19  20
ENDBRANCH  18  19
ENDBRANCH  13  18
ENDBRANCH  10  13
ENDBRANCH   6   9
ENDBRANCH   1   3
BRANCH   1  24
ATOM     24  C   UNK A  0       24.652 -30.167   6.768  0.00  0.00    +0.126 C 
BRANCH  24  32
ATOM     25  C   UNK A  0       25.674 -28.933  12.694  0.00  0.00    +0.195 C 
ATOM     26  N   UNK A  0       26.890 -29.141  12.138  0.00  0.00    -0.294 N 
ATOM     27  H   UNK A  0       27.729 -28.886  12.634  0.00  0.00    +0.172 HD
ATOM     28  C   UNK A  0       27.055 -29.790  10.951  0.00  0.00    +0.276 C 
ATOM     29  O   UNK A  0       28.184 -29.979  10.506  0.00  0.00    -0.266 OA
ATOM     30  C   UNK A  0       25.794 -30.181  10.239  0.00  0.00    +0.142 C 
ATOM     31  N   UNK A  0       25.789 -30.769   8.960  0.00  0.00    -0.261 N 
ATOM     32  C   UNK A  0       24.508 -30.798   8.174  0.00  0.00    +0.115 C 
ATOM     33  C   UNK A  0       23.319 -30.124   8.882  0.00  0.00    +0.127 C 
ATOM     34  N   UNK A  0       23.434 -30.258  10.321  0.00  0.00    -0.326 N 
ATOM     35  H   UNK A  0       22.676 -29.838  10.853  0.00  0.00    +0.148 HD
ATOM     36  C   UNK A  0       26.843 -31.548   8.493  0.00  0.00    +0.333 C 
ATOM     37  O   UNK A  0       26.869 -32.142   7.419  0.00  0.00    -0.279 OA
ATOM     38  C   UNK A  0       24.641 -29.916  10.904  0.00  0.00    +0.149 C 
ATOM     39  N   UNK A  0       24.579 -29.308  12.129  0.00  0.00    -0.199 NA
BRANCH  25  40
ATOM     40  N   UNK A  0       25.642 -28.290  13.885  0.00  0.00    -0.329 N 
ATOM     41  H   UNK A  0       26.206 -27.453  13.959  0.00  0.00    +0.145 HD
ATOM     42  H   UNK A  0       24.687 -28.139  14.198  0.00  0.00    +0.145 HD
ENDBRANCH  25  40
ENDBRANCH  24  32
ENDBRANCH   1  24
TORSDOF 12
ENDMDL
MODEL 7
REMARK VINA RESULT:      -8.3      2.979     10.152
REMARK  Name = *****
REMARK                            x       y       z     vdW  Elec       q    Type
REMARK                         _______ _______ _______ _____ _____    ______ ____
ROOT
ATOM      1  N   UNK A  0       25.342 -29.762   6.862  0.00  0.00    -0.342 N 
ATOM      2  H   UNK A  0       24.418 -30.174   6.732  0.00  0.00    +0.146 HD
ENDROOT
BRANCH   1   3
ATOM      3  C   UNK A  0       25.241 -28.379   6.657  0.00  0.00    +0.027 A 
ATOM      4  C   UNK A  0       26.013 -27.488   7.423  0.00  0.00    +0.024 A 
ATOM      5  C   UNK A  0       25.927 -26.098   7.221  0.00  0.00    +0.015 A 
ATOM      6  C   UNK A  0       25.045 -25.590   6.258  0.00  0.00    +0.037 A 
ATOM      7  C   UNK A  0       24.235 -26.472   5.554  0.00  0.00    +0.015 A 
ATOM      8  C   UNK A  0       24.344 -27.835   5.745  0.00  0.00    +0.024 A 
BRANCH   6   9
ATOM      9  C   UNK A  0       24.968 -24.126   6.004  0.00  0.00    +0.245 C 
ATOM     10  N   GLU A  1       24.983 -23.312   7.125  0.00  0.00    -0.298 N 
ATOM     11  H   GLU A  1       24.794 -23.715   8.023  0.00  0.00    +0.150 HD
ATOM     12  O   UNK A  0       24.921 -23.681   4.874  0.00  0.00    -0.270 OA
BRANCH  10  13
ATOM     13  CA  GLU A  1       24.947 -21.854   7.098  0.00  0.00    +0.182 C 
BRANCH  13  14
ATOM     14  C   GLU A  1       25.824 -21.238   8.213  0.00  0.00    +0.325 C 
ATOM     15  O   GLU A  1       25.736 -21.517   9.396  0.00  0.00    -0.249 OA
BRANCH  14  16
ATOM     16  OXT GLU A  1       26.686 -20.288   7.786  0.00  0.00    -0.479 OA
ATOM     17  HXT GLU A  1       26.584 -19.421   8.258  0.00  0.00    +0.295 HD
ENDBRANCH  14  16
ENDBRANCH  13  14
BRANCH  13  18
ATOM     18  CB  GLU A  1       23.478 -21.354   7.187  0.00  0.00    +0.045 C 
BRANCH  18  19
ATOM     19  CG  GLU A  1       23.107 -20.257   6.174  0.00  0.00    +0.123 C 
BRANCH  19  20
ATOM     20  CD  GLU A  1       23.807 -20.446   4.852  0.00  0.00    +0.305 C 
ATOM     21  OE1 GLU A  1       24.785 -19.845   4.454  0.00  0.00    -0.251 OA
BRANCH  20  22
ATOM     22  OE2 GLU A  1       23.258 -21.436   4.117  0.00  0.00    -0.481 OA
ATOM     23  HE2 GLU A  1       22.382 -21.090   3.849  0.00  0.00    +0.295 HD
ENDBRANCH  20  22
ENDBRANCH  19  20
ENDBRANCH  18  19
ENDBRANCH  13  18
ENDBRANCH  10  13
ENDBRANCH   6   9
ENDBRANCH   1   3
BRANCH   1  24
ATOM     24  C   UNK A  0       26.027 -30.253   8.083  0.00  0.00    +0.126 C 
BRANCH  24  32
ATOM     25  C   UNK A  0       20.653 -30.597  11.031  0.00  0.00    +0.195 C 
ATOM     26  N   UNK A  0       21.460 -29.838  11.808  0.00  0.00    -0.294 N 
ATOM     27  H   UNK A  0       21.078 -29.301  12.569  0.00  0.00    +0.172 HD
ATOM     28  C   UNK A  0       22.817 -29.840  11.680  0.00  0.00    +0.276 C 
ATOM     29  O   UNK A  0       23.505 -29.155  12.432  0.00  0.00    -0.266 OA
ATOM     30  C   UNK A  0       23.368 -30.665  10.555  0.00  0.00    +0.142 C 
ATOM     31  N   UNK A  0       24.736 -30.696  10.227  0.00  0.00    -0.261 N 
ATOM     32  C   UNK A  0       25.156 -31.244   8.893  0.00  0.00    +0.115 C 
ATOM     33  C   UNK A  0       23.986 -31.694   8.000  0.00  0.00    +0.127 C 
ATOM     34  N   UNK A  0       22.880 -32.175   8.804  0.00  0.00    -0.326 N 
ATOM     35  H   UNK A  0       22.072 -32.494   8.276  0.00  0.00    +0.148 HD
ATOM     36  C   UNK A  0       25.734 -30.480  11.173  0.00  0.00    +0.333 C 
ATOM     37  O   UNK A  0       26.942 -30.561  10.965  0.00  0.00    -0.279 OA
ATOM     38  C   UNK A  0       22.452 -31.378   9.852  0.00  0.00    +0.149 C 
ATOM     39  N   UNK A  0       21.105 -31.357  10.093  0.00  0.00    -0.199 NA
BRANCH  25  40
ATOM     40  N   UNK A  0       19.322 -30.521  11.265  0.00  0.00    -0.329 N 
ATOM     41  H   UNK A  0       18.766 -30.055  10.559  0.00  0.00    +0.145 HD
ATOM     42  H   UNK A  0       18.939 -31.427  11.519  0.00  0.00    +0.145 HD
ENDBRANCH  25  40
ENDBRANCH  24  32
ENDBRANCH   1  24
TORSDOF 12
ENDMDL
MODEL 8
REMARK VINA RESULT:      -8.1      2.198      4.386
REMARK  Name = *****
REMARK                            x       y       z     vdW  Elec       q    Type
REMARK                         _______ _______ _______ _____ _____    ______ ____
ROOT
ATOM      1  N   UNK A  0       25.544 -23.938   5.918  0.00  0.00    -0.342 N 
ATOM      2  H   UNK A  0       25.949 -23.794   4.992  0.00  0.00    +0.146 HD
ENDROOT
BRANCH   1   3
ATOM      3  C   UNK A  0       25.339 -25.313   6.102  0.00  0.00    +0.027 A 
ATOM      4  C   UNK A  0       26.140 -26.037   7.003  0.00  0.00    +0.024 A 
ATOM      5  C   UNK A  0       25.939 -27.415   7.202  0.00  0.00    +0.015 A 
ATOM      6  C   UNK A  0       24.941 -28.083   6.479  0.00  0.00    +0.037 A 
ATOM      7  C   UNK A  0       24.202 -27.376   5.541  0.00  0.00    +0.015 A 
ATOM      8  C   UNK A  0       24.393 -26.019   5.369  0.00  0.00    +0.024 A 
BRANCH   6   9
ATOM      9  C   UNK A  0       24.690 -29.532   6.704  0.00  0.00    +0.245 C 
ATOM     10  N   GLU A  1       25.663 -30.217   7.413  0.00  0.00    -0.298 N 
ATOM     11  H   GLU A  1       26.570 -29.804   7.520  0.00  0.00    +0.150 HD
ATOM     12  O   UNK A  0       23.673 -30.067   6.307  0.00  0.00    -0.270 OA
BRANCH  10  13
ATOM     13  CA  GLU A  1       25.598 -31.630   7.767  0.00  0.00    +0.182 C 
BRANCH  13  14
ATOM     14  C   GLU A  1       26.233 -31.904   9.151  0.00  0.00    +0.325 C 
ATOM     15  O   GLU A  1       27.311 -32.447   9.323  0.00  0.00    -0.249 OA
BRANCH  14  16
ATOM     16  OXT GLU A  1       25.461 -31.545  10.201  0.00  0.00    -0.479 OA
ATOM     17  HXT GLU A  1       24.502 -31.438   9.969  0.00  0.00    +0.295 HD
ENDBRANCH  14  16
ENDBRANCH  13  14
BRANCH  13  18
ATOM     18  CB  GLU A  1       26.262 -32.491   6.656  0.00  0.00    +0.045 C 
BRANCH  18  19
ATOM     19  CG  GLU A  1       25.366 -33.600   6.078  0.00  0.00    +0.123 C 
BRANCH  19  20
ATOM     20  CD  GLU A  1       24.358 -33.061   5.095  0.00  0.00    +0.305 C 
ATOM     21  OE1 GLU A  1       23.179 -33.348   5.031  0.00  0.00    -0.251 OA
BRANCH  20  22
ATOM     22  OE2 GLU A  1       24.888 -32.132   4.272  0.00  0.00    -0.481 OA
ATOM     23  HE2 GLU A  1       24.835 -32.532   3.379  0.00  0.00    +0.295 HD
ENDBRANCH  20  22
ENDBRANCH  19  20
ENDBRANCH  18  19
ENDBRANCH  13  18
ENDBRANCH  10  13
ENDBRANCH   6   9
ENDBRANCH   1   3
BRANCH   1  24
ATOM     24  C   UNK A  0       26.245 -23.174   6.979  0.00  0.00    +0.126 C 
BRANCH  24  32
ATOM     25  C   UNK A  0       22.433 -19.101   4.417  0.00  0.00    +0.195 C 
ATOM     26  N   UNK A  0       23.595 -19.010   3.731  0.00  0.00    -0.294 N 
ATOM     27  H   UNK A  0       23.635 -18.516   2.854  0.00  0.00    +0.172 HD
ATOM     28  C   UNK A  0       24.778 -19.477   4.223  0.00  0.00    +0.276 C 
ATOM     29  O   UNK A  0       25.810 -19.342   3.572  0.00  0.00    -0.266 OA
ATOM     30  C   UNK A  0       24.702 -20.190   5.541  0.00  0.00    +0.142 C 
ATOM     31  N   UNK A  0       25.814 -20.815   6.138  0.00  0.00    -0.261 N 
ATOM     32  C   UNK A  0       25.588 -21.798   7.251  0.00  0.00    +0.115 C 
ATOM     33  C   UNK A  0       24.107 -22.034   7.593  0.00  0.00    +0.127 C 
ATOM     34  N   UNK A  0       23.325 -20.839   7.348  0.00  0.00    -0.326 N 
ATOM     35  H   UNK A  0       22.334 -20.922   7.559  0.00  0.00    +0.148 HD
ATOM     36  C   UNK A  0       27.118 -20.380   5.922  0.00  0.00    +0.333 C 
ATOM     37  O   UNK A  0       28.120 -20.837   6.465  0.00  0.00    -0.279 OA
ATOM     38  C   UNK A  0       23.477 -20.210   6.124  0.00  0.00    +0.149 C 
ATOM     39  N   UNK A  0       22.351 -19.660   5.575  0.00  0.00    -0.199 NA
BRANCH  25  40
ATOM     40  N   UNK A  0       21.328 -18.586   3.828  0.00  0.00    -0.329 N 
ATOM     41  H   UNK A  0       20.562 -19.228   3.668  0.00  0.00    +0.145 HD
ATOM     42  H   UNK A  0       21.024 -17.734   4.292  0.00  0.00    +0.145 HD
ENDBRANCH  25  40
ENDBRANCH  24  32
ENDBRANCH   1  24
TORSDOF 12
ENDMDL
MODEL 9
REMARK VINA RESULT:      -8.1      2.222      3.908
REMARK  Name = *****
REMARK                            x       y       z     vdW  Elec       q    Type
REMARK                         _______ _______ _______ _____ _____    ______ ____
ROOT
ATOM      1  N   UNK A  0       25.588 -24.037   5.795  0.00  0.00    -0.342 N 
ATOM      2  H   UNK A  0       26.062 -23.769   4.932  0.00  0.00    +0.146 HD
ENDROOT
BRANCH   1   3
ATOM      3  C   UNK A  0       25.417 -25.429   5.790  0.00  0.00    +0.027 A 
ATOM      4  C   UNK A  0       26.453 -26.271   5.349  0.00  0.00    +0.024 A 
ATOM      5  C   UNK A  0       26.296 -27.669   5.347  0.00  0.00    +0.015 A 
ATOM      6  C   UNK A  0       25.084 -28.233   5.769  0.00  0.00    +0.037 A 
ATOM      7  C   UNK A  0       24.043 -27.392   6.136  0.00  0.00    +0.015 A 
ATOM      8  C   UNK A  0       24.214 -26.022   6.156  0.00  0.00    +0.024 A 
BRANCH   6   9
ATOM      9  C   UNK A  0       24.914 -29.711   5.809  0.00  0.00    +0.245 C 
ATOM     10  N   GLU A  1       26.034 -30.462   5.495  0.00  0.00    -0.298 N 
ATOM     11  H   GLU A  1       26.803 -30.020   5.027  0.00  0.00    +0.150 HD
ATOM     12  O   UNK A  0       23.855 -30.217   6.125  0.00  0.00    -0.270 OA
BRANCH  10  13
ATOM     13  CA  GLU A  1       26.091 -31.919   5.502  0.00  0.00    +0.182 C 
BRANCH  13  14
ATOM     14  C   GLU A  1       25.161 -32.535   4.430  0.00  0.00    +0.325 C 
ATOM     15  O   GLU A  1       25.461 -32.689   3.259  0.00  0.00    -0.249 OA
BRANCH  14  16
ATOM     16  OXT GLU A  1       23.923 -32.847   4.876  0.00  0.00    -0.479 OA
ATOM     17  HXT GLU A  1       23.241 -32.159   4.664  0.00  0.00    +0.295 HD
ENDBRANCH  14  16
ENDBRANCH  13  14
BRANCH  13  18
ATOM     18  CB  GLU A  1       25.760 -32.461   6.921  0.00  0.00    +0.045 C 
BRANCH  18  19
ATOM     19  CG  GLU A  1       26.809 -32.133   7.998  0.00  0.00    +0.123 C 
BRANCH  19  20
ATOM     20  CD  GLU A  1       26.332 -31.064   8.947  0.00  0.00    +0.305 C 
ATOM     21  OE1 GLU A  1       25.324 -31.089   9.625  0.00  0.00    -0.251 OA
BRANCH  20  22
ATOM     22  OE2 GLU A  1       27.196 -30.031   9.034  0.00  0.00    -0.481 OA
ATOM     23  HE2 GLU A  1       27.327 -29.738   8.108  0.00  0.00    +0.295 HD
ENDBRANCH  20  22
ENDBRANCH  19  20
ENDBRANCH  18  19
ENDBRANCH  13  18
ENDBRANCH  10  13
ENDBRANCH   6   9
ENDBRANCH   1   3
BRANCH   1  24
ATOM     24  C   UNK A  0       26.173 -23.396   6.998  0.00  0.00    +0.126 C 
BRANCH  24  32
ATOM     25  C   UNK A  0       22.534 -19.134   4.491  0.00  0.00    +0.195 C 
ATOM     26  N   UNK A  0       23.726 -19.028   3.861  0.00  0.00    -0.294 N 
ATOM     27  H   UNK A  0       23.811 -18.490   3.013  0.00  0.00    +0.172 HD
ATOM     28  C   UNK A  0       24.880 -19.539   4.378  0.00  0.00    +0.276 C 
ATOM     29  O   UNK A  0       25.941 -19.388   3.779  0.00  0.00    -0.266 OA
ATOM     30  C   UNK A  0       24.737 -20.317   5.653  0.00  0.00    +0.142 C 
ATOM     31  N   UNK A  0       25.812 -20.990   6.262  0.00  0.00    -0.261 N 
ATOM     32  C   UNK A  0       25.525 -22.025   7.313  0.00  0.00    +0.115 C 
ATOM     33  C   UNK A  0       24.027 -22.253   7.580  0.00  0.00    +0.127 C 
ATOM     34  N   UNK A  0       23.274 -21.034   7.364  0.00  0.00    -0.326 N 
ATOM     35  H   UNK A  0       22.273 -21.111   7.528  0.00  0.00    +0.148 HD
ATOM     36  C   UNK A  0       27.131 -20.567   6.125  0.00  0.00    +0.333 C 
ATOM     37  O   UNK A  0       28.102 -21.067   6.685  0.00  0.00    -0.279 OA
ATOM     38  C   UNK A  0       23.488 -20.346   6.181  0.00  0.00    +0.149 C 
ATOM     39  N   UNK A  0       22.394 -19.750   5.614  0.00  0.00    -0.199 NA
BRANCH  25  40
ATOM     40  N   UNK A  0       21.463 -18.571   3.884  0.00  0.00    -0.329 N 
ATOM     41  H   UNK A  0       20.617 -19.126   3.859  0.00  0.00    +0.145 HD
ATOM     42  H   UNK A  0       21.295 -17.630   4.228  0.00  0.00    +0.145 HD
ENDBRANCH  25  40
ENDBRANCH  24  32
ENDBRANCH   1  24
TORSDOF 12
ENDMDL
