MODEL 1
REMARK VINA RESULT:      -4.2      0.000      0.000
REMARK  Name = *****
REMARK                            x       y       z     vdW  Elec       q    Type
REMARK                         _______ _______ _______ _____ _____    ______ ____
ROOT
ATOM      1  C   LIG    1       24.828 -20.294   4.151  0.00  0.00    +0.158 C 
ATOM      2  N   LIG    1       23.465 -19.887   3.962  0.00  0.00    -0.293 N 
ATOM      3  H   LIG    1       22.728 -20.546   4.172  0.00  0.00    +0.151 HD
ATOM      4  C   LIG    1       23.084 -18.576   4.073  0.00  0.00    +0.247 C 
ATOM      5  O   LIG    1       21.923 -18.253   4.276  0.00  0.00    -0.270 OA
ATOM      6  C   LIG    1       24.157 -17.580   3.892  0.00  0.00    +0.059 A 
ATOM      7  C   LIG    1       25.427 -18.047   3.536  0.00  0.00    +0.042 A 
ATOM      8  C   LIG    1       26.426 -17.115   3.246  0.00  0.00    +0.045 A 
ATOM      9  C   LIG    1       26.188 -15.740   3.395  0.00  0.00    +0.069 A 
ATOM     10  C   LIG    1       24.927 -15.296   3.802  0.00  0.00    +0.124 A 
ATOM     11 CL   LIG    1       27.507 -14.678   3.052  0.00  0.00    -0.082 Cl
ATOM     12  C   LIG    1       23.900 -16.217   4.039  0.00  0.00    +0.045 A 
ATOM     13  N   LIG    1       25.680 -19.422   3.348  0.00  0.00    -0.325 N 
ATOM     14  H   LIG    1       25.536 -19.641   2.362  0.00  0.00    +0.148 HD
ENDROOT
BRANCH  10  15
ATOM     15  S   LIG    1       24.622 -13.574   4.016  0.00  0.00    +0.057 S 
ATOM     16  O   LIG    1       23.408 -13.408   4.775  0.00  0.00    -0.153 OA
ATOM     17  O   LIG    1       24.887 -12.900   2.766  0.00  0.00    -0.153 OA
BRANCH  15  18
ATOM     18  N   LIG    1       25.847 -13.054   5.047  0.00  0.00    -0.203 NA
ATOM     19  H   LIG    1       25.618 -13.315   6.008  0.00  0.00    +0.144 HD
ATOM     20  H   LIG    1       26.001 -12.052   4.919  0.00  0.00    +0.144 HD
ENDBRANCH  15  18
ENDBRANCH  10  15
BRANCH   1  22
ATOM     21  C   LIG    1       24.141 -20.831   6.543  0.00  0.00    +0.007 C 
ATOM     22  C   LIG    1       25.239 -20.301   5.632  0.00  0.00    +0.038 C 
ENDBRANCH   1  22
TORSDOF 3
ENDMDL
MODEL 2
REMARK VINA RESULT:      -3.2      3.173      5.882
REMARK  Name = *****
REMARK                            x       y       z     vdW  Elec       q    Type
REMARK                         _______ _______ _______ _____ _____    ______ ____
ROOT
ATOM      1  C   LIG    1       24.914 -13.060   4.032  0.00  0.00    +0.158 C 
ATOM      2  N   LIG    1       25.932 -13.533   3.139  0.00  0.00    -0.293 N 
ATOM      3  H   LIG    1       26.695 -12.913   2.901  0.00  0.00    +0.151 HD
ATOM      4  C   LIG    1       26.251 -14.862   3.051  0.00  0.00    +0.247 C 
ATOM      5  O   LIG    1       27.319 -15.245   2.595  0.00  0.00    -0.270 OA
ATOM      6  C   LIG    1       25.207 -15.802   3.504  0.00  0.00    +0.059 A 
ATOM      7  C   LIG    1       23.972 -15.269   3.887  0.00  0.00    +0.042 A 
ATOM      8  C   LIG    1       22.934 -16.147   4.207  0.00  0.00    +0.045 A 
ATOM      9  C   LIG    1       23.150 -17.533   4.230  0.00  0.00    +0.069 A 
ATOM     10  C   LIG    1       24.408 -18.043   3.893  0.00  0.00    +0.124 A 
ATOM     11 CL   LIG    1       21.810 -18.525   4.682  0.00  0.00    -0.082 Cl
ATOM     12  C   LIG    1       25.440 -17.177   3.513  0.00  0.00    +0.045 A 
ATOM     13  N   LIG    1       23.723 -13.881   3.840  0.00  0.00    -0.325 N 
ATOM     14  H   LIG    1       23.316 -13.661   2.931  0.00  0.00    +0.148 HD
ENDROOT
BRANCH  10  15
ATOM     15  S   LIG    1       24.699 -19.780   3.941  0.00  0.00    +0.057 S 
ATOM     16  O   LIG    1       24.479 -20.325   2.624  0.00  0.00    -0.153 OA
ATOM     17  O   LIG    1       24.099 -20.316   5.141  0.00  0.00    -0.153 OA
BRANCH  15  18
ATOM     18  N   LIG    1       26.357 -19.923   4.194  0.00  0.00    -0.203 NA
ATOM     19  H   LIG    1       26.703 -19.087   4.669  0.00  0.00    +0.144 HD
ATOM     20  H   LIG    1       26.824 -20.113   3.305  0.00  0.00    +0.144 HD
ENDBRANCH  15  18
ENDBRANCH  10  15
BRANCH   1  22
ATOM     21  C   LIG    1       26.876 -13.267   5.641  0.00  0.00    +0.007 C 
ATOM     22  C   LIG    1       25.377 -13.045   5.498  0.00  0.00    +0.038 C 
ENDBRANCH   1  22
TORSDOF 3
ENDMDL
MODEL 3
REMARK VINA RESULT:      -2.8      2.431      3.412
REMARK  Name = *****
REMARK                            x       y       z     vdW  Elec       q    Type
REMARK                         _______ _______ _______ _____ _____    ______ ____
ROOT
ATOM      1  C   LIG    1       21.936 -18.603   4.312  0.00  0.00    +0.158 C 
ATOM      2  N   LIG    1       23.231 -19.208   4.191  0.00  0.00    -0.293 N 
ATOM      3  H   LIG    1       23.287 -20.203   4.019  0.00  0.00    +0.151 HD
ATOM      4  C   LIG    1       24.314 -18.505   3.735  0.00  0.00    +0.247 C 
ATOM      5  O   LIG    1       25.307 -19.061   3.287  0.00  0.00    -0.270 OA
ATOM      6  C   LIG    1       24.223 -17.038   3.857  0.00  0.00    +0.059 A 
ATOM      7  C   LIG    1       23.101 -16.506   4.501  0.00  0.00    +0.042 A 
ATOM      8  C   LIG    1       23.050 -15.129   4.730  0.00  0.00    +0.045 A 
ATOM      9  C   LIG    1       24.061 -14.285   4.247  0.00  0.00    +0.069 A 
ATOM     10  C   LIG    1       25.149 -14.831   3.559  0.00  0.00    +0.124 A 
ATOM     11 CL   LIG    1       23.877 -12.594   4.548  0.00  0.00    -0.082 Cl
ATOM     12  C   LIG    1       25.241 -16.216   3.375  0.00  0.00    +0.045 A 
ATOM     13  N   LIG    1       22.090 -17.338   5.025  0.00  0.00    -0.325 N 
ATOM     14  H   LIG    1       22.314 -17.537   6.000  0.00  0.00    +0.148 HD
ENDROOT
BRANCH  10  15
ATOM     15  S   LIG    1       26.412 -13.780   2.925  0.00  0.00    +0.057 S 
ATOM     16  O   LIG    1       27.050 -14.438   1.812  0.00  0.00    -0.153 OA
ATOM     17  O   LIG    1       27.134 -13.203   4.036  0.00  0.00    -0.153 OA
BRANCH  15  18
ATOM     18  N   LIG    1       25.581 -12.486   2.241  0.00  0.00    -0.203 NA
ATOM     19  H   LIG    1       24.720 -12.319   2.764  0.00  0.00    +0.144 HD
ATOM     20  H   LIG    1       25.429 -12.664   1.246  0.00  0.00    +0.144 HD
ENDBRANCH  15  18
ENDBRANCH  10  15
BRANCH   1  22
ATOM     21  C   LIG    1       19.726 -18.415   3.062  0.00  0.00    +0.007 C 
ATOM     22  C   LIG    1       21.244 -18.420   2.952  0.00  0.00    +0.038 C 
ENDBRANCH   1  22
TORSDOF 3
ENDMDL
MODEL 4
REMARK VINA RESULT:      -1.9      1.428      1.770
REMARK  Name = *****
REMARK                            x       y       z     vdW  Elec       q    Type
REMARK                         _______ _______ _______ _____ _____    ______ ____
ROOT
ATOM      1  C   LIG    1       22.739 -20.544   4.532  0.00  0.00    +0.158 C 
ATOM      2  N   LIG    1       21.668 -19.700   4.086  0.00  0.00    -0.293 N 
ATOM      3  H   LIG    1       20.716 -20.009   4.228  0.00  0.00    +0.151 HD
ATOM      4  C   LIG    1       21.804 -18.339   4.019  0.00  0.00    +0.247 C 
ATOM      5  O   LIG    1       20.838 -17.590   3.998  0.00  0.00    -0.270 OA
ATOM      6  C   LIG    1       23.189 -17.837   3.932  0.00  0.00    +0.059 A 
ATOM      7  C   LIG    1       24.218 -18.780   3.832  0.00  0.00    +0.042 A 
ATOM      8  C   LIG    1       25.524 -18.327   3.632  0.00  0.00    +0.045 A 
ATOM      9  C   LIG    1       25.811 -16.954   3.620  0.00  0.00    +0.069 A 
ATOM     10  C   LIG    1       24.775 -16.028   3.774  0.00  0.00    +0.124 A 
ATOM     11 CL   LIG    1       27.466 -16.504   3.410  0.00  0.00    -0.082 Cl
ATOM     12  C   LIG    1       23.454 -16.469   3.916  0.00  0.00    +0.045 A 
ATOM     13  N   LIG    1       23.949 -20.164   3.809  0.00  0.00    -0.325 N 
ATOM     14  H   LIG    1       23.853 -20.454   2.835  0.00  0.00    +0.148 HD
ENDROOT
BRANCH  10  15
ATOM     15  S   LIG    1       25.126 -14.302   3.784  0.00  0.00    +0.057 S 
ATOM     16  O   LIG    1       25.460 -13.887   2.445  0.00  0.00    -0.153 OA
ATOM     17  O   LIG    1       25.935 -14.002   4.943  0.00  0.00    -0.153 OA
BRANCH  15  18
ATOM     18  N   LIG    1       23.643 -13.572   4.103  0.00  0.00    -0.203 NA
ATOM     19  H   LIG    1       22.952 -13.890   3.420  0.00  0.00    +0.144 HD
ATOM     20  H   LIG    1       23.758 -12.557   4.127  0.00  0.00    +0.144 HD
ENDBRANCH  15  18
ENDBRANCH  10  15
BRANCH   1  22
ATOM     21  C   LIG    1       23.883 -21.565   6.564  0.00  0.00    +0.007 C 
ATOM     22  C   LIG    1       22.935 -20.489   6.056  0.00  0.00    +0.038 C 
ENDBRANCH   1  22
TORSDOF 3
ENDMDL
MODEL 5
REMARK VINA RESULT:      -1.7      2.664      5.579
REMARK  Name = *****
REMARK                            x       y       z     vdW  Elec       q    Type
REMARK                         _______ _______ _______ _____ _____    ______ ____
ROOT
ATOM      1  C   LIG    1       26.159 -13.512   3.281  0.00  0.00    +0.158 C 
ATOM      2  N   LIG    1       25.190 -13.285   4.314  0.00  0.00    -0.293 N 
ATOM      3  H   LIG    1       24.945 -12.332   4.547  0.00  0.00    +0.151 HD
ATOM      4  C   LIG    1       24.204 -14.194   4.588  0.00  0.00    +0.247 C 
ATOM      5  O   LIG    1       23.182 -13.884   5.184  0.00  0.00    -0.270 OA
ATOM      6  C   LIG    1       24.471 -15.579   4.155  0.00  0.00    +0.059 A 
ATOM      7  C   LIG    1       25.724 -15.857   3.597  0.00  0.00    +0.042 A 
ATOM      8  C   LIG    1       26.040 -17.182   3.288  0.00  0.00    +0.045 A 
ATOM      9  C   LIG    1       25.090 -18.202   3.451  0.00  0.00    +0.069 A 
ATOM     10  C   LIG    1       23.825 -17.894   3.961  0.00  0.00    +0.124 A 
ATOM     11 CL   LIG    1       25.571 -19.797   2.996  0.00  0.00    -0.082 Cl
ATOM     12  C   LIG    1       23.516 -16.580   4.330  0.00  0.00    +0.045 A 
ATOM     13  N   LIG    1       26.706 -14.854   3.456  0.00  0.00    -0.325 N 
ATOM     14  H   LIG    1       27.292 -14.863   4.291  0.00  0.00    +0.148 HD
ENDROOT
BRANCH  10  15
ATOM     15  S   LIG    1       22.615 -19.161   4.146  0.00  0.00    +0.057 S 
ATOM     16  O   LIG    1       23.055 -20.332   3.430  0.00  0.00    -0.153 OA
ATOM     17  O   LIG    1       21.304 -18.573   3.995  0.00  0.00    -0.153 OA
BRANCH  15  18
ATOM     18  N   LIG    1       22.702 -19.593   5.771  0.00  0.00    -0.203 NA
ATOM     19  H   LIG    1       22.625 -18.755   6.352  0.00  0.00    +0.144 HD
ATOM     20  H   LIG    1       23.554 -20.131   5.938  0.00  0.00    +0.144 HD
ENDBRANCH  15  18
ENDBRANCH  10  15
BRANCH   1  22
ATOM     21  C   LIG    1       24.590 -12.148   1.812  0.00  0.00    +0.007 C 
ATOM     22  C   LIG    1       25.577 -13.304   1.873  0.00  0.00    +0.038 C 
ENDBRANCH   1  22
TORSDOF 3
ENDMDL
