MODEL 1
REMARK VINA RESULT:      -4.0      0.000      0.000
REMARK  Name = *****
REMARK                            x       y       z     vdW  Elec       q    Type
REMARK                         _______ _______ _______ _____ _____    ______ ____
ROOT
ATOM      1  C   LIG    1       24.875 -14.153   4.091  0.00  0.00    +0.026 C 
ENDROOT
BRANCH   1   2
ATOM      2  C   LIG    1       24.141 -12.835   3.843  0.00  0.00    +0.078 C 
BRANCH   2   3
ATOM      3  N   LIG    1       23.853 -12.668   2.420  0.00  0.00    -0.330 NA
ATOM      4  H   LIG    1       23.441 -13.533   2.061  0.00  0.00    +0.118 HD
ATOM      5  H   LIG    1       23.122 -11.961   2.317  0.00  0.00    +0.118 HD
ENDBRANCH   2   3
ENDBRANCH   1   2
BRANCH   1   6
ATOM      6  C   LIG    1       26.377 -13.971   4.296  0.00  0.00    +0.121 C 
BRANCH   6   7
ATOM      7  C   LIG    1       27.101 -13.883   2.976  0.00  0.00    +0.305 C 
ATOM      8  O   LIG    1       26.635 -14.289   1.918  0.00  0.00    -0.251 OA
BRANCH   7   9
ATOM      9  O   LIG    1       28.327 -13.325   3.056  0.00  0.00    -0.481 OA
ATOM     10  H   LIG    1       28.962 -13.855   3.576  0.00  0.00    +0.295 HD
ENDBRANCH   7   9
ENDBRANCH   6   7
ENDBRANCH   1   6
TORSDOF 5
ENDMDL
MODEL 2
REMARK VINA RESULT:      -3.9      1.073      1.307
REMARK  Name = *****
REMARK                            x       y       z     vdW  Elec       q    Type
REMARK                         _______ _______ _______ _____ _____    ______ ____
ROOT
ATOM      1  C   LIG    1       24.323 -13.740   3.857  0.00  0.00    +0.026 C 
ENDROOT
BRANCH   1   2
ATOM      2  C   LIG    1       24.001 -12.369   3.263  0.00  0.00    +0.078 C 
BRANCH   2   3
ATOM      3  N   LIG    1       24.177 -12.385   1.812  0.00  0.00    -0.330 NA
ATOM      4  H   LIG    1       25.177 -12.380   1.599  0.00  0.00    +0.118 HD
ATOM      5  H   LIG    1       23.831 -13.276   1.453  0.00  0.00    +0.118 HD
ENDBRANCH   2   3
ENDBRANCH   1   2
BRANCH   1   6
ATOM      6  C   LIG    1       25.813 -13.942   4.125  0.00  0.00    +0.121 C 
BRANCH   6   7
ATOM      7  C   LIG    1       26.442 -14.819   3.072  0.00  0.00    +0.305 C 
ATOM      8  O   LIG    1       26.575 -16.031   3.190  0.00  0.00    -0.251 OA
BRANCH   7   9
ATOM      9  O   LIG    1       26.863 -14.150   1.979  0.00  0.00    -0.481 OA
ATOM     10  H   LIG    1       26.153 -13.648   1.533  0.00  0.00    +0.295 HD
ENDBRANCH   7   9
ENDBRANCH   6   7
ENDBRANCH   1   6
TORSDOF 5
ENDMDL
MODEL 3
REMARK VINA RESULT:      -3.9      2.475      3.340
REMARK  Name = *****
REMARK                            x       y       z     vdW  Elec       q    Type
REMARK                         _______ _______ _______ _____ _____    ______ ____
ROOT
ATOM      1  C   LIG    1       25.845 -14.026   4.257  0.00  0.00    +0.026 C 
ENDROOT
BRANCH   1   2
ATOM      2  C   LIG    1       26.582 -14.924   3.263  0.00  0.00    +0.078 C 
BRANCH   2   3
ATOM      3  N   LIG    1       26.894 -14.188   2.040  0.00  0.00    -0.330 NA
ATOM      4  H   LIG    1       26.048 -13.717   1.712  0.00  0.00    +0.118 HD
ATOM      5  H   LIG    1       27.546 -13.436   2.270  0.00  0.00    +0.118 HD
ENDBRANCH   2   3
ENDBRANCH   1   2
BRANCH   1   6
ATOM      6  C   LIG    1       24.344 -13.943   3.988  0.00  0.00    +0.121 C 
BRANCH   6   7
ATOM      7  C   LIG    1       23.990 -12.674   3.254  0.00  0.00    +0.305 C 
ATOM      8  O   LIG    1       23.656 -11.637   3.814  0.00  0.00    -0.251 OA
BRANCH   7   9
ATOM      9  O   LIG    1       24.061 -12.777   1.910  0.00  0.00    -0.481 OA
ATOM     10  H   LIG    1       23.235 -12.516   1.457  0.00  0.00    +0.295 HD
ENDBRANCH   7   9
ENDBRANCH   6   7
ENDBRANCH   1   6
TORSDOF 5
ENDMDL
MODEL 4
REMARK VINA RESULT:      -3.8      0.467      1.279
REMARK  Name = *****
REMARK                            x       y       z     vdW  Elec       q    Type
REMARK                         _______ _______ _______ _____ _____    ______ ____
ROOT
ATOM      1  C   LIG    1       24.887 -14.160   3.637  0.00  0.00    +0.026 C 
ENDROOT
BRANCH   1   2
ATOM      2  C   LIG    1       24.100 -12.902   3.269  0.00  0.00    +0.078 C 
BRANCH   2   3
ATOM      3  N   LIG    1       24.147 -12.671   1.827  0.00  0.00    -0.330 NA
ATOM      4  H   LIG    1       23.206 -12.446   1.496  0.00  0.00    +0.118 HD
ATOM      5  H   LIG    1       24.701 -11.831   1.649  0.00  0.00    +0.118 HD
ENDBRANCH   2   3
ENDBRANCH   1   2
BRANCH   1   6
ATOM      6  C   LIG    1       26.238 -13.853   4.280  0.00  0.00    +0.121 C 
BRANCH   6   7
ATOM      7  C   LIG    1       27.337 -13.815   3.249  0.00  0.00    +0.305 C 
ATOM      8  O   LIG    1       28.495 -13.507   3.503  0.00  0.00    -0.251 OA
BRANCH   7   9
ATOM      9  O   LIG    1       26.934 -14.140   2.003  0.00  0.00    -0.481 OA
ATOM     10  H   LIG    1       26.054 -13.782   1.773  0.00  0.00    +0.295 HD
ENDBRANCH   7   9
ENDBRANCH   6   7
ENDBRANCH   1   6
TORSDOF 5
ENDMDL
MODEL 5
REMARK VINA RESULT:      -3.6      7.144      7.711
REMARK  Name = *****
REMARK                            x       y       z     vdW  Elec       q    Type
REMARK                         _______ _______ _______ _____ _____    ______ ____
ROOT
ATOM      1  C   LIG    1       28.860 -20.323   6.329  0.00  0.00    +0.026 C 
ENDROOT
BRANCH   1   2
ATOM      2  C   LIG    1       29.475 -18.931   6.475  0.00  0.00    +0.078 C 
BRANCH   2   3
ATOM      3  N   LIG    1       29.423 -18.212   5.204  0.00  0.00    -0.330 NA
ATOM      4  H   LIG    1       28.873 -17.359   5.328  0.00  0.00    +0.118 HD
ATOM      5  H   LIG    1       30.365 -17.892   4.972  0.00  0.00    +0.118 HD
ENDBRANCH   2   3
ENDBRANCH   1   2
BRANCH   1   6
ATOM      6  C   LIG    1       27.483 -20.440   6.980  0.00  0.00    +0.121 C 
BRANCH   6   7
ATOM      7  C   LIG    1       26.389 -20.441   5.943  0.00  0.00    +0.305 C 
ATOM      8  O   LIG    1       25.227 -20.748   6.183  0.00  0.00    -0.251 OA
BRANCH   7   9
ATOM      9  O   LIG    1       26.799 -20.084   4.709  0.00  0.00    -0.481 OA
ATOM     10  H   LIG    1       26.905 -20.842   4.100  0.00  0.00    +0.295 HD
ENDBRANCH   7   9
ENDBRANCH   6   7
ENDBRANCH   1   6
TORSDOF 5
ENDMDL
MODEL 6
REMARK VINA RESULT:      -3.5      7.529      8.247
REMARK  Name = *****
REMARK                            x       y       z     vdW  Elec       q    Type
REMARK                         _______ _______ _______ _____ _____    ______ ____
ROOT
ATOM      1  C   LIG    1       24.832 -21.420   6.089  0.00  0.00    +0.026 C 
ENDROOT
BRANCH   1   2
ATOM      2  C   LIG    1       26.017 -20.476   5.883  0.00  0.00    +0.078 C 
BRANCH   2   3
ATOM      3  N   LIG    1       26.227 -20.218   4.461  0.00  0.00    -0.330 NA
ATOM      4  H   LIG    1       25.347 -20.371   3.963  0.00  0.00    +0.118 HD
ATOM      5  H   LIG    1       26.435 -19.226   4.337  0.00  0.00    +0.118 HD
ENDBRANCH   2   3
ENDBRANCH   1   2
BRANCH   1   6
ATOM      6  C   LIG    1       23.593 -20.715   6.636  0.00  0.00    +0.121 C 
BRANCH   6   7
ATOM      7  C   LIG    1       22.652 -20.327   5.524  0.00  0.00    +0.305 C 
ATOM      8  O   LIG    1       22.434 -19.168   5.192  0.00  0.00    -0.251 OA
BRANCH   7   9
ATOM      9  O   LIG    1       22.048 -21.373   4.923  0.00  0.00    -0.481 OA
ATOM     10  H   LIG    1       22.596 -22.183   4.911  0.00  0.00    +0.295 HD
ENDBRANCH   7   9
ENDBRANCH   6   7
ENDBRANCH   1   6
TORSDOF 5
ENDMDL
MODEL 7
REMARK VINA RESULT:      -3.5      6.822      7.544
REMARK  Name = *****
REMARK                            x       y       z     vdW  Elec       q    Type
REMARK                         _______ _______ _______ _____ _____    ______ ____
ROOT
ATOM      1  C   LIG    1       23.450 -20.489   6.135  0.00  0.00    +0.026 C 
ENDROOT
BRANCH   1   2
ATOM      2  C   LIG    1       24.456 -21.567   5.730  0.00  0.00    +0.078 C 
BRANCH   2   3
ATOM      3  N   LIG    1       25.548 -20.984   4.953  0.00  0.00    -0.330 NA
ATOM      4  H   LIG    1       25.823 -21.643   4.222  0.00  0.00    +0.118 HD
ATOM      5  H   LIG    1       25.193 -20.165   4.456  0.00  0.00    +0.118 HD
ENDBRANCH   2   3
ENDBRANCH   1   2
BRANCH   1   6
ATOM      6  C   LIG    1       22.424 -20.188   5.044  0.00  0.00    +0.121 C 
BRANCH   6   7
ATOM      7  C   LIG    1       22.709 -18.866   4.378  0.00  0.00    +0.305 C 
ATOM      8  O   LIG    1       22.035 -17.858   4.556  0.00  0.00    -0.251 OA
BRANCH   7   9
ATOM      9  O   LIG    1       23.773 -18.884   3.550  0.00  0.00    -0.481 OA
ATOM     10  H   LIG    1       24.589 -19.220   3.972  0.00  0.00    +0.295 HD
ENDBRANCH   7   9
ENDBRANCH   6   7
ENDBRANCH   1   6
TORSDOF 5
ENDMDL
MODEL 8
REMARK VINA RESULT:      -3.4      6.815      7.193
REMARK  Name = *****
REMARK                            x       y       z     vdW  Elec       q    Type
REMARK                         _______ _______ _______ _____ _____    ______ ____
ROOT
ATOM      1  C   LIG    1       23.538 -19.275   4.040  0.00  0.00    +0.026 C 
ENDROOT
BRANCH   1   2
ATOM      2  C   LIG    1       22.339 -19.721   4.878  0.00  0.00    +0.078 C 
BRANCH   2   3
ATOM      3  N   LIG    1       22.302 -21.177   4.987  0.00  0.00    -0.330 NA
ATOM      4  H   LIG    1       23.078 -21.570   4.449  0.00  0.00    +0.118 HD
ATOM      5  H   LIG    1       22.490 -21.436   5.957  0.00  0.00    +0.118 HD
ENDBRANCH   2   3
ENDBRANCH   1   2
BRANCH   1   6
ATOM      6  C   LIG    1       24.584 -20.374   3.862  0.00  0.00    +0.121 C 
BRANCH   6   7
ATOM      7  C   LIG    1       25.599 -20.345   4.977  0.00  0.00    +0.305 C 
ATOM      8  O   LIG    1       25.328 -20.581   6.148  0.00  0.00    -0.251 OA
BRANCH   7   9
ATOM      9  O   LIG    1       26.847 -20.023   4.577  0.00  0.00    -0.481 OA
ATOM     10  H   LIG    1       27.165 -19.174   4.944  0.00  0.00    +0.295 HD
ENDBRANCH   7   9
ENDBRANCH   6   7
ENDBRANCH   1   6
TORSDOF 5
ENDMDL
MODEL 9
REMARK VINA RESULT:      -3.4      2.924      3.504
REMARK  Name = *****
REMARK                            x       y       z     vdW  Elec       q    Type
REMARK                         _______ _______ _______ _____ _____    ______ ____
ROOT
ATOM      1  C   LIG    1       26.496 -14.682   3.062  0.00  0.00    +0.026 C 
ENDROOT
BRANCH   1   2
ATOM      2  C   LIG    1       27.680 -14.283   3.943  0.00  0.00    +0.078 C 
BRANCH   2   3
ATOM      3  N   LIG    1       28.432 -13.192   3.328  0.00  0.00    -0.330 NA
ATOM      4  H   LIG    1       27.791 -12.618   2.775  0.00  0.00    +0.118 HD
ATOM      5  H   LIG    1       28.773 -12.574   4.068  0.00  0.00    +0.118 HD
ENDBRANCH   2   3
ENDBRANCH   1   2
BRANCH   1   6
ATOM      6  C   LIG    1       25.769 -13.483   2.458  0.00  0.00    +0.121 C 
BRANCH   6   7
ATOM      7  C   LIG    1       24.403 -13.307   3.072  0.00  0.00    +0.305 C 
ATOM      8  O   LIG    1       23.917 -14.089   3.880  0.00  0.00    -0.251 OA
BRANCH   7   9
ATOM      9  O   LIG    1       23.744 -12.210   2.645  0.00  0.00    -0.481 OA
ATOM     10  H   LIG    1       23.374 -11.672   3.372  0.00  0.00    +0.295 HD
ENDBRANCH   7   9
ENDBRANCH   6   7
ENDBRANCH   1   6
TORSDOF 5
ENDMDL
