MODEL 1
REMARK VINA RESULT:      -5.1      0.000      0.000
REMARK  Name = *****
REMARK                            x       y       z     vdW  Elec       q    Type
REMARK                         _______ _______ _______ _____ _____    ______ ____
ROOT
ATOM      1  C   LIG    1       25.746 -31.477  10.016  0.00  0.00    +0.180 C 
ATOM      2  C   LIG    1       24.943 -32.250  11.315  0.00  0.00    +0.021 C 
ATOM      3  C   LIG    1       23.413 -32.051  11.054  0.00  0.00    +0.006 C 
ATOM      4  C   LIG    1       22.632 -30.987  11.881  0.00  0.00    +0.037 C 
ATOM      5  C   LIG    1       23.066 -30.753  13.334  0.00  0.00    +0.153 C 
ATOM      6  C   LIG    1       24.605 -30.643  13.412  0.00  0.00    +0.154 C 
ATOM      7  F   LIG    1       22.723 -31.883  14.045  0.00  0.00    -0.238 F 
ATOM      8  C   LIG    1       22.260 -29.524  13.974  0.00  0.00    +0.047 C 
ATOM      9  C   LIG    1       20.723 -29.665  13.751  0.00  0.00    -0.020 C 
ATOM     10  C   LIG    1       19.927 -28.667  14.209  0.00  0.00    +0.054 C 
ATOM     11  C   LIG    1       20.319 -27.337  13.602  0.00  0.00    +0.179 C 
ATOM     12  C   LIG    1       21.743 -27.173  13.182  0.00  0.00    +0.047 C 
ATOM     13  O   LIG    1       19.528 -26.405  13.554  0.00  0.00    -0.288 OA
ATOM     14  C   LIG    1       20.285 -30.230  12.410  0.00  0.00    +0.194 C 
ATOM     15  F   LIG    1       20.316 -29.248  11.459  0.00  0.00    -0.241 F 
ATOM     16  C   LIG    1       22.567 -29.428  15.492  0.00  0.00    +0.023 C 
ATOM     17  C   LIG    1       22.640 -28.158  13.376  0.00  0.00    -0.009 C 
ATOM     18  C   LIG    1       21.135 -31.366  11.879  0.00  0.00    +0.048 C 
ATOM     19  C   LIG    1       23.343 -31.628   9.584  0.00  0.00    +0.012 C 
ATOM     20  C   LIG    1       25.200 -33.790  11.390  0.00  0.00    +0.016 C 
ATOM     21  C   LIG    1       25.329 -31.815  12.760  0.00  0.00    +0.045 C 
ATOM     22  C   LIG    1       24.539 -30.691   9.393  0.00  0.00    +0.038 C 
ATOM     23  C   LIG    1       24.522 -30.206   7.945  0.00  0.00    +0.012 C 
ENDROOT
BRANCH   1  24
ATOM     24  C   LIG    1       26.476 -32.488   8.990  0.00  0.00    +0.192 C 
ATOM     25  O   LIG    1       27.632 -32.879   9.205  0.00  0.00    -0.292 OA
BRANCH  24  26
ATOM     26  C   LIG    1       25.839 -33.134   7.765  0.00  0.00    +0.187 C 
ATOM     27 CL   LIG    1       26.488 -32.733   6.182  0.00  0.00    -0.117 Cl
ENDBRANCH  24  26
ENDBRANCH   1  24
BRANCH   6  28
ATOM     28  O   LIG    1       25.044 -30.640  14.780  0.00  0.00    -0.389 OA
ATOM     29  H   LIG    1       25.818 -31.237  14.838  0.00  0.00    +0.210 HD
ENDBRANCH   6  28
BRANCH   1  30
ATOM     30  O   LIG    1       26.739 -30.597  10.636  0.00  0.00    -0.450 OA
BRANCH  30  31
ATOM     31  C   LIG    1       26.837 -29.271  10.260  0.00  0.00    +0.308 C 
ATOM     32  O   LIG    1       27.323 -28.872   9.266  0.00  0.00    -0.251 OA
BRANCH  31  34
ATOM     33  C   LIG    1       27.191 -28.172  12.494  0.00  0.00    +0.015 C 
ATOM     34  C   LIG    1       26.299 -28.329  11.283  0.00  0.00    +0.117 C 
ENDBRANCH  31  34
ENDBRANCH  30  31
ENDBRANCH   1  30
TORSDOF 6
ENDMDL
MODEL 2
REMARK VINA RESULT:      -5.0      1.869      2.744
REMARK  Name = *****
REMARK                            x       y       z     vdW  Elec       q    Type
REMARK                         _______ _______ _______ _____ _____    ______ ____
ROOT
ATOM      1  C   LIG    1       24.044 -31.222  10.787  0.00  0.00    +0.180 C 
ATOM      2  C   LIG    1       24.369 -30.840  12.424  0.00  0.00    +0.021 C 
ATOM      3  C   LIG    1       23.031 -31.086  13.197  0.00  0.00    +0.006 C 
ATOM      4  C   LIG    1       22.161 -29.866  13.621  0.00  0.00    +0.037 C 
ATOM      5  C   LIG    1       22.888 -28.570  14.004  0.00  0.00    +0.153 C 
ATOM      6  C   LIG    1       23.991 -28.260  12.967  0.00  0.00    +0.154 C 
ATOM      7  F   LIG    1       23.536 -28.808  15.198  0.00  0.00    -0.238 F 
ATOM      8  C   LIG    1       21.839 -27.387  14.259  0.00  0.00    +0.047 C 
ATOM      9  C   LIG    1       20.701 -27.825  15.232  0.00  0.00    -0.020 C 
ATOM     10  C   LIG    1       19.721 -26.927  15.499  0.00  0.00    +0.054 C 
ATOM     11  C   LIG    1       19.035 -26.476  14.228  0.00  0.00    +0.179 C 
ATOM     12  C   LIG    1       19.838 -26.518  12.969  0.00  0.00    +0.047 C 
ATOM     13  O   LIG    1       17.908 -26.000  14.250  0.00  0.00    -0.288 OA
ATOM     14  C   LIG    1       20.199 -29.252  15.082  0.00  0.00    +0.194 C 
ATOM     15  F   LIG    1       19.315 -29.327  14.041  0.00  0.00    -0.241 F 
ATOM     16  C   LIG    1       22.574 -26.146  14.832  0.00  0.00    +0.023 C 
ATOM     17  C   LIG    1       21.127 -26.906  12.983  0.00  0.00    -0.009 C 
ATOM     18  C   LIG    1       21.270 -30.288  14.809  0.00  0.00    +0.048 C 
ATOM     19  C   LIG    1       22.196 -31.926  12.226  0.00  0.00    +0.012 C 
ATOM     20  C   LIG    1       25.454 -31.751  13.082  0.00  0.00    +0.016 C 
ATOM     21  C   LIG    1       24.945 -29.425  12.731  0.00  0.00    +0.045 C 
ATOM     22  C   LIG    1       22.479 -31.322  10.848  0.00  0.00    +0.038 C 
ATOM     23  C   LIG    1       21.656 -32.100   9.823  0.00  0.00    +0.012 C 
ENDROOT
BRANCH   1  24
ATOM     24  C   LIG    1       24.772 -32.564  10.261  0.00  0.00    +0.192 C 
ATOM     25  O   LIG    1       24.199 -33.660  10.328  0.00  0.00    -0.292 OA
BRANCH  24  26
ATOM     26  C   LIG    1       26.124 -32.633   9.562  0.00  0.00    +0.187 C 
ATOM     27 CL   LIG    1       26.155 -33.012   7.846  0.00  0.00    -0.117 Cl
ENDBRANCH  24  26
ENDBRANCH   1  24
BRANCH   6  28
ATOM     28  O   LIG    1       24.821 -27.177  13.420  0.00  0.00    -0.389 OA
ATOM     29  H   LIG    1       25.274 -26.811  12.632  0.00  0.00    +0.210 HD
ENDBRANCH   6  28
BRANCH   1  30
ATOM     30  O   LIG    1       24.511 -30.069  10.015  0.00  0.00    -0.450 OA
BRANCH  30  31
ATOM     31  C   LIG    1       24.357 -30.033   8.642  0.00  0.00    +0.308 C 
ATOM     32  O   LIG    1       23.541 -30.615   8.026  0.00  0.00    -0.251 OA
BRANCH  31  34
ATOM     33  C   LIG    1       26.366 -28.543   8.902  0.00  0.00    +0.015 C 
ATOM     34  C   LIG    1       25.386 -29.200   7.956  0.00  0.00    +0.117 C 
ENDBRANCH  31  34
ENDBRANCH  30  31
ENDBRANCH   1  30
TORSDOF 6
ENDMDL
MODEL 3
REMARK VINA RESULT:      -4.7      2.208      3.707
REMARK  Name = *****
REMARK                            x       y       z     vdW  Elec       q    Type
REMARK                         _______ _______ _______ _____ _____    ______ ____
ROOT
ATOM      1  C   LIG    1       24.974 -31.482   8.057  0.00  0.00    +0.180 C 
ATOM      2  C   LIG    1       26.146 -31.320   9.294  0.00  0.00    +0.021 C 
ATOM      3  C   LIG    1       25.520 -31.979  10.568  0.00  0.00    +0.006 C 
ATOM      4  C   LIG    1       24.952 -31.067  11.696  0.00  0.00    +0.037 C 
ATOM      5  C   LIG    1       25.655 -29.728  11.952  0.00  0.00    +0.153 C 
ATOM      6  C   LIG    1       25.933 -29.014  10.610  0.00  0.00    +0.154 C 
ATOM      7  F   LIG    1       26.888 -30.016  12.498  0.00  0.00    -0.238 F 
ATOM      8  C   LIG    1       24.847 -28.862  13.031  0.00  0.00    +0.047 C 
ATOM      9  C   LIG    1       24.515 -29.696  14.307  0.00  0.00    -0.020 C 
ATOM     10  C   LIG    1       23.794 -29.091  15.283  0.00  0.00    +0.054 C 
ATOM     11  C   LIG    1       22.468 -28.592  14.751  0.00  0.00    +0.179 C 
ATOM     12  C   LIG    1       22.404 -28.246  13.300  0.00  0.00    +0.047 C 
ATOM     13  O   LIG    1       21.522 -28.385  15.500  0.00  0.00    -0.288 OA
ATOM     14  C   LIG    1       24.139 -31.152  14.082  0.00  0.00    +0.194 C 
ATOM     15  F   LIG    1       22.828 -31.241  13.703  0.00  0.00    -0.241 F 
ATOM     16  C   LIG    1       25.671 -27.606  13.421  0.00  0.00    +0.023 C 
ATOM     17  C   LIG    1       23.494 -28.340  12.516  0.00  0.00    -0.009 C 
ATOM     18  C   LIG    1       24.942 -31.868  13.016  0.00  0.00    +0.048 C 
ATOM     19  C   LIG    1       24.353 -32.805  10.018  0.00  0.00    +0.012 C 
ATOM     20  C   LIG    1       27.484 -32.071   8.999  0.00  0.00    +0.016 C 
ATOM     21  C   LIG    1       26.672 -29.887   9.603  0.00  0.00    +0.045 C 
ATOM     22  C   LIG    1       23.743 -31.930   8.920  0.00  0.00    +0.038 C 
ATOM     23  C   LIG    1       22.549 -32.683   8.336  0.00  0.00    +0.012 C 
ENDROOT
BRANCH   1  24
ATOM     24  C   LIG    1       25.378 -32.525   6.891  0.00  0.00    +0.192 C 
ATOM     25  O   LIG    1       24.746 -33.580   6.741  0.00  0.00    -0.292 OA
BRANCH  24  26
ATOM     26  C   LIG    1       26.448 -32.307   5.829  0.00  0.00    +0.187 C 
ATOM     27 CL   LIG    1       25.958 -32.318   4.141  0.00  0.00    -0.117 Cl
ENDBRANCH  24  26
ENDBRANCH   1  24
BRANCH   6  28
ATOM     28  O   LIG    1       26.777 -27.869  10.811  0.00  0.00    -0.389 OA
ATOM     29  H   LIG    1       27.180 -27.650   9.945  0.00  0.00    +0.210 HD
ENDBRANCH   6  28
BRANCH   1  30
ATOM     30  O   LIG    1       24.814 -30.141   7.489  0.00  0.00    -0.450 OA
BRANCH  30  31
ATOM     31  C   LIG    1       24.195 -29.964   6.267  0.00  0.00    +0.308 C 
ATOM     32  O   LIG    1       23.259 -30.561   5.877  0.00  0.00    -0.251 OA
BRANCH  31  34
ATOM     33  C   LIG    1       24.496 -27.520   5.760  0.00  0.00    +0.015 C 
ATOM     34  C   LIG    1       24.864 -28.944   5.411  0.00  0.00    +0.117 C 
ENDBRANCH  31  34
ENDBRANCH  30  31
ENDBRANCH   1  30
TORSDOF 6
ENDMDL
MODEL 4
REMARK VINA RESULT:      -4.5      2.264      3.481
REMARK  Name = *****
REMARK                            x       y       z     vdW  Elec       q    Type
REMARK                         _______ _______ _______ _____ _____    ______ ____
ROOT
ATOM      1  C   LIG    1       25.666 -32.032   7.128  0.00  0.00    +0.180 C 
ATOM      2  C   LIG    1       26.163 -32.454   8.711  0.00  0.00    +0.021 C 
ATOM      3  C   LIG    1       24.969 -33.246   9.340  0.00  0.00    +0.006 C 
ATOM      4  C   LIG    1       24.045 -32.537  10.373  0.00  0.00    +0.037 C 
ATOM      5  C   LIG    1       24.683 -31.500  11.307  0.00  0.00    +0.153 C 
ATOM      6  C   LIG    1       25.604 -30.560  10.498  0.00  0.00    +0.154 C 
ATOM      7  F   LIG    1       25.502 -32.189  12.177  0.00  0.00    -0.238 F 
ATOM      8  C   LIG    1       23.563 -30.767  12.188  0.00  0.00    +0.047 C 
ATOM      9  C   LIG    1       22.612 -31.791  12.879  0.00  0.00    -0.020 C 
ATOM     10  C   LIG    1       21.590 -31.298  13.623  0.00  0.00    +0.054 C 
ATOM     11  C   LIG    1       20.703 -30.394  12.796  0.00  0.00    +0.179 C 
ATOM     12  C   LIG    1       21.334 -29.694  11.638  0.00  0.00    +0.047 C 
ATOM     13  O   LIG    1       19.546 -30.167  13.125  0.00  0.00    -0.288 OA
ATOM     14  C   LIG    1       22.239 -33.021  12.066  0.00  0.00    +0.194 C 
ATOM     15  F   LIG    1       21.239 -32.711  11.187  0.00  0.00    -0.241 F 
ATOM     16  C   LIG    1       24.240 -29.869  13.258  0.00  0.00    +0.023 C 
ATOM     17  C   LIG    1       22.646 -29.838  11.373  0.00  0.00    -0.009 C 
ATOM     18  C   LIG    1       23.363 -33.615  11.243  0.00  0.00    +0.048 C 
ATOM     19  C   LIG    1       24.102 -33.621   8.134  0.00  0.00    +0.012 C 
ATOM     20  C   LIG    1       27.411 -33.394   8.753  0.00  0.00    +0.016 C 
ATOM     21  C   LIG    1       26.630 -31.301   9.649  0.00  0.00    +0.045 C 
ATOM     22  C   LIG    1       24.141 -32.386   7.230  0.00  0.00    +0.038 C 
ATOM     23  C   LIG    1       23.273 -32.678   6.008  0.00  0.00    +0.012 C 
ENDROOT
BRANCH   1  24
ATOM     24  C   LIG    1       26.450 -32.818   5.955  0.00  0.00    +0.192 C 
ATOM     25  O   LIG    1       27.677 -32.701   5.827  0.00  0.00    -0.292 OA
BRANCH  24  26
ATOM     26  C   LIG    1       25.837 -33.824   4.988  0.00  0.00    +0.187 C 
ATOM     27 CL   LIG    1       25.588 -33.329   3.320  0.00  0.00    -0.117 Cl
ENDBRANCH  24  26
ENDBRANCH   1  24
BRANCH   6  28
ATOM     28  O   LIG    1       26.374 -29.725  11.379  0.00  0.00    -0.389 OA
ATOM     29  H   LIG    1       26.018 -29.851  12.282  0.00  0.00    +0.210 HD
ENDBRANCH   6  28
BRANCH   1  30
ATOM     30  O   LIG    1       25.911 -30.593   7.010  0.00  0.00    -0.450 OA
BRANCH  30  31
ATOM     31  C   LIG    1       25.165 -29.822   6.140  0.00  0.00    +0.308 C 
ATOM     32  O   LIG    1       25.147 -29.930   4.968  0.00  0.00    -0.251 OA
BRANCH  31  34
ATOM     33  C   LIG    1       24.435 -27.416   6.119  0.00  0.00    +0.015 C 
ATOM     34  C   LIG    1       24.383 -28.753   6.823  0.00  0.00    +0.117 C 
ENDBRANCH  31  34
ENDBRANCH  30  31
ENDBRANCH   1  30
TORSDOF 6
ENDMDL
MODEL 5
REMARK VINA RESULT:      -4.4      3.720      7.067
REMARK  Name = *****
REMARK                            x       y       z     vdW  Elec       q    Type
REMARK                         _______ _______ _______ _____ _____    ______ ____
ROOT
ATOM      1  C   LIG    1       22.756 -31.056  10.790  0.00  0.00    +0.180 C 
ATOM      2  C   LIG    1       24.040 -31.535   9.765  0.00  0.00    +0.021 C 
ATOM      3  C   LIG    1       25.132 -30.422   9.893  0.00  0.00    +0.006 C 
ATOM      4  C   LIG    1       25.292 -29.376   8.750  0.00  0.00    +0.037 C 
ATOM      5  C   LIG    1       25.027 -29.844   7.313  0.00  0.00    +0.153 C 
ATOM      6  C   LIG    1       23.726 -30.677   7.263  0.00  0.00    +0.154 C 
ATOM      7  F   LIG    1       26.049 -30.704   6.973  0.00  0.00    -0.238 F 
ATOM      8  C   LIG    1       25.086 -28.608   6.295  0.00  0.00    +0.047 C 
ATOM      9  C   LIG    1       26.381 -27.761   6.493  0.00  0.00    -0.020 C 
ATOM     10  C   LIG    1       26.535 -26.657   5.720  0.00  0.00    +0.054 C 
ATOM     11  C   LIG    1       25.376 -25.701   5.901  0.00  0.00    +0.179 C 
ATOM     12  C   LIG    1       24.064 -26.289   6.302  0.00  0.00    +0.047 C 
ATOM     13  O   LIG    1       25.487 -24.512   5.630  0.00  0.00    -0.288 OA
ATOM     14  C   LIG    1       26.853 -27.575   7.926  0.00  0.00    +0.194 C 
ATOM     15  F   LIG    1       26.131 -26.581   8.528  0.00  0.00    -0.241 F 
ATOM     16  C   LIG    1       25.012 -29.126   4.834  0.00  0.00    +0.023 C 
ATOM     17  C   LIG    1       23.919 -27.619   6.456  0.00  0.00    -0.009 C 
ATOM     18  C   LIG    1       26.721 -28.796   8.813  0.00  0.00    +0.048 C 
ATOM     19  C   LIG    1       24.728 -29.657  11.157  0.00  0.00    +0.012 C 
ATOM     20  C   LIG    1       24.709 -32.885  10.178  0.00  0.00    +0.016 C 
ATOM     21  C   LIG    1       23.699 -31.819   8.271  0.00  0.00    +0.045 C 
ATOM     22  C   LIG    1       23.200 -29.583  11.094  0.00  0.00    +0.038 C 
ATOM     23  C   LIG    1       22.723 -28.807  12.320  0.00  0.00    +0.012 C 
ENDROOT
BRANCH   1  24
ATOM     24  C   LIG    1       22.577 -31.977  12.105  0.00  0.00    +0.192 C 
ATOM     25  O   LIG    1       21.974 -33.057  12.041  0.00  0.00    -0.292 OA
BRANCH  24  26
ATOM     26  C   LIG    1       23.183 -31.706  13.476  0.00  0.00    +0.187 C 
ATOM     27 CL   LIG    1       24.859 -32.160  13.750  0.00  0.00    -0.117 Cl
ENDBRANCH  24  26
ENDBRANCH   1  24
BRANCH   6  28
ATOM     28  O   LIG    1       23.575 -31.302   5.977  0.00  0.00    -0.389 OA
ATOM     29  H   LIG    1       24.439 -31.237   5.520  0.00  0.00    +0.210 HD
ENDBRANCH   6  28
BRANCH   1  30
ATOM     30  O   LIG    1       21.547 -31.128   9.966  0.00  0.00    -0.450 OA
BRANCH  30  31
ATOM     31  C   LIG    1       20.299 -30.956  10.532  0.00  0.00    +0.308 C 
ATOM     32  O   LIG    1       20.008 -30.132  11.320  0.00  0.00    -0.251 OA
BRANCH  31  34
ATOM     33  C   LIG    1       17.937 -31.407   9.796  0.00  0.00    +0.015 C 
ATOM     34  C   LIG    1       19.306 -31.976  10.089  0.00  0.00    +0.117 C 
ENDBRANCH  31  34
ENDBRANCH  30  31
ENDBRANCH   1  30
TORSDOF 6
ENDMDL
MODEL 6
REMARK VINA RESULT:      -4.1      3.067      6.644
REMARK  Name = *****
REMARK                            x       y       z     vdW  Elec       q    Type
REMARK                         _______ _______ _______ _____ _____    ______ ____
ROOT
ATOM      1  C   LIG    1       24.207 -29.040  13.016  0.00  0.00    +0.180 C 
ATOM      2  C   LIG    1       24.061 -30.724  12.743  0.00  0.00    +0.021 C 
ATOM      3  C   LIG    1       25.350 -31.145  11.961  0.00  0.00    +0.006 C 
ATOM      4  C   LIG    1       25.259 -31.409  10.428  0.00  0.00    +0.037 C 
ATOM      5  C   LIG    1       23.958 -32.016   9.885  0.00  0.00    +0.153 C 
ATOM      6  C   LIG    1       22.742 -31.286  10.498  0.00  0.00    +0.154 C 
ATOM      7  F   LIG    1       23.897 -33.316  10.340  0.00  0.00    -0.238 F 
ATOM      8  C   LIG    1       23.986 -32.071   8.284  0.00  0.00    +0.047 C 
ATOM      9  C   LIG    1       25.298 -32.724   7.753  0.00  0.00    -0.020 C 
ATOM     10  C   LIG    1       25.467 -32.794   6.409  0.00  0.00    +0.054 C 
ATOM     11  C   LIG    1       25.397 -31.420   5.780  0.00  0.00    +0.179 C 
ATOM     12  C   LIG    1       24.584 -30.387   6.488  0.00  0.00    +0.047 C 
ATOM     13  O   LIG    1       25.900 -31.197   4.686  0.00  0.00    -0.288 OA
ATOM     14  C   LIG    1       26.572 -32.391   8.513  0.00  0.00    +0.194 C 
ATOM     15  F   LIG    1       27.042 -31.168   8.120  0.00  0.00    -0.241 F 
ATOM     16  C   LIG    1       22.755 -32.861   7.764  0.00  0.00    +0.023 C 
ATOM     17  C   LIG    1       23.914 -30.687   7.617  0.00  0.00    -0.009 C 
ATOM     18  C   LIG    1       26.428 -32.330  10.019  0.00  0.00    +0.048 C 
ATOM     19  C   LIG    1       26.305 -29.965  12.164  0.00  0.00    +0.012 C 
ATOM     20  C   LIG    1       24.019 -31.576  14.052  0.00  0.00    +0.016 C 
ATOM     21  C   LIG    1       22.775 -31.226  12.020  0.00  0.00    +0.045 C 
ATOM     22  C   LIG    1       25.413 -28.724  12.065  0.00  0.00    +0.038 C 
ATOM     23  C   LIG    1       26.306 -27.497  12.235  0.00  0.00    +0.012 C 
ENDROOT
BRANCH   1  24
ATOM     24  C   LIG    1       24.459 -28.638  14.559  0.00  0.00    +0.192 C 
ATOM     25  O   LIG    1       23.535 -28.685  15.383  0.00  0.00    -0.292 OA
BRANCH  24  26
ATOM     26  C   LIG    1       25.802 -28.277  15.182  0.00  0.00    +0.187 C 
ATOM     27 CL   LIG    1       26.946 -29.573  15.500  0.00  0.00    -0.117 Cl
ENDBRANCH  24  26
ENDBRANCH   1  24
BRANCH   6  28
ATOM     28  O   LIG    1       21.522 -31.973  10.172  0.00  0.00    -0.389 OA
ATOM     29  H   LIG    1       20.985 -32.014  10.991  0.00  0.00    +0.210 HD
ENDBRANCH   6  28
BRANCH   1  30
ATOM     30  O   LIG    1       22.946 -28.457  12.551  0.00  0.00    -0.450 OA
BRANCH  30  31
ATOM     31  C   LIG    1       22.522 -27.230  13.025  0.00  0.00    +0.308 C 
ATOM     32  O   LIG    1       23.211 -26.304  13.250  0.00  0.00    -0.251 OA
BRANCH  31  34
ATOM     33  C   LIG    1       20.434 -28.535  13.531  0.00  0.00    +0.015 C 
ATOM     34  C   LIG    1       21.057 -27.179  13.294  0.00  0.00    +0.117 C 
ENDBRANCH  31  34
ENDBRANCH  30  31
ENDBRANCH   1  30
TORSDOF 6
ENDMDL
MODEL 7
REMARK VINA RESULT:      -4.1      3.016      4.440
REMARK  Name = *****
REMARK                            x       y       z     vdW  Elec       q    Type
REMARK                         _______ _______ _______ _____ _____    ______ ____
ROOT
ATOM      1  C   LIG    1       26.126 -29.463  13.245  0.00  0.00    +0.180 C 
ATOM      2  C   LIG    1       25.558 -31.006  13.721  0.00  0.00    +0.021 C 
ATOM      3  C   LIG    1       25.139 -31.736  12.401  0.00  0.00    +0.006 C 
ATOM      4  C   LIG    1       23.628 -31.858  12.045  0.00  0.00    +0.037 C 
ATOM      5  C   LIG    1       22.632 -32.015  13.202  0.00  0.00    +0.153 C 
ATOM      6  C   LIG    1       22.963 -31.000  14.320  0.00  0.00    +0.154 C 
ATOM      7  F   LIG    1       22.835 -33.266  13.743  0.00  0.00    -0.238 F 
ATOM      8  C   LIG    1       21.125 -31.968  12.661  0.00  0.00    +0.047 C 
ATOM      9  C   LIG    1       20.913 -32.943  11.462  0.00  0.00    -0.020 C 
ATOM     10  C   LIG    1       19.687 -32.969  10.882  0.00  0.00    +0.054 C 
ATOM     11  C   LIG    1       19.292 -31.597  10.382  0.00  0.00    +0.179 C 
ATOM     12  C   LIG    1       19.881 -30.420  11.088  0.00  0.00    +0.047 C 
ATOM     13  O   LIG    1       18.449 -31.460   9.506  0.00  0.00    -0.288 OA
ATOM     14  C   LIG    1       22.061 -33.053  10.472  0.00  0.00    +0.194 C 
ATOM     15  F   LIG    1       22.025 -32.001   9.600  0.00  0.00    -0.241 F 
ATOM     16  C   LIG    1       20.143 -32.322  13.810  0.00  0.00    +0.023 C 
ATOM     17  C   LIG    1       20.695 -30.583  12.147  0.00  0.00    -0.009 C 
ATOM     18  C   LIG    1       23.445 -33.054  11.086  0.00  0.00    +0.048 C 
ATOM     19  C   LIG    1       25.803 -30.908  11.297  0.00  0.00    +0.012 C 
ATOM     20  C   LIG    1       26.642 -31.893  14.413  0.00  0.00    +0.016 C 
ATOM     21  C   LIG    1       24.415 -31.056  14.778  0.00  0.00    +0.045 C 
ATOM     22  C   LIG    1       25.641 -29.455  11.753  0.00  0.00    +0.038 C 
ATOM     23  C   LIG    1       26.263 -28.561  10.682  0.00  0.00    +0.012 C 
ENDROOT
BRANCH   1  24
ATOM     24  C   LIG    1       27.718 -29.258  13.423  0.00  0.00    +0.192 C 
ATOM     25  O   LIG    1       28.502 -29.595  12.524  0.00  0.00    -0.292 OA
BRANCH  24  26
ATOM     26  C   LIG    1       28.406 -28.570  14.595  0.00  0.00    +0.187 C 
ATOM     27 CL   LIG    1       28.211 -26.832  14.770  0.00  0.00    -0.117 Cl
ENDBRANCH  24  26
ENDBRANCH   1  24
BRANCH   6  28
ATOM     28  O   LIG    1       22.183 -31.273  15.496  0.00  0.00    -0.389 OA
ATOM     29  H   LIG    1       22.618 -32.014  15.967  0.00  0.00    +0.210 HD
ENDBRANCH   6  28
BRANCH   1  30
ATOM     30  O   LIG    1       25.405 -28.503  14.083  0.00  0.00    -0.450 OA
BRANCH  30  31
ATOM     31  C   LIG    1       24.773 -27.412  13.519  0.00  0.00    +0.308 C 
ATOM     32  O   LIG    1       25.276 -26.379  13.269  0.00  0.00    -0.251 OA
BRANCH  31  34
ATOM     33  C   LIG    1       22.499 -26.361  13.301  0.00  0.00    +0.015 C 
ATOM     34  C   LIG    1       23.317 -27.632  13.285  0.00  0.00    +0.117 C 
ENDBRANCH  31  34
ENDBRANCH  30  31
ENDBRANCH   1  30
TORSDOF 6
ENDMDL
MODEL 8
REMARK VINA RESULT:      -4.1      3.021      5.270
REMARK  Name = *****
REMARK                            x       y       z     vdW  Elec       q    Type
REMARK                         _______ _______ _______ _____ _____    ______ ____
ROOT
ATOM      1  C   LIG    1       26.064 -30.001  13.130  0.00  0.00    +0.180 C 
ATOM      2  C   LIG    1       25.483 -29.899  11.523  0.00  0.00    +0.021 C 
ATOM      3  C   LIG    1       24.003 -29.403  11.632  0.00  0.00    +0.006 C 
ATOM      4  C   LIG    1       22.842 -30.424  11.441  0.00  0.00    +0.037 C 
ATOM      5  C   LIG    1       23.057 -31.571  10.445  0.00  0.00    +0.153 C 
ATOM      6  C   LIG    1       24.453 -32.199  10.660  0.00  0.00    +0.154 C 
ATOM      7  F   LIG    1       23.074 -31.014   9.184  0.00  0.00    -0.238 F 
ATOM      8  C   LIG    1       21.830 -32.601  10.495  0.00  0.00    +0.047 C 
ATOM      9  C   LIG    1       20.458 -31.868  10.381  0.00  0.00    -0.020 C 
ATOM     10  C   LIG    1       19.334 -32.624  10.452  0.00  0.00    +0.054 C 
ATOM     11  C   LIG    1       19.286 -33.407  11.746  0.00  0.00    +0.179 C 
ATOM     12  C   LIG    1       20.593 -33.753  12.381  0.00  0.00    +0.047 C 
ATOM     13  O   LIG    1       18.227 -33.825  12.195  0.00  0.00    -0.288 OA
ATOM     14  C   LIG    1       20.345 -30.534  11.100  0.00  0.00    +0.194 C 
ATOM     15  F   LIG    1       20.106 -30.741  12.430  0.00  0.00    -0.241 F 
ATOM     16  C   LIG    1       21.970 -33.641   9.350  0.00  0.00    +0.023 C 
ATOM     17  C   LIG    1       21.758 -33.413  11.799  0.00  0.00    -0.009 C 
ATOM     18  C   LIG    1       21.573 -29.651  11.019  0.00  0.00    +0.048 C 
ATOM     19  C   LIG    1       23.902 -28.860  13.060  0.00  0.00    +0.012 C 
ATOM     20  C   LIG    1       26.250 -28.865  10.638  0.00  0.00    +0.016 C 
ATOM     21  C   LIG    1       25.584 -31.178  10.640  0.00  0.00    +0.045 C 
ATOM     22  C   LIG    1       24.710 -29.846  13.908  0.00  0.00    +0.038 C 
ATOM     23  C   LIG    1       24.635 -29.378  15.360  0.00  0.00    +0.012 C 
ENDROOT
BRANCH   1  24
ATOM     24  C   LIG    1       27.174 -28.890  13.507  0.00  0.00    +0.192 C 
ATOM     25  O   LIG    1       28.378 -29.113  13.322  0.00  0.00    -0.292 OA
BRANCH  24  26
ATOM     26  C   LIG    1       26.892 -27.477  14.002  0.00  0.00    +0.187 C 
ATOM     27 CL   LIG    1       26.622 -26.215  12.808  0.00  0.00    -0.117 Cl
ENDBRANCH  24  26
ENDBRANCH   1  24
BRANCH   6  28
ATOM     28  O   LIG    1       24.759 -33.125   9.604  0.00  0.00    -0.389 OA
ATOM     29  H   LIG    1       24.595 -34.025   9.953  0.00  0.00    +0.210 HD
ENDBRANCH   6  28
BRANCH   1  30
ATOM     30  O   LIG    1       26.642 -31.341  13.255  0.00  0.00    -0.450 OA
BRANCH  30  31
ATOM     31  C   LIG    1       26.376 -32.121  14.364  0.00  0.00    +0.308 C 
ATOM     32  O   LIG    1       26.804 -31.947  15.446  0.00  0.00    -0.251 OA
BRANCH  31  34
ATOM     33  C   LIG    1       24.136 -33.211  14.703  0.00  0.00    +0.015 C 
ATOM     34  C   LIG    1       25.503 -33.292  14.064  0.00  0.00    +0.117 C 
ENDBRANCH  31  34
ENDBRANCH  30  31
ENDBRANCH   1  30
TORSDOF 6
ENDMDL
MODEL 9
REMARK VINA RESULT:      -4.1      3.216      6.935
REMARK  Name = *****
REMARK                            x       y       z     vdW  Elec       q    Type
REMARK                         _______ _______ _______ _____ _____    ______ ____
ROOT
ATOM      1  C   LIG    1       22.635 -31.046  13.235  0.00  0.00    +0.180 C 
ATOM      2  C   LIG    1       24.301 -30.868  12.885  0.00  0.00    +0.021 C 
ATOM      3  C   LIG    1       24.379 -29.935  11.631  0.00  0.00    +0.006 C 
ATOM      4  C   LIG    1       24.679 -30.558  10.235  0.00  0.00    +0.037 C 
ATOM      5  C   LIG    1       25.613 -31.775  10.183  0.00  0.00    +0.153 C 
ATOM      6  C   LIG    1       25.220 -32.787  11.282  0.00  0.00    +0.154 C 
ATOM      7  F   LIG    1       26.877 -31.328  10.503  0.00  0.00    -0.238 F 
ATOM      8  C   LIG    1       25.681 -32.372   8.697  0.00  0.00    +0.047 C 
ATOM      9  C   LIG    1       25.973 -31.261   7.643  0.00  0.00    -0.020 C 
ATOM     10  C   LIG    1       26.015 -31.628   6.338  0.00  0.00    +0.054 C 
ATOM     11  C   LIG    1       24.715 -32.278   5.914  0.00  0.00    +0.179 C 
ATOM     12  C   LIG    1       23.923 -32.970   6.973  0.00  0.00    +0.047 C 
ATOM     13  O   LIG    1       24.383 -32.322   4.737  0.00  0.00    -0.288 OA
ATOM     14  C   LIG    1       25.307 -29.915   7.879  0.00  0.00    +0.194 C 
ATOM     15  F   LIG    1       24.009 -29.957   7.450  0.00  0.00    -0.241 F 
ATOM     16  C   LIG    1       26.773 -33.472   8.623  0.00  0.00    +0.023 C 
ATOM     17  C   LIG    1       24.373 -33.041   8.240  0.00  0.00    -0.009 C 
ATOM     18  C   LIG    1       25.266 -29.460   9.323  0.00  0.00    +0.048 C 
ATOM     19  C   LIG    1       22.987 -29.301  11.557  0.00  0.00    +0.012 C 
ATOM     20  C   LIG    1       25.116 -30.176  14.024  0.00  0.00    +0.016 C 
ATOM     21  C   LIG    1       25.133 -32.168  12.672  0.00  0.00    +0.045 C 
ATOM     22  C   LIG    1       22.025 -30.434  11.925  0.00  0.00    +0.038 C 
ATOM     23  C   LIG    1       20.605 -29.879  11.850  0.00  0.00    +0.012 C 
ENDROOT
BRANCH   1  24
ATOM     24  C   LIG    1       22.159 -30.309  14.591  0.00  0.00    +0.192 C 
ATOM     25  O   LIG    1       21.590 -30.946  15.489  0.00  0.00    -0.292 OA
BRANCH  24  26
ATOM     26  C   LIG    1       22.430 -28.856  14.962  0.00  0.00    +0.187 C 
ATOM     27 CL   LIG    1       21.197 -27.660  14.593  0.00  0.00    -0.117 Cl
ENDBRANCH  24  26
ENDBRANCH   1  24
BRANCH   6  28
ATOM     28  O   LIG    1       26.208 -33.825  11.391  0.00  0.00    -0.389 OA
ATOM     29  H   LIG    1       25.803 -34.648  11.046  0.00  0.00    +0.210 HD
ENDBRANCH   6  28
BRANCH   1  30
ATOM     30  O   LIG    1       22.409 -32.488  13.349  0.00  0.00    -0.450 OA
BRANCH  30  31
ATOM     31  C   LIG    1       21.375 -33.095  12.662  0.00  0.00    +0.308 C 
ATOM     32  O   LIG    1       20.244 -33.100  12.986  0.00  0.00    -0.251 OA
BRANCH  31  34
ATOM     33  C   LIG    1       21.245 -33.280  10.158  0.00  0.00    +0.015 C 
ATOM     34  C   LIG    1       21.826 -33.824  11.443  0.00  0.00    +0.117 C 
ENDBRANCH  31  34
ENDBRANCH  30  31
ENDBRANCH   1  30
TORSDOF 6
ENDMDL
