MODEL 1
REMARK VINA RESULT:      -3.3      0.000      0.000
REMARK  Name = *****
REMARK                            x       y       z     vdW  Elec       q    Type
REMARK                         _______ _______ _______ _____ _____    ______ ____
ROOT
ATOM      1  C   LIG    1       23.545 -20.002   6.840  0.00  0.00    +0.105 C 
ATOM      2  N   LIG    1       22.632 -20.446   5.778  0.00  0.00    -0.302 NA
ATOM      3  C   LIG    1       22.349 -19.303   4.881  0.00  0.00    +0.111 C 
ATOM      4  C   LIG    1       23.525 -18.803   3.917  0.00  0.00    +0.118 C 
ATOM      5  N   LIG    1       24.574 -19.888   3.762  0.00  0.00    -0.320 N 
ATOM      6  C   LIG    1       25.797 -19.845   4.436  0.00  0.00    +0.034 A 
ATOM      7  C   LIG    1       26.648 -18.740   4.308  0.00  0.00    -0.022 A 
ATOM      8  C   LIG    1       26.321 -17.669   3.304  0.00  0.00    +0.072 C 
ATOM      9  C   LIG    1       25.172 -16.793   3.715  0.00  0.00    -0.038 A 
ATOM     10  C   LIG    1       25.373 -15.395   3.676  0.00  0.00    +0.004 A 
ATOM     11  C   LIG    1       24.349 -14.505   3.976  0.00  0.00    +0.000 A 
ATOM     12  C   LIG    1       23.105 -15.000   4.330  0.00  0.00    +0.000 A 
ATOM     13  C   LIG    1       22.892 -16.380   4.356  0.00  0.00    +0.006 A 
ATOM     14  C   LIG    1       27.858 -18.657   5.036  0.00  0.00    +0.006 A 
ATOM     15  C   LIG    1       28.265 -19.697   5.869  0.00  0.00    +0.000 A 
ATOM     16  C   LIG    1       27.487 -20.843   5.942  0.00  0.00    +0.002 A 
ATOM     17  C   LIG    1       26.299 -20.914   5.212  0.00  0.00    +0.023 A 
ATOM     18  C   LIG    1       23.910 -21.206   3.667  0.00  0.00    +0.121 C 
ATOM     19  C   LIG    1       23.912 -17.320   4.057  0.00  0.00    -0.022 A 
ATOM     20  C   LIG    1       23.150 -21.572   4.972  0.00  0.00    +0.103 C 
ENDROOT
TORSDOF 0
ENDMDL
MODEL 2
REMARK VINA RESULT:      -1.0      1.282      1.837
REMARK  Name = *****
REMARK                            x       y       z     vdW  Elec       q    Type
REMARK                         _______ _______ _______ _____ _____    ______ ____
ROOT
ATOM      1  C   LIG    1       22.848 -18.994   5.753  0.00  0.00    +0.105 C 
ATOM      2  N   LIG    1       22.365 -19.216   4.384  0.00  0.00    -0.302 NA
ATOM      3  C   LIG    1       23.045 -18.263   3.476  0.00  0.00    +0.111 C 
ATOM      4  C   LIG    1       24.596 -18.506   3.167  0.00  0.00    +0.118 C 
ATOM      5  N   LIG    1       24.978 -19.938   3.493  0.00  0.00    -0.320 N 
ATOM      6  C   LIG    1       25.679 -20.278   4.653  0.00  0.00    +0.034 A 
ATOM      7  C   LIG    1       26.911 -19.682   4.948  0.00  0.00    -0.022 A 
ATOM      8  C   LIG    1       27.567 -18.796   3.925  0.00  0.00    +0.072 C 
ATOM      9  C   LIG    1       26.903 -17.457   3.777  0.00  0.00    -0.038 A 
ATOM     10  C   LIG    1       27.725 -16.311   3.858  0.00  0.00    +0.004 A 
ATOM     11  C   LIG    1       27.212 -15.034   3.670  0.00  0.00    +0.000 A 
ATOM     12  C   LIG    1       25.861 -14.880   3.405  0.00  0.00    +0.000 A 
ATOM     13  C   LIG    1       25.043 -16.008   3.308  0.00  0.00    +0.006 A 
ATOM     14  C   LIG    1       27.596 -19.971   6.151  0.00  0.00    +0.006 A 
ATOM     15  C   LIG    1       27.088 -20.896   7.060  0.00  0.00    +0.000 A 
ATOM     16  C   LIG    1       25.917 -21.570   6.750  0.00  0.00    +0.002 A 
ATOM     17  C   LIG    1       25.255 -21.280   5.555  0.00  0.00    +0.023 A 
ATOM     18  C   LIG    1       23.886 -20.846   3.082  0.00  0.00    +0.121 C 
ATOM     19  C   LIG    1       25.530 -17.327   3.494  0.00  0.00    -0.022 A 
ATOM     20  C   LIG    1       22.581 -20.590   3.886  0.00  0.00    +0.103 C 
ENDROOT
TORSDOF 0
ENDMDL
