MODEL 1
REMARK VINA RESULT:     -11.2      0.000      0.000
REMARK  Name = *****
REMARK                            x       y       z     vdW  Elec       q    Type
REMARK                         _______ _______ _______ _____ _____    ______ ____
ROOT
ATOM      1  C   LIG    1       25.146 -21.416   6.836  0.00  0.00    +0.097 C 
ENDROOT
BRANCH   1   5
ATOM      2  C   LIG    1       24.603 -25.721   6.461  0.00  0.00    +0.132 A 
ATOM      3  C   LIG    1       23.492 -24.878   6.450  0.00  0.00    +0.046 A 
ATOM      4  C   LIG    1       23.670 -23.494   6.589  0.00  0.00    +0.008 A 
ATOM      5  C   LIG    1       24.955 -22.939   6.743  0.00  0.00    -0.034 A 
ATOM      6  C   LIG    1       26.050 -23.820   6.778  0.00  0.00    +0.008 A 
ATOM      7  C   LIG    1       25.878 -25.198   6.638  0.00  0.00    +0.046 A 
BRANCH   2   8
ATOM      8  O   LIG    1       24.360 -27.109   6.439  0.00  0.00    -0.426 OA
BRANCH   8  10
ATOM      9  C   LIG    1       24.494 -29.323   5.651  0.00  0.00    +0.136 C 
ATOM     10  C   LIG    1       24.945 -27.903   5.443  0.00  0.00    +0.309 C 
ATOM     11  O   LIG    1       25.694 -27.545   4.559  0.00  0.00    -0.251 OA
ENDBRANCH   8  10
ENDBRANCH   2   8
ENDBRANCH   1   5
BRANCH   1  12
ATOM     12  C   LIG    1       24.374 -20.607   5.771  0.00  0.00    +0.053 A 
ATOM     13  N   LIG    1       24.951 -20.407   4.556  0.00  0.00    -0.259 NA
ATOM     14  C   LIG    1       24.287 -19.664   3.645  0.00  0.00    +0.111 A 
ATOM     15  C   LIG    1       23.058 -19.079   3.878  0.00  0.00    +0.020 A 
ATOM     16  C   LIG    1       22.475 -19.267   5.123  0.00  0.00    +0.003 A 
ATOM     17  C   LIG    1       23.139 -20.029   6.086  0.00  0.00    +0.024 A 
ENDBRANCH   1  12
BRANCH   1  18
ATOM     18  C   LIG    1       26.618 -20.991   6.956  0.00  0.00    -0.034 A 
ATOM     19  C   LIG    1       27.446 -21.447   8.000  0.00  0.00    +0.008 A 
ATOM     20  C   LIG    1       28.796 -21.073   8.073  0.00  0.00    +0.046 A 
ATOM     21  C   LIG    1       29.331 -20.233   7.097  0.00  0.00    +0.132 A 
ATOM     22  C   LIG    1       28.529 -19.793   6.047  0.00  0.00    +0.046 A 
ATOM     23  C   LIG    1       27.178 -20.136   5.996  0.00  0.00    +0.008 A 
BRANCH  21  24
ATOM     24  O   LIG    1       30.701 -19.898   7.184  0.00  0.00    -0.426 OA
BRANCH  24  25
ATOM     25  C   LIG    1       31.210 -19.329   8.356  0.00  0.00    +0.309 C 
ATOM     26  O   LIG    1       32.027 -19.821   9.127  0.00  0.00    -0.251 OA
ATOM     27  C   LIG    1       30.585 -17.993   8.595  0.00  0.00    +0.136 C 
ENDBRANCH  24  25
ENDBRANCH  21  24
ENDBRANCH   1  18
TORSDOF 7
ENDMDL
MODEL 2
REMARK VINA RESULT:     -10.9      0.676      1.332
REMARK  Name = *****
REMARK                            x       y       z     vdW  Elec       q    Type
REMARK                         _______ _______ _______ _____ _____    ______ ____
ROOT
ATOM      1  C   LIG    1       25.099 -21.111   6.834  0.00  0.00    +0.097 C 
ENDROOT
BRANCH   1   5
ATOM      2  C   LIG    1       24.657 -25.432   6.509  0.00  0.00    +0.132 A 
ATOM      3  C   LIG    1       23.528 -24.614   6.459  0.00  0.00    +0.046 A 
ATOM      4  C   LIG    1       23.674 -23.224   6.582  0.00  0.00    +0.008 A 
ATOM      5  C   LIG    1       24.943 -22.640   6.758  0.00  0.00    -0.034 A 
ATOM      6  C   LIG    1       26.055 -23.496   6.831  0.00  0.00    +0.008 A 
ATOM      7  C   LIG    1       25.915 -24.880   6.707  0.00  0.00    +0.046 A 
BRANCH   2   8
ATOM      8  O   LIG    1       24.444 -26.826   6.500  0.00  0.00    -0.426 OA
BRANCH   8  10
ATOM      9  C   LIG    1       24.433 -29.006   5.614  0.00  0.00    +0.136 C 
ATOM     10  C   LIG    1       24.939 -27.600   5.442  0.00  0.00    +0.309 C 
ATOM     11  O   LIG    1       25.659 -27.237   4.536  0.00  0.00    -0.251 OA
ENDBRANCH   8  10
ENDBRANCH   2   8
ENDBRANCH   1   5
BRANCH   1  12
ATOM     12  C   LIG    1       24.293 -20.332   5.773  0.00  0.00    +0.053 A 
ATOM     13  N   LIG    1       23.042 -19.902   6.087  0.00  0.00    -0.259 NA
ATOM     14  C   LIG    1       22.328 -19.258   5.139  0.00  0.00    +0.111 A 
ATOM     15  C   LIG    1       22.787 -19.021   3.858  0.00  0.00    +0.020 A 
ATOM     16  C   LIG    1       24.057 -19.474   3.529  0.00  0.00    +0.003 A 
ATOM     17  C   LIG    1       24.817 -20.145   4.489  0.00  0.00    +0.024 A 
ENDBRANCH   1  12
BRANCH   1  18
ATOM     18  C   LIG    1       26.562 -20.651   6.927  0.00  0.00    -0.034 A 
ATOM     19  C   LIG    1       27.307 -20.287   5.789  0.00  0.00    +0.008 A 
ATOM     20  C   LIG    1       28.632 -19.839   5.899  0.00  0.00    +0.046 A 
ATOM     21  C   LIG    1       29.227 -19.755   7.157  0.00  0.00    +0.132 A 
ATOM     22  C   LIG    1       28.495 -20.091   8.293  0.00  0.00    +0.046 A 
ATOM     23  C   LIG    1       27.190 -20.571   8.179  0.00  0.00    +0.008 A 
BRANCH  21  24
ATOM     24  O   LIG    1       30.553 -19.274   7.236  0.00  0.00    -0.426 OA
BRANCH  24  25
ATOM     25  C   LIG    1       31.136 -19.028   8.483  0.00  0.00    +0.309 C 
ATOM     26  O   LIG    1       31.861 -19.780   9.126  0.00  0.00    -0.251 OA
ATOM     27  C   LIG    1       30.726 -17.683   8.989  0.00  0.00    +0.136 C 
ENDBRANCH  24  25
ENDBRANCH  21  24
ENDBRANCH   1  18
TORSDOF 7
ENDMDL
MODEL 3
REMARK VINA RESULT:      -9.9      1.082      7.161
REMARK  Name = *****
REMARK                            x       y       z     vdW  Elec       q    Type
REMARK                         _______ _______ _______ _____ _____    ______ ____
ROOT
ATOM      1  C   LIG    1       25.910 -21.273   5.378  0.00  0.00    +0.097 C 
ENDROOT
BRANCH   1   5
ATOM      2  C   LIG    1       28.880 -19.642   8.116  0.00  0.00    +0.132 A 
ATOM      3  C   LIG    1       27.635 -20.042   8.601  0.00  0.00    +0.046 A 
ATOM      4  C   LIG    1       26.675 -20.550   7.713  0.00  0.00    +0.008 A 
ATOM      5  C   LIG    1       26.947 -20.661   6.336  0.00  0.00    -0.034 A 
ATOM      6  C   LIG    1       28.202 -20.223   5.877  0.00  0.00    +0.008 A 
ATOM      7  C   LIG    1       29.160 -19.719   6.758  0.00  0.00    +0.046 A 
BRANCH   2   8
ATOM      8  O   LIG    1       29.761 -19.029   9.029  0.00  0.00    -0.426 OA
BRANCH   8  10
ATOM      9  C   LIG    1       31.796 -17.968   8.510  0.00  0.00    +0.136 C 
ATOM     10  C   LIG    1       31.140 -19.256   8.926  0.00  0.00    +0.309 C 
ATOM     11  O   LIG    1       31.734 -20.295   9.121  0.00  0.00    -0.251 OA
ENDBRANCH   8  10
ENDBRANCH   2   8
ENDBRANCH   1   5
BRANCH   1  12
ATOM     12  C   LIG    1       24.673 -20.385   5.120  0.00  0.00    +0.053 A 
ATOM     13  N   LIG    1       23.621 -20.464   5.977  0.00  0.00    -0.259 NA
ATOM     14  C   LIG    1       22.527 -19.715   5.721  0.00  0.00    +0.111 A 
ATOM     15  C   LIG    1       22.406 -18.880   4.627  0.00  0.00    +0.020 A 
ATOM     16  C   LIG    1       23.472 -18.810   3.742  0.00  0.00    +0.003 A 
ATOM     17  C   LIG    1       24.616 -19.576   3.980  0.00  0.00    +0.024 A 
ENDBRANCH   1  12
BRANCH   1  18
ATOM     18  C   LIG    1       25.540 -22.724   5.727  0.00  0.00    -0.034 A 
ATOM     19  C   LIG    1       24.718 -23.507   4.894  0.00  0.00    +0.008 A 
ATOM     20  C   LIG    1       24.419 -24.840   5.214  0.00  0.00    +0.046 A 
ATOM     21  C   LIG    1       24.940 -25.401   6.379  0.00  0.00    +0.132 A 
ATOM     22  C   LIG    1       25.773 -24.645   7.200  0.00  0.00    +0.046 A 
ATOM     23  C   LIG    1       26.040 -23.309   6.899  0.00  0.00    +0.008 A 
BRANCH  21  24
ATOM     24  O   LIG    1       24.642 -26.754   6.658  0.00  0.00    -0.426 OA
BRANCH  24  25
ATOM     25  C   LIG    1       25.084 -27.760   5.793  0.00  0.00    +0.309 C 
ATOM     26  O   LIG    1       26.097 -27.756   5.101  0.00  0.00    -0.251 OA
ATOM     27  C   LIG    1       24.110 -28.894   5.780  0.00  0.00    +0.136 C 
ENDBRANCH  24  25
ENDBRANCH  21  24
ENDBRANCH   1  18
TORSDOF 7
ENDMDL
MODEL 4
REMARK VINA RESULT:      -8.6      3.040      6.029
REMARK  Name = *****
REMARK                            x       y       z     vdW  Elec       q    Type
REMARK                         _______ _______ _______ _____ _____    ______ ____
ROOT
ATOM      1  C   LIG    1       25.581 -21.570   5.276  0.00  0.00    +0.097 C 
ENDROOT
BRANCH   1   5
ATOM      2  C   LIG    1       22.804 -18.308   4.487  0.00  0.00    +0.132 A 
ATOM      3  C   LIG    1       23.970 -18.425   3.730  0.00  0.00    +0.046 A 
ATOM      4  C   LIG    1       24.870 -19.467   3.999  0.00  0.00    +0.008 A 
ATOM      5  C   LIG    1       24.618 -20.398   5.026  0.00  0.00    -0.034 A 
ATOM      6  C   LIG    1       23.447 -20.234   5.786  0.00  0.00    +0.008 A 
ATOM      7  C   LIG    1       22.548 -19.200   5.521  0.00  0.00    +0.046 A 
BRANCH   2   8
ATOM      8  O   LIG    1       21.996 -17.178   4.255  0.00  0.00    -0.426 OA
BRANCH   8  10
ATOM      9  C   LIG    1       23.218 -15.168   4.157  0.00  0.00    +0.136 C 
ATOM     10  C   LIG    1       22.242 -15.989   4.956  0.00  0.00    +0.309 C 
ATOM     11  O   LIG    1       21.777 -15.652   6.023  0.00  0.00    -0.251 OA
ENDBRANCH   8  10
ENDBRANCH   2   8
ENDBRANCH   1   5
BRANCH   1  12
ATOM     12  C   LIG    1       24.895 -22.880   5.720  0.00  0.00    +0.053 A 
ATOM     13  N   LIG    1       25.410 -24.065   5.297  0.00  0.00    -0.259 NA
ATOM     14  C   LIG    1       24.779 -25.204   5.656  0.00  0.00    +0.111 A 
ATOM     15  C   LIG    1       23.627 -25.237   6.417  0.00  0.00    +0.020 A 
ATOM     16  C   LIG    1       23.089 -24.029   6.835  0.00  0.00    +0.003 A 
ATOM     17  C   LIG    1       23.719 -22.835   6.478  0.00  0.00    +0.024 A 
ENDBRANCH   1  12
BRANCH   1  18
ATOM     18  C   LIG    1       26.781 -21.196   6.161  0.00  0.00    -0.034 A 
ATOM     19  C   LIG    1       27.030 -21.832   7.392  0.00  0.00    +0.008 A 
ATOM     20  C   LIG    1       28.149 -21.498   8.170  0.00  0.00    +0.046 A 
ATOM     21  C   LIG    1       29.031 -20.516   7.720  0.00  0.00    +0.132 A 
ATOM     22  C   LIG    1       28.808 -19.895   6.493  0.00  0.00    +0.046 A 
ATOM     23  C   LIG    1       27.676 -20.202   5.739  0.00  0.00    +0.008 A 
BRANCH  21  24
ATOM     24  O   LIG    1       30.162 -20.223   8.513  0.00  0.00    -0.426 OA
BRANCH  24  25
ATOM     25  C   LIG    1       30.841 -19.012   8.345  0.00  0.00    +0.309 C 
ATOM     26  O   LIG    1       31.824 -18.802   7.642  0.00  0.00    -0.251 OA
ATOM     27  C   LIG    1       30.220 -17.950   9.192  0.00  0.00    +0.136 C 
ENDBRANCH  24  25
ENDBRANCH  21  24
ENDBRANCH   1  18
TORSDOF 7
ENDMDL
MODEL 5
REMARK VINA RESULT:      -8.4      2.944      7.717
REMARK  Name = *****
REMARK                            x       y       z     vdW  Elec       q    Type
REMARK                         _______ _______ _______ _____ _____    ______ ____
ROOT
ATOM      1  C   LIG    1       25.575 -21.787   6.755  0.00  0.00    +0.097 C 
ENDROOT
BRANCH   1   5
ATOM      2  C   LIG    1       29.575 -20.121   7.198  0.00  0.00    +0.132 A 
ATOM      3  C   LIG    1       28.752 -19.681   6.161  0.00  0.00    +0.046 A 
ATOM      4  C   LIG    1       27.471 -20.234   6.011  0.00  0.00    +0.008 A 
ATOM      5  C   LIG    1       27.002 -21.229   6.891  0.00  0.00    -0.034 A 
ATOM      6  C   LIG    1       27.869 -21.667   7.908  0.00  0.00    +0.008 A 
ATOM      7  C   LIG    1       29.143 -21.119   8.061  0.00  0.00    +0.046 A 
BRANCH   2   8
ATOM      8  O   LIG    1       30.893 -19.621   7.231  0.00  0.00    -0.426 OA
BRANCH   8  10
ATOM      9  C   LIG    1       30.867 -17.790   8.710  0.00  0.00    +0.136 C 
ATOM     10  C   LIG    1       31.432 -19.158   8.438  0.00  0.00    +0.309 C 
ATOM     11  O   LIG    1       32.224 -19.727   9.159  0.00  0.00    -0.251 OA
ENDBRANCH   8  10
ENDBRANCH   2   8
ENDBRANCH   1   5
BRANCH   1  12
ATOM     12  C   LIG    1       25.504 -23.251   6.269  0.00  0.00    +0.053 A 
ATOM     13  N   LIG    1       24.967 -23.510   5.048  0.00  0.00    -0.259 NA
ATOM     14  C   LIG    1       24.870 -24.796   4.648  0.00  0.00    +0.111 A 
ATOM     15  C   LIG    1       25.272 -25.872   5.416  0.00  0.00    +0.020 A 
ATOM     16  C   LIG    1       25.804 -25.612   6.671  0.00  0.00    +0.003 A 
ATOM     17  C   LIG    1       25.914 -24.291   7.111  0.00  0.00    +0.024 A 
ENDBRANCH   1  12
BRANCH   1  18
ATOM     18  C   LIG    1       24.627 -20.856   5.983  0.00  0.00    -0.034 A 
ATOM     19  C   LIG    1       24.909 -20.420   4.673  0.00  0.00    +0.008 A 
ATOM     20  C   LIG    1       24.014 -19.596   3.974  0.00  0.00    +0.046 A 
ATOM     21  C   LIG    1       22.826 -19.196   4.584  0.00  0.00    +0.132 A 
ATOM     22  C   LIG    1       22.525 -19.638   5.870  0.00  0.00    +0.046 A 
ATOM     23  C   LIG    1       23.432 -20.427   6.578  0.00  0.00    +0.008 A 
BRANCH  21  24
ATOM     24  O   LIG    1       21.935 -18.390   3.842  0.00  0.00    -0.426 OA
BRANCH  24  25
ATOM     25  C   LIG    1       20.668 -18.875   3.503  0.00  0.00    +0.309 C 
ATOM     26  O   LIG    1       19.763 -18.266   2.941  0.00  0.00    -0.251 OA
ATOM     27  C   LIG    1       20.519 -20.291   3.955  0.00  0.00    +0.136 C 
ENDBRANCH  24  25
ENDBRANCH  21  24
ENDBRANCH   1  18
TORSDOF 7
ENDMDL
