MODEL 1
REMARK VINA RESULT:       1.0      0.000      0.000
REMARK  Name = *****
REMARK                            x       y       z     vdW  Elec       q    Type
REMARK                         _______ _______ _______ _____ _____    ______ ____
ROOT
ATOM      1  C   LIG    1       25.646 -14.373   5.354  0.00  0.00    +0.014 C 
ATOM      2  C   LIG    1       25.573 -14.635   3.829  0.00  0.00    -0.003 C 
ATOM      3  C   LIG    1       26.305 -13.504   3.057  0.00  0.00    +0.121 C 
ATOM      4  C   LIG    1       25.224 -12.450   2.762  0.00  0.00    +0.032 C 
ATOM      5  C   LIG    1       23.897 -13.008   3.344  0.00  0.00    +0.007 C 
ATOM      6  C   LIG    1       24.136 -14.522   3.274  0.00  0.00    +0.001 C 
ATOM      7  C   LIG    1       23.133 -15.641   3.703  0.00  0.00    -0.003 C 
ATOM      8  C   LIG    1       22.436 -15.630   5.084  0.00  0.00    +0.008 C 
ATOM      9  C   LIG    1       22.306 -16.964   5.890  0.00  0.00    +0.032 C 
ATOM     10  C   LIG    1       22.693 -18.274   5.239  0.00  0.00    -0.060 C 
ATOM     11  C   LIG    1       22.917 -18.251   3.738  0.00  0.00    -0.007 C 
ATOM     12  C   LIG    1       21.509 -18.201   3.091  0.00  0.00    +0.016 C 
ATOM     13  C   LIG    1       23.597 -19.561   3.222  0.00  0.00    +0.019 C 
ATOM     14  C   LIG    1       24.532 -20.199   4.243  0.00  0.00    +0.080 C 
ATOM     15  C   LIG    1       23.706 -20.525   5.451  0.00  0.00    +0.156 C 
ATOM     16  O   LIG    1       23.815 -21.561   6.062  0.00  0.00    -0.293 OA
ATOM     17  C   LIG    1       22.869 -19.395   5.975  0.00  0.00    +0.046 C 
ATOM     18  C   LIG    1       23.784 -17.012   3.354  0.00  0.00    +0.002 C 
ATOM     19  C   LIG    1       25.214 -17.120   3.932  0.00  0.00    +0.005 C 
ATOM     20  C   LIG    1       26.149 -16.007   3.519  0.00  0.00    +0.010 C 
ENDROOT
BRANCH   3  21
ATOM     21  O   LIG    1       26.851 -13.950   1.812  0.00  0.00    -0.391 OA
ATOM     22  H   LIG    1       26.848 -14.922   1.799  0.00  0.00    +0.210 HD
ENDBRANCH   3  21
TORSDOF 1
ENDMDL
