MODEL 1
REMARK VINA RESULT:      -9.5      0.000      0.000
REMARK  Name = *****
REMARK                            x       y       z     vdW  Elec       q    Type
REMARK                         _______ _______ _______ _____ _____    ______ ____
ROOT
ATOM      1  C   LIG    1       26.068 -21.621   6.941  0.00  0.00    +0.098 C 
ATOM      2  C   LIG    1       27.413 -20.875   6.940  0.00  0.00    -0.020 A 
ATOM      3  C   LIG    1       27.478 -19.991   5.838  0.00  0.00    -0.013 A 
ATOM      4  C   LIG    1       28.622 -19.248   5.596  0.00  0.00    +0.009 A 
ATOM      5  C   LIG    1       29.708 -19.392   6.464  0.00  0.00    +0.001 A 
ATOM      6  C   LIG    1       29.641 -20.268   7.560  0.00  0.00    +0.000 A 
ATOM      7  C   LIG    1       26.238 -20.064   5.095  0.00  0.00    -0.013 A 
ATOM      8  C   LIG    1       25.834 -19.398   3.950  0.00  0.00    +0.009 A 
ATOM      9  C   LIG    1       24.567 -19.678   3.428  0.00  0.00    +0.001 A 
ATOM     10  C   LIG    1       23.719 -20.610   4.048  0.00  0.00    +0.000 A 
ATOM     11  C   LIG    1       24.121 -21.282   5.201  0.00  0.00    +0.005 A 
ATOM     12  C   LIG    1       28.487 -21.018   7.808  0.00  0.00    +0.005 A 
ATOM     13  C   LIG    1       25.382 -21.002   5.711  0.00  0.00    -0.020 A 
ENDROOT
BRANCH   1  14
ATOM     14  C   LIG    1       25.237 -21.325   8.215  0.00  0.00    +0.225 C 
ATOM     15  O   LIG    1       25.583 -21.640   9.350  0.00  0.00    -0.275 OA
ATOM     16  N   LIG    1       24.028 -20.705   8.044  0.00  0.00    -0.328 N 
ATOM     17  H   LIG    1       23.446 -20.586   8.862  0.00  0.00    +0.145 HD
ATOM     18  H   LIG    1       23.621 -20.569   7.128  0.00  0.00    +0.145 HD
ENDBRANCH   1  14
BRANCH   1  19
ATOM     19  C   LIG    1       26.257 -23.150   6.764  0.00  0.00    +0.027 C 
BRANCH  19  20
ATOM     20  C   LIG    1       24.963 -23.983   6.856  0.00  0.00    +0.017 C 
BRANCH  20  21
ATOM     21  C   LIG    1       24.777 -24.937   5.673  0.00  0.00    +0.081 C 
BRANCH  21  22
ATOM     22  N   LIG    1       23.968 -26.096   6.043  0.00  0.00    -0.314 NA
ATOM     23  H   LIG    1       23.871 -26.127   7.059  0.00  0.00    +0.122 HD
BRANCH  22  25
ATOM     24  C   LIG    1       25.885 -27.091   4.931  0.00  0.00    +0.024 C 
ATOM     25  C   LIG    1       24.520 -27.369   5.565  0.00  0.00    +0.048 C 
ATOM     26  C   LIG    1       24.678 -28.396   6.689  0.00  0.00    +0.024 C 
ENDBRANCH  22  25
ENDBRANCH  21  22
ENDBRANCH  20  21
ENDBRANCH  19  20
ENDBRANCH   1  19
TORSDOF 6
ENDMDL
MODEL 2
REMARK VINA RESULT:      -8.6      1.896      5.715
REMARK  Name = *****
REMARK                            x       y       z     vdW  Elec       q    Type
REMARK                         _______ _______ _______ _____ _____    ______ ____
ROOT
ATOM      1  C   LIG    1       25.644 -21.431   6.698  0.00  0.00    +0.098 C 
ATOM      2  C   LIG    1       25.015 -20.883   5.405  0.00  0.00    -0.020 A 
ATOM      3  C   LIG    1       24.626 -21.952   4.564  0.00  0.00    -0.013 A 
ATOM      4  C   LIG    1       24.083 -21.703   3.313  0.00  0.00    +0.009 A 
ATOM      5  C   LIG    1       23.930 -20.376   2.904  0.00  0.00    +0.001 A 
ATOM      6  C   LIG    1       24.314 -19.316   3.742  0.00  0.00    +0.000 A 
ATOM      7  C   LIG    1       24.924 -23.208   5.219  0.00  0.00    -0.013 A 
ATOM      8  C   LIG    1       24.732 -24.512   4.796  0.00  0.00    +0.009 A 
ATOM      9  C   LIG    1       25.135 -25.553   5.639  0.00  0.00    +0.001 A 
ATOM     10  C   LIG    1       25.719 -25.287   6.888  0.00  0.00    +0.000 A 
ATOM     11  C   LIG    1       25.913 -23.975   7.318  0.00  0.00    +0.005 A 
ATOM     12  C   LIG    1       24.861 -19.563   5.004  0.00  0.00    +0.005 A 
ATOM     13  C   LIG    1       25.515 -22.947   6.474  0.00  0.00    -0.020 A 
ENDROOT
BRANCH   1  14
ATOM     14  C   LIG    1       24.845 -21.012   7.958  0.00  0.00    +0.225 C 
ATOM     15  O   LIG    1       23.620 -20.944   8.005  0.00  0.00    -0.275 OA
ATOM     16  N   LIG    1       25.567 -20.664   9.069  0.00  0.00    -0.328 N 
ATOM     17  H   LIG    1       25.055 -20.309   9.865  0.00  0.00    +0.145 HD
ATOM     18  H   LIG    1       26.572 -20.546   9.039  0.00  0.00    +0.145 HD
ENDBRANCH   1  14
BRANCH   1  19
ATOM     19  C   LIG    1       27.130 -21.012   6.838  0.00  0.00    +0.027 C 
BRANCH  19  20
ATOM     20  C   LIG    1       27.621 -19.987   5.796  0.00  0.00    +0.017 C 
BRANCH  20  21
ATOM     21  C   LIG    1       29.078 -19.569   6.005  0.00  0.00    +0.081 C 
BRANCH  21  22
ATOM     22  N   LIG    1       29.810 -20.558   6.793  0.00  0.00    -0.314 NA
ATOM     23  H   LIG    1       29.145 -21.167   7.269  0.00  0.00    +0.122 HD
BRANCH  22  25
ATOM     24  C   LIG    1       30.014 -18.763   8.417  0.00  0.00    +0.024 C 
ATOM     25  C   LIG    1       30.721 -19.962   7.778  0.00  0.00    +0.048 C 
ATOM     26  C   LIG    1       31.131 -20.954   8.869  0.00  0.00    +0.024 C 
ENDBRANCH  22  25
ENDBRANCH  21  22
ENDBRANCH  20  21
ENDBRANCH  19  20
ENDBRANCH   1  19
TORSDOF 6
ENDMDL
MODEL 3
REMARK VINA RESULT:      -7.4      2.008      5.791
REMARK  Name = *****
REMARK                            x       y       z     vdW  Elec       q    Type
REMARK                         _______ _______ _______ _____ _____    ______ ____
ROOT
ATOM      1  C   LIG    1       24.234 -22.403   5.620  0.00  0.00    +0.098 C 
ATOM      2  C   LIG    1       24.797 -23.833   5.549  0.00  0.00    -0.020 A 
ATOM      3  C   LIG    1       25.693 -24.055   6.621  0.00  0.00    -0.013 A 
ATOM      4  C   LIG    1       26.370 -25.258   6.736  0.00  0.00    +0.009 A 
ATOM      5  C   LIG    1       26.149 -26.244   5.771  0.00  0.00    +0.001 A 
ATOM      6  C   LIG    1       25.257 -26.022   4.708  0.00  0.00    +0.000 A 
ATOM      7  C   LIG    1       25.754 -22.866   7.446  0.00  0.00    -0.013 A 
ATOM      8  C   LIG    1       26.486 -22.602   8.591  0.00  0.00    +0.009 A 
ATOM      9  C   LIG    1       26.365 -21.341   9.184  0.00  0.00    +0.001 A 
ATOM     10  C   LIG    1       25.520 -20.363   8.635  0.00  0.00    +0.000 A 
ATOM     11  C   LIG    1       24.781 -20.625   7.483  0.00  0.00    +0.005 A 
ATOM     12  C   LIG    1       24.571 -24.810   4.590  0.00  0.00    +0.005 A 
ATOM     13  C   LIG    1       24.909 -21.877   6.897  0.00  0.00    -0.020 A 
ENDROOT
BRANCH   1  14
ATOM     14  C   LIG    1       22.693 -22.391   5.792  0.00  0.00    +0.225 C 
ATOM     15  O   LIG    1       21.950 -21.560   5.276  0.00  0.00    -0.275 OA
ATOM     16  N   LIG    1       22.147 -23.350   6.602  0.00  0.00    -0.328 N 
ATOM     17  H   LIG    1       21.154 -23.296   6.784  0.00  0.00    +0.145 HD
ATOM     18  H   LIG    1       22.719 -23.955   7.177  0.00  0.00    +0.145 HD
ENDBRANCH   1  14
BRANCH   1  19
ATOM     19  C   LIG    1       24.645 -21.560   4.384  0.00  0.00    +0.027 C 
BRANCH  19  20
ATOM     20  C   LIG    1       24.791 -20.048   4.644  0.00  0.00    +0.017 C 
BRANCH  20  21
ATOM     21  C   LIG    1       26.166 -19.502   4.252  0.00  0.00    +0.081 C 
BRANCH  21  22
ATOM     22  N   LIG    1       27.243 -20.327   4.793  0.00  0.00    -0.314 NA
ATOM     23  H   LIG    1       26.853 -21.204   5.139  0.00  0.00    +0.122 HD
BRANCH  22  25
ATOM     24  C   LIG    1       28.898 -20.718   6.529  0.00  0.00    +0.024 C 
ATOM     25  C   LIG    1       27.999 -19.670   5.867  0.00  0.00    +0.048 C 
ATOM     26  C   LIG    1       28.857 -18.511   5.353  0.00  0.00    +0.024 C 
ENDBRANCH  22  25
ENDBRANCH  21  22
ENDBRANCH  20  21
ENDBRANCH  19  20
ENDBRANCH   1  19
TORSDOF 6
ENDMDL
MODEL 4
REMARK VINA RESULT:      -7.3      2.476      5.697
REMARK  Name = *****
REMARK                            x       y       z     vdW  Elec       q    Type
REMARK                         _______ _______ _______ _____ _____    ______ ____
ROOT
ATOM      1  C   LIG    1       25.383 -20.965   6.264  0.00  0.00    +0.098 C 
ATOM      2  C   LIG    1       25.278 -22.495   6.389  0.00  0.00    -0.020 A 
ATOM      3  C   LIG    1       24.001 -22.930   5.967  0.00  0.00    -0.013 A 
ATOM      4  C   LIG    1       23.652 -24.269   6.041  0.00  0.00    +0.009 A 
ATOM      5  C   LIG    1       24.589 -25.176   6.542  0.00  0.00    +0.001 A 
ATOM      6  C   LIG    1       25.859 -24.742   6.958  0.00  0.00    +0.000 A 
ATOM      7  C   LIG    1       23.228 -21.787   5.528  0.00  0.00    -0.013 A 
ATOM      8  C   LIG    1       21.936 -21.708   5.038  0.00  0.00    +0.009 A 
ATOM      9  C   LIG    1       21.425 -20.451   4.700  0.00  0.00    +0.001 A 
ATOM     10  C   LIG    1       22.203 -19.291   4.851  0.00  0.00    +0.000 A 
ATOM     11  C   LIG    1       23.505 -19.366   5.342  0.00  0.00    +0.005 A 
ATOM     12  C   LIG    1       26.214 -23.393   6.883  0.00  0.00    +0.005 A 
ATOM     13  C   LIG    1       24.004 -20.617   5.680  0.00  0.00    -0.020 A 
ENDROOT
BRANCH   1  14
ATOM     14  C   LIG    1       26.499 -20.535   5.278  0.00  0.00    +0.225 C 
ATOM     15  O   LIG    1       27.674 -20.376   5.597  0.00  0.00    -0.275 OA
ATOM     16  N   LIG    1       26.128 -20.285   3.984  0.00  0.00    -0.328 N 
ATOM     17  H   LIG    1       26.836 -19.924   3.358  0.00  0.00    +0.145 HD
ATOM     18  H   LIG    1       25.157 -20.243   3.703  0.00  0.00    +0.145 HD
ENDBRANCH   1  14
BRANCH   1  19
ATOM     19  C   LIG    1       25.591 -20.287   7.643  0.00  0.00    +0.027 C 
BRANCH  19  20
ATOM     20  C   LIG    1       26.736 -20.873   8.492  0.00  0.00    +0.017 C 
BRANCH  20  21
ATOM     21  C   LIG    1       27.936 -19.931   8.616  0.00  0.00    +0.081 C 
BRANCH  21  22
ATOM     22  N   LIG    1       29.158 -20.552   8.111  0.00  0.00    -0.314 NA
ATOM     23  H   LIG    1       29.329 -21.419   8.621  0.00  0.00    +0.122 HD
BRANCH  22  25
ATOM     24  C   LIG    1       30.832 -19.384   6.793  0.00  0.00    +0.024 C 
ATOM     25  C   LIG    1       30.338 -19.685   8.211  0.00  0.00    +0.048 C 
ATOM     26  C   LIG    1       30.037 -18.371   8.936  0.00  0.00    +0.024 C 
ENDBRANCH  22  25
ENDBRANCH  21  22
ENDBRANCH  20  21
ENDBRANCH  19  20
ENDBRANCH   1  19
TORSDOF 6
ENDMDL
MODEL 5
REMARK VINA RESULT:      -6.9      5.211      9.762
REMARK  Name = *****
REMARK                            x       y       z     vdW  Elec       q    Type
REMARK                         _______ _______ _______ _____ _____    ______ ____
ROOT
ATOM      1  C   LIG    1       25.613 -30.804   8.591  0.00  0.00    +0.098 C 
ATOM      2  C   LIG    1       25.877 -29.810   9.736  0.00  0.00    -0.020 A 
ATOM      3  C   LIG    1       24.822 -29.862  10.676  0.00  0.00    -0.013 A 
ATOM      4  C   LIG    1       24.811 -29.012  11.771  0.00  0.00    +0.009 A 
ATOM      5  C   LIG    1       25.863 -28.105  11.923  0.00  0.00    +0.001 A 
ATOM      6  C   LIG    1       26.911 -28.057  10.989  0.00  0.00    +0.000 A 
ATOM      7  C   LIG    1       23.859 -30.860  10.260  0.00  0.00    -0.013 A 
ATOM      8  C   LIG    1       22.672 -31.265  10.844  0.00  0.00    +0.009 A 
ATOM      9  C   LIG    1       21.918 -32.255  10.207  0.00  0.00    +0.001 A 
ATOM     10  C   LIG    1       22.352 -32.830   9.001  0.00  0.00    +0.000 A 
ATOM     11  C   LIG    1       23.548 -32.426   8.410  0.00  0.00    +0.005 A 
ATOM     12  C   LIG    1       26.926 -28.914   9.884  0.00  0.00    +0.005 A 
ATOM     13  C   LIG    1       24.289 -31.439   9.046  0.00  0.00    -0.020 A 
ENDROOT
BRANCH   1  14
ATOM     14  C   LIG    1       26.716 -31.889   8.495  0.00  0.00    +0.225 C 
ATOM     15  O   LIG    1       27.205 -32.460   9.466  0.00  0.00    -0.275 OA
ATOM     16  N   LIG    1       27.189 -32.190   7.246  0.00  0.00    -0.328 N 
ATOM     17  H   LIG    1       27.966 -32.834   7.185  0.00  0.00    +0.145 HD
ATOM     18  H   LIG    1       26.941 -31.642   6.433  0.00  0.00    +0.145 HD
ENDBRANCH   1  14
BRANCH   1  19
ATOM     19  C   LIG    1       25.447 -30.083   7.228  0.00  0.00    +0.027 C 
BRANCH  19  20
ATOM     20  C   LIG    1       24.364 -28.986   7.198  0.00  0.00    +0.017 C 
BRANCH  20  21
ATOM     21  C   LIG    1       24.209 -28.333   5.822  0.00  0.00    +0.081 C 
BRANCH  21  22
ATOM     22  N   LIG    1       24.011 -26.890   5.934  0.00  0.00    -0.314 NA
ATOM     23  H   LIG    1       23.175 -26.624   5.413  0.00  0.00    +0.122 HD
BRANCH  22  25
ATOM     24  C   LIG    1       25.769 -25.374   6.653  0.00  0.00    +0.024 C 
ATOM     25  C   LIG    1       25.156 -26.106   5.455  0.00  0.00    +0.048 C 
ATOM     26  C   LIG    1       26.223 -26.977   4.788  0.00  0.00    +0.024 C 
ENDBRANCH  22  25
ENDBRANCH  21  22
ENDBRANCH  20  21
ENDBRANCH  19  20
ENDBRANCH   1  19
TORSDOF 6
ENDMDL
MODEL 6
REMARK VINA RESULT:      -6.8      2.067      5.983
REMARK  Name = *****
REMARK                            x       y       z     vdW  Elec       q    Type
REMARK                         _______ _______ _______ _____ _____    ______ ____
ROOT
ATOM      1  C   LIG    1       24.566 -21.866   5.949  0.00  0.00    +0.098 C 
ATOM      2  C   LIG    1       24.627 -23.392   6.140  0.00  0.00    -0.020 A 
ATOM      3  C   LIG    1       25.857 -23.758   6.734  0.00  0.00    -0.013 A 
ATOM      4  C   LIG    1       26.165 -25.091   6.954  0.00  0.00    +0.009 A 
ATOM      5  C   LIG    1       25.234 -26.062   6.576  0.00  0.00    +0.001 A 
ATOM      6  C   LIG    1       24.011 -25.696   5.988  0.00  0.00    +0.000 A 
ATOM      7  C   LIG    1       26.636 -22.565   6.992  0.00  0.00    -0.013 A 
ATOM      8  C   LIG    1       27.894 -22.415   7.550  0.00  0.00    +0.009 A 
ATOM      9  C   LIG    1       28.422 -21.125   7.667  0.00  0.00    +0.001 A 
ATOM     10  C   LIG    1       27.696 -20.005   7.232  0.00  0.00    +0.000 A 
ATOM     11  C   LIG    1       26.429 -20.151   6.670  0.00  0.00    +0.005 A 
ATOM     12  C   LIG    1       23.697 -24.352   5.766  0.00  0.00    +0.005 A 
ATOM     13  C   LIG    1       25.913 -21.435   6.553  0.00  0.00    -0.020 A 
ENDROOT
BRANCH   1  14
ATOM     14  C   LIG    1       23.400 -21.225   6.744  0.00  0.00    +0.225 C 
ATOM     15  O   LIG    1       22.561 -20.477   6.250  0.00  0.00    -0.275 OA
ATOM     16  N   LIG    1       23.337 -21.491   8.086  0.00  0.00    -0.328 N 
ATOM     17  H   LIG    1       22.630 -21.009   8.623  0.00  0.00    +0.145 HD
ATOM     18  H   LIG    1       24.086 -21.964   8.574  0.00  0.00    +0.145 HD
ENDBRANCH   1  14
BRANCH   1  19
ATOM     19  C   LIG    1       24.476 -21.476   4.451  0.00  0.00    +0.027 C 
BRANCH  19  20
ATOM     20  C   LIG    1       25.286 -20.227   4.051  0.00  0.00    +0.017 C 
BRANCH  20  21
ATOM     21  C   LIG    1       24.415 -18.985   3.849  0.00  0.00    +0.081 C 
BRANCH  21  22
ATOM     22  N   LIG    1       23.042 -19.346   3.504  0.00  0.00    -0.314 NA
ATOM     23  H   LIG    1       22.908 -19.229   2.499  0.00  0.00    +0.122 HD
BRANCH  22  25
ATOM     24  C   LIG    1       22.588 -17.151   4.441  0.00  0.00    +0.024 C 
ATOM     25  C   LIG    1       22.033 -18.562   4.227  0.00  0.00    +0.048 C 
ATOM     26  C   LIG    1       20.705 -18.480   3.471  0.00  0.00    +0.024 C 
ENDBRANCH  22  25
ENDBRANCH  21  22
ENDBRANCH  20  21
ENDBRANCH  19  20
ENDBRANCH   1  19
TORSDOF 6
ENDMDL
MODEL 7
REMARK VINA RESULT:      -6.7      5.676      9.806
REMARK  Name = *****
REMARK                            x       y       z     vdW  Elec       q    Type
REMARK                         _______ _______ _______ _____ _____    ______ ____
ROOT
ATOM      1  C   LIG    1       24.859 -31.132   9.700  0.00  0.00    +0.098 C 
ATOM      2  C   LIG    1       25.747 -30.122  10.448  0.00  0.00    -0.020 A 
ATOM      3  C   LIG    1       24.962 -29.350  11.335  0.00  0.00    -0.013 A 
ATOM      4  C   LIG    1       25.535 -28.332  12.081  0.00  0.00    +0.009 A 
ATOM      5  C   LIG    1       26.903 -28.087  11.935  0.00  0.00    +0.001 A 
ATOM      6  C   LIG    1       27.682 -28.857  11.056  0.00  0.00    +0.000 A 
ATOM      7  C   LIG    1       23.585 -29.793  11.263  0.00  0.00    -0.013 A 
ATOM      8  C   LIG    1       22.459 -29.345  11.931  0.00  0.00    +0.009 A 
ATOM      9  C   LIG    1       21.231 -29.952  11.652  0.00  0.00    +0.001 A 
ATOM     10  C   LIG    1       21.137 -30.996  10.716  0.00  0.00    +0.000 A 
ATOM     11  C   LIG    1       22.269 -31.451  10.042  0.00  0.00    +0.005 A 
ATOM     12  C   LIG    1       27.107 -29.885  10.303  0.00  0.00    +0.005 A 
ATOM     13  C   LIG    1       23.484 -30.840  10.321  0.00  0.00    -0.020 A 
ENDROOT
BRANCH   1  14
ATOM     14  C   LIG    1       25.272 -32.598   9.990  0.00  0.00    +0.225 C 
ATOM     15  O   LIG    1       25.682 -32.994  11.078  0.00  0.00    -0.275 OA
ATOM     16  N   LIG    1       25.203 -33.485   8.949  0.00  0.00    -0.328 N 
ATOM     17  H   LIG    1       25.550 -34.421   9.111  0.00  0.00    +0.145 HD
ATOM     18  H   LIG    1       25.029 -33.183   7.999  0.00  0.00    +0.145 HD
ENDBRANCH   1  14
BRANCH   1  19
ATOM     19  C   LIG    1       24.849 -30.869   8.171  0.00  0.00    +0.027 C 
BRANCH  19  20
ATOM     20  C   LIG    1       24.493 -29.427   7.760  0.00  0.00    +0.017 C 
BRANCH  20  21
ATOM     21  C   LIG    1       24.677 -29.167   6.262  0.00  0.00    +0.081 C 
BRANCH  21  22
ATOM     22  N   LIG    1       24.053 -27.909   5.858  0.00  0.00    -0.314 NA
ATOM     23  H   LIG    1       23.860 -27.937   4.856  0.00  0.00    +0.122 HD
BRANCH  22  25
ATOM     24  C   LIG    1       25.997 -26.643   5.134  0.00  0.00    +0.024 C 
ATOM     25  C   LIG    1       24.869 -26.728   6.166  0.00  0.00    +0.048 C 
ATOM     26  C   LIG    1       24.054 -25.432   6.141  0.00  0.00    +0.024 C 
ENDBRANCH  22  25
ENDBRANCH  21  22
ENDBRANCH  20  21
ENDBRANCH  19  20
ENDBRANCH   1  19
TORSDOF 6
ENDMDL
MODEL 8
REMARK VINA RESULT:      -6.6      7.016      9.778
REMARK  Name = *****
REMARK                            x       y       z     vdW  Elec       q    Type
REMARK                         _______ _______ _______ _____ _____    ______ ____
ROOT
ATOM      1  C   LIG    1       24.969 -30.959   8.342  0.00  0.00    +0.098 C 
ATOM      2  C   LIG    1       24.859 -29.817   7.317  0.00  0.00    -0.020 A 
ATOM      3  C   LIG    1       25.498 -28.656   7.813  0.00  0.00    -0.013 A 
ATOM      4  C   LIG    1       25.481 -27.476   7.086  0.00  0.00    +0.009 A 
ATOM      5  C   LIG    1       24.820 -27.460   5.856  0.00  0.00    +0.001 A 
ATOM      6  C   LIG    1       24.189 -28.614   5.363  0.00  0.00    +0.000 A 
ATOM      7  C   LIG    1       26.070 -28.945   9.112  0.00  0.00    -0.013 A 
ATOM      8  C   LIG    1       26.779 -28.136   9.983  0.00  0.00    +0.009 A 
ATOM      9  C   LIG    1       27.205 -28.678  11.199  0.00  0.00    +0.001 A 
ATOM     10  C   LIG    1       26.925 -30.013  11.534  0.00  0.00    +0.000 A 
ATOM     11  C   LIG    1       26.212 -30.831  10.659  0.00  0.00    +0.005 A 
ATOM     12  C   LIG    1       24.205 -29.806   6.093  0.00  0.00    +0.005 A 
ATOM     13  C   LIG    1       25.788 -30.285   9.455  0.00  0.00    -0.020 A 
ENDROOT
BRANCH   1  14
ATOM     14  C   LIG    1       25.745 -32.176   7.777  0.00  0.00    +0.225 C 
ATOM     15  O   LIG    1       25.336 -33.333   7.822  0.00  0.00    -0.275 OA
ATOM     16  N   LIG    1       26.977 -31.933   7.230  0.00  0.00    -0.328 N 
ATOM     17  H   LIG    1       27.522 -32.733   6.937  0.00  0.00    +0.145 HD
ATOM     18  H   LIG    1       27.431 -31.033   7.311  0.00  0.00    +0.145 HD
ENDBRANCH   1  14
BRANCH   1  19
ATOM     19  C   LIG    1       23.577 -31.402   8.863  0.00  0.00    +0.027 C 
BRANCH  19  20
ATOM     20  C   LIG    1       22.920 -30.438   9.871  0.00  0.00    +0.017 C 
BRANCH  20  21
ATOM     21  C   LIG    1       22.495 -31.127  11.170  0.00  0.00    +0.081 C 
BRANCH  21  22
ATOM     22  N   LIG    1       22.942 -30.380  12.343  0.00  0.00    -0.314 NA
ATOM     23  H   LIG    1       22.386 -30.660  13.151  0.00  0.00    +0.122 HD
BRANCH  22  25
ATOM     24  C   LIG    1       21.495 -28.459  12.692  0.00  0.00    +0.024 C 
ATOM     25  C   LIG    1       22.859 -28.924  12.173  0.00  0.00    +0.048 C 
ATOM     26  C   LIG    1       23.970 -28.184  12.921  0.00  0.00    +0.024 C 
ENDBRANCH  22  25
ENDBRANCH  21  22
ENDBRANCH  20  21
ENDBRANCH  19  20
ENDBRANCH   1  19
TORSDOF 6
ENDMDL
