MODEL 1
REMARK VINA RESULT:      -4.5      0.000      0.000
REMARK  Name = *****
REMARK                            x       y       z     vdW  Elec       q    Type
REMARK                         _______ _______ _______ _____ _____    ______ ____
ROOT
ATOM      1  C   LIG    1       27.616 -17.446   4.063  0.00  0.00    +0.044 C 
ATOM      2  C   LIG    1       26.156 -17.262   3.730  0.00  0.00    -0.050 C 
ATOM      3  C   LIG    1       25.560 -16.082   4.007  0.00  0.00    +0.003 C 
ENDROOT
BRANCH   3   4
ATOM      4  C   LIG    1       24.186 -15.747   3.736  0.00  0.00    +0.001 C 
ATOM      5  C   LIG    1       23.651 -14.509   3.777  0.00  0.00    +0.003 C 
BRANCH   5   6
ATOM      6  C   LIG    1       24.370 -13.266   3.961  0.00  0.00    -0.052 C 
ATOM      7  C   LIG    1       25.291 -12.827   3.078  0.00  0.00    +0.004 C 
ATOM      8  C   LIG    1       24.055 -12.497   5.218  0.00  0.00    +0.043 C 
BRANCH   7   9
ATOM      9  C   LIG    1       25.717 -13.504   1.818  0.00  0.00    +0.183 C 
BRANCH   9  10
ATOM     10  O   LIG    1       27.013 -14.045   2.017  0.00  0.00    -0.391 OA
ATOM     11  H   LIG    1       27.467 -13.968   1.159  0.00  0.00    +0.210 HD
ENDBRANCH   9  10
ENDBRANCH   7   9
ENDBRANCH   5   6
ENDBRANCH   3   4
BRANCH   2  12
ATOM     12  C   LIG    1       25.510 -18.325   2.976  0.00  0.00    +0.003 C 
ATOM     13  C   LIG    1       24.895 -19.440   3.420  0.00  0.00    +0.004 C 
BRANCH  13  14
ATOM     14  C   LIG    1       24.676 -19.835   4.808  0.00  0.00    -0.043 C 
ATOM     15  C   LIG    1       23.206 -19.845   5.314  0.00  0.00    -0.010 C 
ATOM     16  C   LIG    1       22.596 -18.422   5.376  0.00  0.00    +0.016 C 
ATOM     17  C   LIG    1       22.321 -20.689   4.372  0.00  0.00    +0.016 C 
ATOM     18  C   LIG    1       23.080 -20.427   6.755  0.00  0.00    +0.011 C 
ATOM     19  C   LIG    1       24.140 -21.471   7.062  0.00  0.00    +0.005 C 
ATOM     20  C   LIG    1       25.515 -20.835   6.946  0.00  0.00    +0.031 C 
ATOM     21  C   LIG    1       25.720 -20.198   5.597  0.00  0.00    -0.069 C 
ATOM     22  C   LIG    1       27.176 -20.057   5.233  0.00  0.00    +0.039 C 
ENDBRANCH  13  14
ENDBRANCH   2  12
TORSDOF 6
ENDMDL
MODEL 2
REMARK VINA RESULT:      -4.3      2.353      6.623
REMARK  Name = *****
REMARK                            x       y       z     vdW  Elec       q    Type
REMARK                         _______ _______ _______ _____ _____    ______ ____
ROOT
ATOM      1  C   LIG    1       22.315 -15.051   6.064  0.00  0.00    +0.044 C 
ATOM      2  C   LIG    1       22.778 -15.695   4.780  0.00  0.00    -0.050 C 
ATOM      3  C   LIG    1       22.851 -17.042   4.708  0.00  0.00    +0.003 C 
ENDROOT
BRANCH   3   4
ATOM      4  C   LIG    1       23.255 -17.804   3.555  0.00  0.00    +0.001 C 
ATOM      5  C   LIG    1       23.657 -19.091   3.560  0.00  0.00    +0.003 C 
BRANCH   5   6
ATOM      6  C   LIG    1       23.627 -19.999   4.687  0.00  0.00    -0.052 C 
ATOM      7  C   LIG    1       24.751 -20.405   5.316  0.00  0.00    +0.004 C 
ATOM      8  C   LIG    1       22.268 -20.496   5.105  0.00  0.00    +0.043 C 
BRANCH   7   9
ATOM      9  C   LIG    1       26.153 -20.015   4.985  0.00  0.00    +0.183 C 
BRANCH   9  10
ATOM     10  O   LIG    1       27.029 -20.746   5.827  0.00  0.00    -0.391 OA
ATOM     11  H   LIG    1       27.331 -20.116   6.507  0.00  0.00    +0.210 HD
ENDBRANCH   9  10
ENDBRANCH   7   9
ENDBRANCH   5   6
ENDBRANCH   3   4
BRANCH   2  12
ATOM     12  C   LIG    1       22.968 -14.822   3.633  0.00  0.00    +0.003 C 
ATOM     13  C   LIG    1       24.032 -14.064   3.299  0.00  0.00    +0.004 C 
BRANCH  13  14
ATOM     14  C   LIG    1       25.308 -13.973   4.002  0.00  0.00    -0.043 C 
ATOM     15  C   LIG    1       26.489 -14.804   3.428  0.00  0.00    -0.010 C 
ATOM     16  C   LIG    1       26.254 -16.330   3.564  0.00  0.00    +0.016 C 
ATOM     17  C   LIG    1       26.683 -14.496   1.928  0.00  0.00    +0.016 C 
ATOM     18  C   LIG    1       27.832 -14.512   4.165  0.00  0.00    +0.011 C 
ATOM     19  C   LIG    1       27.912 -13.092   4.698  0.00  0.00    +0.005 C 
ATOM     20  C   LIG    1       26.787 -12.870   5.696  0.00  0.00    +0.031 C 
ATOM     21  C   LIG    1       25.442 -13.173   5.092  0.00  0.00    -0.069 C 
ATOM     22  C   LIG    1       24.312 -12.471   5.800  0.00  0.00    +0.039 C 
ENDBRANCH  13  14
ENDBRANCH   2  12
TORSDOF 6
ENDMDL
MODEL 3
REMARK VINA RESULT:      -4.3      1.676      2.277
REMARK  Name = *****
REMARK                            x       y       z     vdW  Elec       q    Type
REMARK                         _______ _______ _______ _____ _____    ______ ____
ROOT
ATOM      1  C   LIG    1       22.694 -17.019   4.364  0.00  0.00    +0.044 C 
ATOM      2  C   LIG    1       24.039 -17.092   3.683  0.00  0.00    -0.050 C 
ATOM      3  C   LIG    1       24.943 -16.113   3.903  0.00  0.00    +0.003 C 
ENDROOT
BRANCH   3   4
ATOM      4  C   LIG    1       26.268 -16.047   3.344  0.00  0.00    +0.001 C 
ATOM      5  C   LIG    1       26.939 -14.920   3.031  0.00  0.00    +0.003 C 
BRANCH   5   6
ATOM      6  C   LIG    1       26.527 -13.563   3.320  0.00  0.00    -0.052 C 
ATOM      7  C   LIG    1       27.337 -12.678   3.938  0.00  0.00    +0.004 C 
ATOM      8  C   LIG    1       25.121 -13.197   2.920  0.00  0.00    +0.043 C 
BRANCH   7   9
ATOM      9  C   LIG    1       28.732 -12.920   4.410  0.00  0.00    +0.183 C 
BRANCH   9  10
ATOM     10  O   LIG    1       29.042 -11.954   5.401  0.00  0.00    -0.391 OA
ATOM     11  H   LIG    1       29.125 -11.107   4.928  0.00  0.00    +0.210 HD
ENDBRANCH   9  10
ENDBRANCH   7   9
ENDBRANCH   5   6
ENDBRANCH   3   4
BRANCH   2  12
ATOM     12  C   LIG    1       24.343 -18.309   2.948  0.00  0.00    +0.003 C 
ATOM     13  C   LIG    1       24.756 -19.508   3.406  0.00  0.00    +0.004 C 
BRANCH  13  14
ATOM     14  C   LIG    1       24.954 -19.901   4.799  0.00  0.00    -0.043 C 
ATOM     15  C   LIG    1       23.708 -20.427   5.566  0.00  0.00    -0.010 C 
ATOM     16  C   LIG    1       22.643 -19.323   5.783  0.00  0.00    +0.016 C 
ATOM     17  C   LIG    1       23.037 -21.572   4.778  0.00  0.00    +0.016 C 
ATOM     18  C   LIG    1       24.069 -20.956   6.987  0.00  0.00    +0.011 C 
ATOM     19  C   LIG    1       25.474 -21.529   7.062  0.00  0.00    +0.005 C 
ATOM     20  C   LIG    1       26.475 -20.439   6.714  0.00  0.00    +0.031 C 
ATOM     21  C   LIG    1       26.183 -19.826   5.371  0.00  0.00    -0.069 C 
ATOM     22  C   LIG    1       27.394 -19.178   4.749  0.00  0.00    +0.039 C 
ENDBRANCH  13  14
ENDBRANCH   2  12
TORSDOF 6
ENDMDL
MODEL 4
REMARK VINA RESULT:      -3.8      1.595      2.442
REMARK  Name = *****
REMARK                            x       y       z     vdW  Elec       q    Type
REMARK                         _______ _______ _______ _____ _____    ______ ____
ROOT
ATOM      1  C   LIG    1       28.570 -18.707   6.255  0.00  0.00    +0.044 C 
ATOM      2  C   LIG    1       27.834 -18.449   4.963  0.00  0.00    -0.050 C 
ATOM      3  C   LIG    1       27.625 -17.174   4.567  0.00  0.00    +0.003 C 
ENDROOT
BRANCH   3   4
ATOM      4  C   LIG    1       26.958 -16.765   3.358  0.00  0.00    +0.001 C 
ATOM      5  C   LIG    1       26.501 -15.525   3.089  0.00  0.00    +0.003 C 
BRANCH   5   6
ATOM      6  C   LIG    1       26.711 -14.336   3.889  0.00  0.00    -0.052 C 
ATOM      7  C   LIG    1       25.697 -13.694   4.506  0.00  0.00    +0.004 C 
ATOM      8  C   LIG    1       28.128 -13.832   3.970  0.00  0.00    +0.043 C 
BRANCH   7   9
ATOM      9  C   LIG    1       24.252 -14.069   4.481  0.00  0.00    +0.183 C 
BRANCH   9  10
ATOM     10  O   LIG    1       23.678 -13.552   3.292  0.00  0.00    -0.391 OA
ATOM     11  H   LIG    1       24.370 -13.622   2.611  0.00  0.00    +0.210 HD
ENDBRANCH   9  10
ENDBRANCH   7   9
ENDBRANCH   5   6
ENDBRANCH   3   4
BRANCH   2  12
ATOM     12  C   LIG    1       27.532 -19.603   4.131  0.00  0.00    +0.003 C 
ATOM     13  C   LIG    1       26.440 -20.395   4.128  0.00  0.00    +0.004 C 
BRANCH  13  14
ATOM     14  C   LIG    1       25.240 -20.249   4.947  0.00  0.00    -0.043 C 
ATOM     15  C   LIG    1       23.973 -19.685   4.246  0.00  0.00    -0.010 C 
ATOM     16  C   LIG    1       24.146 -18.206   3.819  0.00  0.00    +0.016 C 
ATOM     17  C   LIG    1       23.656 -20.501   2.974  0.00  0.00    +0.016 C 
ATOM     18  C   LIG    1       22.720 -19.718   5.173  0.00  0.00    +0.011 C 
ATOM     19  C   LIG    1       22.756 -20.863   6.170  0.00  0.00    +0.005 C 
ATOM     20  C   LIG    1       23.978 -20.709   7.061  0.00  0.00    +0.031 C 
ATOM     21  C   LIG    1       25.245 -20.619   6.254  0.00  0.00    -0.069 C 
ATOM     22  C   LIG    1       26.468 -21.016   7.040  0.00  0.00    +0.039 C 
ENDBRANCH  13  14
ENDBRANCH   2  12
TORSDOF 6
ENDMDL
MODEL 5
REMARK VINA RESULT:      -3.8      2.336      7.013
REMARK  Name = *****
REMARK                            x       y       z     vdW  Elec       q    Type
REMARK                         _______ _______ _______ _____ _____    ______ ____
ROOT
ATOM      1  C   LIG    1       23.504 -15.410   4.446  0.00  0.00    +0.044 C 
ATOM      2  C   LIG    1       24.516 -16.403   3.928  0.00  0.00    -0.050 C 
ATOM      3  C   LIG    1       24.197 -17.715   3.901  0.00  0.00    +0.003 C 
ENDROOT
BRANCH   3   4
ATOM      4  C   LIG    1       25.041 -18.779   3.422  0.00  0.00    +0.001 C 
ATOM      5  C   LIG    1       25.160 -20.003   3.975  0.00  0.00    +0.003 C 
BRANCH   5   6
ATOM      6  C   LIG    1       24.368 -20.538   5.063  0.00  0.00    -0.052 C 
ATOM      7  C   LIG    1       24.872 -20.715   6.303  0.00  0.00    +0.004 C 
ATOM      8  C   LIG    1       22.951 -20.921   4.727  0.00  0.00    +0.043 C 
BRANCH   7   9
ATOM      9  C   LIG    1       26.260 -20.407   6.758  0.00  0.00    +0.183 C 
BRANCH   9  10
ATOM     10  O   LIG    1       27.067 -21.550   6.530  0.00  0.00    -0.391 OA
ATOM     11  H   LIG    1       27.981 -21.219   6.460  0.00  0.00    +0.210 HD
ENDBRANCH   9  10
ENDBRANCH   7   9
ENDBRANCH   5   6
ENDBRANCH   3   4
BRANCH   2  12
ATOM     12  C   LIG    1       25.728 -15.864   3.334  0.00  0.00    +0.003 C 
ATOM     13  C   LIG    1       26.165 -14.589   3.284  0.00  0.00    +0.004 C 
BRANCH  13  14
ATOM     14  C   LIG    1       25.533 -13.414   3.878  0.00  0.00    -0.043 C 
ATOM     15  C   LIG    1       24.593 -12.581   2.962  0.00  0.00    -0.010 C 
ATOM     16  C   LIG    1       25.362 -11.880   1.814  0.00  0.00    +0.016 C 
ATOM     17  C   LIG    1       23.527 -13.493   2.317  0.00  0.00    +0.016 C 
ATOM     18  C   LIG    1       23.861 -11.447   3.741  0.00  0.00    +0.011 C 
ATOM     19  C   LIG    1       23.609 -11.802   5.196  0.00  0.00    +0.005 C 
ATOM     20  C   LIG    1       24.940 -12.042   5.888  0.00  0.00    +0.031 C 
ATOM     21  C   LIG    1       25.751 -13.095   5.180  0.00  0.00    -0.069 C 
ATOM     22  C   LIG    1       26.768 -13.751   6.078  0.00  0.00    +0.039 C 
ENDBRANCH  13  14
ENDBRANCH   2  12
TORSDOF 6
ENDMDL
MODEL 6
REMARK VINA RESULT:      -3.6      2.048      6.452
REMARK  Name = *****
REMARK                            x       y       z     vdW  Elec       q    Type
REMARK                         _______ _______ _______ _____ _____    ______ ____
ROOT
ATOM      1  C   LIG    1       22.471 -15.113   6.095  0.00  0.00    +0.044 C 
ATOM      2  C   LIG    1       22.583 -16.002   4.881  0.00  0.00    -0.050 C 
ATOM      3  C   LIG    1       22.548 -17.343   5.040  0.00  0.00    +0.003 C 
ENDROOT
BRANCH   3   4
ATOM      4  C   LIG    1       22.625 -18.321   3.986  0.00  0.00    +0.001 C 
ATOM      5  C   LIG    1       23.239 -19.519   4.062  0.00  0.00    +0.003 C 
BRANCH   5   6
ATOM      6  C   LIG    1       23.815 -20.118   5.247  0.00  0.00    -0.052 C 
ATOM      7  C   LIG    1       25.146 -20.286   5.398  0.00  0.00    +0.004 C 
ATOM      8  C   LIG    1       22.840 -20.578   6.300  0.00  0.00    +0.043 C 
BRANCH   7   9
ATOM      9  C   LIG    1       26.212 -19.904   4.425  0.00  0.00    +0.183 C 
BRANCH   9  10
ATOM     10  O   LIG    1       27.469 -20.032   5.068  0.00  0.00    -0.391 OA
ATOM     11  H   LIG    1       28.131 -19.736   4.417  0.00  0.00    +0.210 HD
ENDBRANCH   9  10
ENDBRANCH   7   9
ENDBRANCH   5   6
ENDBRANCH   3   4
BRANCH   2  12
ATOM     12  C   LIG    1       22.560 -15.352   3.580  0.00  0.00    +0.003 C 
ATOM     13  C   LIG    1       23.491 -14.569   2.996  0.00  0.00    +0.004 C 
BRANCH  13  14
ATOM     14  C   LIG    1       24.806 -14.217   3.523  0.00  0.00    -0.043 C 
ATOM     15  C   LIG    1       25.039 -12.726   3.897  0.00  0.00    -0.010 C 
ATOM     16  C   LIG    1       25.028 -11.801   2.654  0.00  0.00    +0.016 C 
ATOM     17  C   LIG    1       23.931 -12.234   4.852  0.00  0.00    +0.016 C 
ATOM     18  C   LIG    1       26.418 -12.498   4.587  0.00  0.00    +0.011 C 
ATOM     19  C   LIG    1       26.882 -13.703   5.385  0.00  0.00    +0.005 C 
ATOM     20  C   LIG    1       27.033 -14.892   4.450  0.00  0.00    +0.031 C 
ATOM     21  C   LIG    1       25.760 -15.168   3.695  0.00  0.00    -0.069 C 
ATOM     22  C   LIG    1       25.668 -16.591   3.207  0.00  0.00    +0.039 C 
ENDBRANCH  13  14
ENDBRANCH   2  12
TORSDOF 6
ENDMDL
MODEL 7
REMARK VINA RESULT:      -2.7      1.308      3.023
REMARK  Name = *****
REMARK                            x       y       z     vdW  Elec       q    Type
REMARK                         _______ _______ _______ _____ _____    ______ ____
ROOT
ATOM      1  C   LIG    1       22.244 -17.289   6.177  0.00  0.00    +0.044 C 
ATOM      2  C   LIG    1       22.476 -16.715   4.801  0.00  0.00    -0.050 C 
ATOM      3  C   LIG    1       23.074 -15.510   4.681  0.00  0.00    +0.003 C 
ENDROOT
BRANCH   3   4
ATOM      4  C   LIG    1       23.380 -14.838   3.445  0.00  0.00    +0.001 C 
ATOM      5  C   LIG    1       24.120 -13.719   3.315  0.00  0.00    +0.003 C 
BRANCH   5   6
ATOM      6  C   LIG    1       24.867 -13.054   4.362  0.00  0.00    -0.052 C 
ATOM      7  C   LIG    1       26.152 -13.359   4.637  0.00  0.00    +0.004 C 
ATOM      8  C   LIG    1       24.117 -12.016   5.157  0.00  0.00    +0.043 C 
BRANCH   7   9
ATOM      9  C   LIG    1       26.997 -14.381   3.951  0.00  0.00    +0.183 C 
BRANCH   9  10
ATOM     10  O   LIG    1       27.664 -13.754   2.868  0.00  0.00    -0.391 OA
ATOM     11  H   LIG    1       28.449 -14.302   2.687  0.00  0.00    +0.210 HD
ENDBRANCH   9  10
ENDBRANCH   7   9
ENDBRANCH   5   6
ENDBRANCH   3   4
BRANCH   2  12
ATOM     12  C   LIG    1       22.181 -17.576   3.666  0.00  0.00    +0.003 C 
ATOM     13  C   LIG    1       22.731 -18.759   3.321  0.00  0.00    +0.004 C 
BRANCH  13  14
ATOM     14  C   LIG    1       23.749 -19.507   4.053  0.00  0.00    -0.043 C 
ATOM     15  C   LIG    1       25.226 -19.299   3.617  0.00  0.00    -0.010 C 
ATOM     16  C   LIG    1       25.503 -19.854   2.197  0.00  0.00    +0.016 C 
ATOM     17  C   LIG    1       25.575 -17.796   3.604  0.00  0.00    +0.016 C 
ATOM     18  C   LIG    1       26.230 -20.027   4.562  0.00  0.00    +0.011 C 
ATOM     19  C   LIG    1       25.725 -20.127   5.991  0.00  0.00    +0.005 C 
ATOM     20  C   LIG    1       24.428 -20.921   6.006  0.00  0.00    +0.031 C 
ATOM     21  C   LIG    1       23.401 -20.324   5.082  0.00  0.00    -0.069 C 
ATOM     22  C   LIG    1       21.990 -20.701   5.454  0.00  0.00    +0.039 C 
ENDBRANCH  13  14
ENDBRANCH   2  12
TORSDOF 6
ENDMDL
MODEL 8
REMARK VINA RESULT:      -2.1      2.477      6.786
REMARK  Name = *****
REMARK                            x       y       z     vdW  Elec       q    Type
REMARK                         _______ _______ _______ _____ _____    ______ ____
ROOT
ATOM      1  C   LIG    1       22.335 -15.158   6.005  0.00  0.00    +0.044 C 
ATOM      2  C   LIG    1       22.859 -15.820   4.754  0.00  0.00    -0.050 C 
ATOM      3  C   LIG    1       22.999 -17.163   4.728  0.00  0.00    +0.003 C 
ENDROOT
BRANCH   3   4
ATOM      4  C   LIG    1       23.467 -17.941   3.610  0.00  0.00    +0.001 C 
ATOM      5  C   LIG    1       23.897 -19.218   3.661  0.00  0.00    +0.003 C 
BRANCH   5   6
ATOM      6  C   LIG    1       23.843 -20.101   4.807  0.00  0.00    -0.052 C 
ATOM      7  C   LIG    1       22.753 -20.841   5.098  0.00  0.00    +0.004 C 
ATOM      8  C   LIG    1       25.068 -20.124   5.685  0.00  0.00    +0.043 C 
BRANCH   7   9
ATOM      9  C   LIG    1       21.472 -20.887   4.333  0.00  0.00    +0.183 C 
BRANCH   9  10
ATOM     10  O   LIG    1       20.930 -19.577   4.292  0.00  0.00    -0.391 OA
ATOM     11  H   LIG    1       20.042 -19.645   4.687  0.00  0.00    +0.210 HD
ENDBRANCH   9  10
ENDBRANCH   7   9
ENDBRANCH   5   6
ENDBRANCH   3   4
BRANCH   2  12
ATOM     12  C   LIG    1       23.034 -14.976   3.583  0.00  0.00    +0.003 C 
ATOM     13  C   LIG    1       24.071 -14.184   3.243  0.00  0.00    +0.004 C 
BRANCH  13  14
ATOM     14  C   LIG    1       25.330 -14.017   3.965  0.00  0.00    -0.043 C 
ATOM     15  C   LIG    1       26.560 -14.797   3.424  0.00  0.00    -0.010 C 
ATOM     16  C   LIG    1       26.401 -16.330   3.581  0.00  0.00    +0.016 C 
ATOM     17  C   LIG    1       26.763 -14.503   1.922  0.00  0.00    +0.016 C 
ATOM     18  C   LIG    1       27.874 -14.425   4.178  0.00  0.00    +0.011 C 
ATOM     19  C   LIG    1       27.874 -12.995   4.687  0.00  0.00    +0.005 C 
ATOM     20  C   LIG    1       26.722 -12.813   5.663  0.00  0.00    +0.031 C 
ATOM     21  C   LIG    1       25.405 -13.195   5.043  0.00  0.00    -0.069 C 
ATOM     22  C   LIG    1       24.229 -12.540   5.721  0.00  0.00    +0.039 C 
ENDBRANCH  13  14
ENDBRANCH   2  12
TORSDOF 6
ENDMDL
