MODEL 1
REMARK VINA RESULT:      -8.9      0.000      0.000
REMARK  Name = *****
REMARK                            x       y       z     vdW  Elec       q    Type
REMARK                         _______ _______ _______ _____ _____    ______ ____
ROOT
ATOM      1  C   LIG    1       29.692 -20.188   6.891  0.00  0.00    +0.151 A 
ATOM      2  C   LIG    1       29.435 -20.944   8.040  0.00  0.00    +0.159 A 
ATOM      3  C   LIG    1       28.134 -21.411   8.322  0.00  0.00    +0.048 A 
ATOM      4  C   LIG    1       27.069 -21.132   7.449  0.00  0.00    +0.066 A 
ATOM      5  C   LIG    1       27.342 -20.407   6.287  0.00  0.00    +0.131 A 
ATOM      6  C   LIG    1       28.628 -19.920   6.025  0.00  0.00    +0.093 A 
ENDROOT
BRANCH   2   7
ATOM      7  S   LIG    1       30.741 -21.348   9.172  0.00  0.00    +0.113 S 
ATOM      8  O   LIG    1       30.341 -22.498   9.944  0.00  0.00    -0.142 OA
ATOM      9  O   LIG    1       31.162 -20.118   9.824  0.00  0.00    -0.142 OA
BRANCH   7  10
ATOM     10  O   LIG    1       31.985 -21.809   8.253  0.00  0.00    -0.250 OA
ATOM     11  H   LIG    1       32.571 -21.032   8.143  0.00  0.00    +0.245 HD
ENDBRANCH   7  10
ENDBRANCH   2   7
BRANCH   1  13
ATOM     12  C   LIG    1       31.342 -18.491   7.203  0.00  0.00    +0.277 C 
ATOM     13  O   LIG    1       30.976 -19.761   6.667  0.00  0.00    -0.493 OA
ENDBRANCH   1  13
BRANCH   4  14
ATOM     14  C   LIG    1       25.716 -21.666   7.802  0.00  0.00    +0.197 C 
ATOM     15  O   LIG    1       25.000 -20.990   8.540  0.00  0.00    -0.286 OA
BRANCH  14  16
ATOM     16  C   LIG    1       25.174 -22.953   7.273  0.00  0.00    +0.022 A 
ATOM     17  C   LIG    1       23.801 -23.060   7.008  0.00  0.00    +0.012 A 
ATOM     18  C   LIG    1       23.269 -24.246   6.489  0.00  0.00    +0.001 A 
ATOM     19  C   LIG    1       24.103 -25.339   6.249  0.00  0.00    +0.000 A 
ATOM     20  C   LIG    1       25.469 -25.237   6.499  0.00  0.00    +0.001 A 
ATOM     21  C   LIG    1       26.008 -24.040   6.979  0.00  0.00    +0.012 A 
ENDBRANCH  14  16
ENDBRANCH   4  14
BRANCH   5  22
ATOM     22  O   LIG    1       26.369 -20.182   5.354  0.00  0.00    -0.506 OA
ATOM     23  H   LIG    1       26.738 -20.260   4.458  0.00  0.00    +0.292 HD
ENDBRANCH   5  22
TORSDOF 6
ENDMDL
MODEL 2
REMARK VINA RESULT:      -8.9      2.887      6.821
REMARK  Name = *****
REMARK                            x       y       z     vdW  Elec       q    Type
REMARK                         _______ _______ _______ _____ _____    ______ ____
ROOT
ATOM      1  C   LIG    1       26.804 -20.104   5.942  0.00  0.00    +0.151 A 
ATOM      2  C   LIG    1       26.982 -20.657   7.215  0.00  0.00    +0.159 A 
ATOM      3  C   LIG    1       28.208 -20.522   7.898  0.00  0.00    +0.048 A 
ATOM      4  C   LIG    1       29.277 -19.819   7.316  0.00  0.00    +0.066 A 
ATOM      5  C   LIG    1       29.079 -19.240   6.060  0.00  0.00    +0.131 A 
ATOM      6  C   LIG    1       27.870 -19.401   5.372  0.00  0.00    +0.093 A 
ENDROOT
BRANCH   2   7
ATOM      7  S   LIG    1       25.664 -21.538   8.013  0.00  0.00    +0.113 S 
ATOM      8  O   LIG    1       25.847 -21.445   9.440  0.00  0.00    -0.142 OA
ATOM      9  O   LIG    1       25.528 -22.829   7.357  0.00  0.00    -0.142 OA
BRANCH   7  10
ATOM     10  O   LIG    1       24.317 -20.720   7.658  0.00  0.00    -0.250 OA
ATOM     11  H   LIG    1       24.589 -19.866   7.266  0.00  0.00    +0.245 HD
ENDBRANCH   7  10
ENDBRANCH   2   7
BRANCH   1  13
ATOM     12  C   LIG    1       25.461 -19.757   3.999  0.00  0.00    +0.277 C 
ATOM     13  O   LIG    1       25.590 -20.266   5.325  0.00  0.00    -0.493 OA
ENDBRANCH   1  13
BRANCH   4  14
ATOM     14  C   LIG    1       30.547 -19.703   8.099  0.00  0.00    +0.197 C 
ATOM     15  O   LIG    1       31.361 -20.623   8.023  0.00  0.00    -0.286 OA
BRANCH  14  16
ATOM     16  C   LIG    1       30.897 -18.514   8.932  0.00  0.00    +0.022 A 
ATOM     17  C   LIG    1       32.045 -17.773   8.618  0.00  0.00    +0.012 A 
ATOM     18  C   LIG    1       32.384 -16.639   9.366  0.00  0.00    +0.001 A 
ATOM     19  C   LIG    1       31.588 -16.251  10.444  0.00  0.00    +0.000 A 
ATOM     20  C   LIG    1       30.439 -16.974  10.755  0.00  0.00    +0.001 A 
ATOM     21  C   LIG    1       30.078 -18.082   9.983  0.00  0.00    +0.012 A 
ENDBRANCH  14  16
ENDBRANCH   4  14
BRANCH   5  22
ATOM     22  O   LIG    1       30.048 -18.468   5.483  0.00  0.00    -0.506 OA
ATOM     23  H   LIG    1       30.530 -18.980   4.812  0.00  0.00    +0.292 HD
ENDBRANCH   5  22
TORSDOF 6
ENDMDL
MODEL 3
REMARK VINA RESULT:      -8.8      3.240      5.448
REMARK  Name = *****
REMARK                            x       y       z     vdW  Elec       q    Type
REMARK                         _______ _______ _______ _____ _____    ______ ____
ROOT
ATOM      1  C   LIG    1       24.167 -22.323   7.251  0.00  0.00    +0.151 A 
ATOM      2  C   LIG    1       25.529 -22.542   7.490  0.00  0.00    +0.159 A 
ATOM      3  C   LIG    1       26.117 -23.796   7.229  0.00  0.00    +0.048 A 
ATOM      4  C   LIG    1       25.348 -24.854   6.714  0.00  0.00    +0.066 A 
ATOM      5  C   LIG    1       23.998 -24.616   6.445  0.00  0.00    +0.131 A 
ATOM      6  C   LIG    1       23.410 -23.378   6.733  0.00  0.00    +0.093 A 
ENDROOT
BRANCH   2   7
ATOM      7  S   LIG    1       26.559 -21.241   8.121  0.00  0.00    +0.113 S 
ATOM      8  O   LIG    1       26.639 -20.196   7.130  0.00  0.00    -0.142 OA
ATOM      9  O   LIG    1       27.761 -21.849   8.668  0.00  0.00    -0.142 OA
BRANCH   7  10
ATOM     10  O   LIG    1       25.760 -20.629   9.384  0.00  0.00    -0.250 OA
ATOM     11  H   LIG    1       26.271 -19.859   9.708  0.00  0.00    +0.245 HD
ENDBRANCH   7  10
ENDBRANCH   2   7
BRANCH   1  13
ATOM     12  C   LIG    1       23.129 -20.339   6.423  0.00  0.00    +0.277 C 
ATOM     13  O   LIG    1       23.649 -21.083   7.524  0.00  0.00    -0.493 OA
ENDBRANCH   1  13
BRANCH   4  14
ATOM     14  C   LIG    1       26.037 -26.155   6.448  0.00  0.00    +0.197 C 
ATOM     15  O   LIG    1       26.905 -26.185   5.578  0.00  0.00    -0.286 OA
BRANCH  14  16
ATOM     16  C   LIG    1       25.756 -27.407   7.213  0.00  0.00    +0.022 A 
ATOM     17  C   LIG    1       24.804 -28.312   6.719  0.00  0.00    +0.012 A 
ATOM     18  C   LIG    1       24.538 -29.505   7.402  0.00  0.00    +0.001 A 
ATOM     19  C   LIG    1       25.209 -29.792   8.591  0.00  0.00    +0.000 A 
ATOM     20  C   LIG    1       26.164 -28.905   9.082  0.00  0.00    +0.001 A 
ATOM     21  C   LIG    1       26.460 -27.734   8.379  0.00  0.00    +0.012 A 
ENDBRANCH  14  16
ENDBRANCH   4  14
BRANCH   5  22
ATOM     22  O   LIG    1       23.220 -25.574   5.858  0.00  0.00    -0.506 OA
ATOM     23  H   LIG    1       22.301 -25.497   6.167  0.00  0.00    +0.292 HD
ENDBRANCH   5  22
TORSDOF 6
ENDMDL
MODEL 4
REMARK VINA RESULT:      -8.7      1.911      2.371
REMARK  Name = *****
REMARK                            x       y       z     vdW  Elec       q    Type
REMARK                         _______ _______ _______ _____ _____    ______ ____
ROOT
ATOM      1  C   LIG    1       30.422 -19.900   7.226  0.00  0.00    +0.151 A 
ATOM      2  C   LIG    1       30.131 -21.024   8.008  0.00  0.00    +0.159 A 
ATOM      3  C   LIG    1       28.901 -21.700   7.874  0.00  0.00    +0.048 A 
ATOM      4  C   LIG    1       27.942 -21.263   6.944  0.00  0.00    +0.066 A 
ATOM      5  C   LIG    1       28.255 -20.162   6.143  0.00  0.00    +0.131 A 
ATOM      6  C   LIG    1       29.465 -19.475   6.299  0.00  0.00    +0.093 A 
ENDROOT
BRANCH   2   7
ATOM      7  S   LIG    1       31.308 -21.639   9.186  0.00  0.00    +0.113 S 
ATOM      8  O   LIG    1       30.592 -22.301  10.248  0.00  0.00    -0.142 OA
ATOM      9  O   LIG    1       32.254 -20.571   9.471  0.00  0.00    -0.142 OA
BRANCH   7  10
ATOM     10  O   LIG    1       32.148 -22.777   8.407  0.00  0.00    -0.250 OA
ATOM     11  H   LIG    1       32.992 -22.898   8.888  0.00  0.00    +0.245 HD
ENDBRANCH   7  10
ENDBRANCH   2   7
BRANCH   1  13
ATOM     12  C   LIG    1       31.631 -18.017   8.055  0.00  0.00    +0.277 C 
ATOM     13  O   LIG    1       31.634 -19.283   7.399  0.00  0.00    -0.493 OA
ENDBRANCH   1  13
BRANCH   4  14
ATOM     14  C   LIG    1       26.662 -22.031   6.845  0.00  0.00    +0.197 C 
ATOM     15  O   LIG    1       26.687 -23.235   7.096  0.00  0.00    -0.286 OA
BRANCH  14  16
ATOM     16  C   LIG    1       25.350 -21.407   6.500  0.00  0.00    +0.022 A 
ATOM     17  C   LIG    1       24.902 -21.445   5.171  0.00  0.00    +0.012 A 
ATOM     18  C   LIG    1       23.665 -20.889   4.823  0.00  0.00    +0.001 A 
ATOM     19  C   LIG    1       22.876 -20.277   5.797  0.00  0.00    +0.000 A 
ATOM     20  C   LIG    1       23.308 -20.246   7.121  0.00  0.00    +0.001 A 
ATOM     21  C   LIG    1       24.524 -20.836   7.477  0.00  0.00    +0.012 A 
ENDBRANCH  14  16
ENDBRANCH   4  14
BRANCH   5  22
ATOM     22  O   LIG    1       27.404 -19.745   5.159  0.00  0.00    -0.506 OA
ATOM     23  H   LIG    1       27.821 -19.046   4.628  0.00  0.00    +0.292 HD
ENDBRANCH   5  22
TORSDOF 6
ENDMDL
MODEL 5
REMARK VINA RESULT:      -8.2      2.790      4.222
REMARK  Name = *****
REMARK                            x       y       z     vdW  Elec       q    Type
REMARK                         _______ _______ _______ _____ _____    ______ ____
ROOT
ATOM      1  C   LIG    1       28.805 -20.752   7.990  0.00  0.00    +0.151 A 
ATOM      2  C   LIG    1       28.566 -20.067   6.792  0.00  0.00    +0.159 A 
ATOM      3  C   LIG    1       27.426 -20.350   6.013  0.00  0.00    +0.048 A 
ATOM      4  C   LIG    1       26.499 -21.321   6.427  0.00  0.00    +0.066 A 
ATOM      5  C   LIG    1       26.727 -21.974   7.642  0.00  0.00    +0.131 A 
ATOM      6  C   LIG    1       27.875 -21.712   8.398  0.00  0.00    +0.093 A 
ENDROOT
BRANCH   2   7
ATOM      7  S   LIG    1       29.689 -18.815   6.224  0.00  0.00    +0.113 S 
ATOM      8  O   LIG    1       29.030 -18.037   5.204  0.00  0.00    -0.142 OA
ATOM      9  O   LIG    1       30.973 -19.449   5.970  0.00  0.00    -0.142 OA
BRANCH   7  10
ATOM     10  O   LIG    1       29.921 -17.836   7.486  0.00  0.00    -0.250 OA
ATOM     11  H   LIG    1       29.166 -17.214   7.516  0.00  0.00    +0.245 HD
ENDBRANCH   7  10
ENDBRANCH   2   7
BRANCH   1  13
ATOM     12  C   LIG    1       30.899 -21.468   8.886  0.00  0.00    +0.277 C 
ATOM     13  O   LIG    1       29.931 -20.436   8.707  0.00  0.00    -0.493 OA
ENDBRANCH   1  13
BRANCH   4  14
ATOM     14  C   LIG    1       25.304 -21.564   5.559  0.00  0.00    +0.197 C 
ATOM     15  O   LIG    1       25.047 -22.724   5.238  0.00  0.00    -0.286 OA
BRANCH  14  16
ATOM     16  C   LIG    1       24.386 -20.481   5.099  0.00  0.00    +0.022 A 
ATOM     17  C   LIG    1       24.738 -19.715   3.978  0.00  0.00    +0.012 A 
ATOM     18  C   LIG    1       23.885 -18.709   3.509  0.00  0.00    +0.001 A 
ATOM     19  C   LIG    1       22.683 -18.450   4.168  0.00  0.00    +0.000 A 
ATOM     20  C   LIG    1       22.319 -19.214   5.274  0.00  0.00    +0.001 A 
ATOM     21  C   LIG    1       23.151 -20.246   5.719  0.00  0.00    +0.012 A 
ENDBRANCH  14  16
ENDBRANCH   4  14
BRANCH   5  22
ATOM     22  O   LIG    1       25.816 -22.861   8.143  0.00  0.00    -0.506 OA
ATOM     23  H   LIG    1       25.982 -23.750   7.787  0.00  0.00    +0.292 HD
ENDBRANCH   5  22
TORSDOF 6
ENDMDL
MODEL 6
REMARK VINA RESULT:      -8.1      5.505      8.252
REMARK  Name = *****
REMARK                            x       y       z     vdW  Elec       q    Type
REMARK                         _______ _______ _______ _____ _____    ______ ____
ROOT
ATOM      1  C   LIG    1       25.046 -30.087   8.291  0.00  0.00    +0.151 A 
ATOM      2  C   LIG    1       25.864 -29.065   8.785  0.00  0.00    +0.159 A 
ATOM      3  C   LIG    1       26.067 -27.880   8.048  0.00  0.00    +0.048 A 
ATOM      4  C   LIG    1       25.443 -27.697   6.802  0.00  0.00    +0.066 A 
ATOM      5  C   LIG    1       24.600 -28.707   6.333  0.00  0.00    +0.131 A 
ATOM      6  C   LIG    1       24.425 -29.895   7.053  0.00  0.00    +0.093 A 
ENDROOT
BRANCH   2   7
ATOM      7  S   LIG    1       26.664 -29.226  10.361  0.00  0.00    +0.113 S 
ATOM      8  O   LIG    1       26.923 -27.907  10.882  0.00  0.00    -0.142 OA
ATOM      9  O   LIG    1       27.735 -30.200  10.221  0.00  0.00    -0.142 OA
BRANCH   7  10
ATOM     10  O   LIG    1       25.572 -29.909  11.335  0.00  0.00    -0.250 OA
ATOM     11  H   LIG    1       24.689 -29.738  10.949  0.00  0.00    +0.245 HD
ENDBRANCH   7  10
ENDBRANCH   2   7
BRANCH   1  13
ATOM     12  C   LIG    1       25.453 -32.425   8.548  0.00  0.00    +0.277 C 
ATOM     13  O   LIG    1       24.885 -31.217   9.050  0.00  0.00    -0.493 OA
ENDBRANCH   1  13
BRANCH   4  14
ATOM     14  C   LIG    1       25.692 -26.412   6.077  0.00  0.00    +0.197 C 
ATOM     15  O   LIG    1       26.398 -26.441   5.070  0.00  0.00    -0.286 OA
BRANCH  14  16
ATOM     16  C   LIG    1       25.094 -25.106   6.485  0.00  0.00    +0.022 A 
ATOM     17  C   LIG    1       25.935 -24.079   6.938  0.00  0.00    +0.012 A 
ATOM     18  C   LIG    1       25.405 -22.836   7.304  0.00  0.00    +0.001 A 
ATOM     19  C   LIG    1       24.029 -22.618   7.238  0.00  0.00    +0.000 A 
ATOM     20  C   LIG    1       23.187 -23.628   6.779  0.00  0.00    +0.001 A 
ATOM     21  C   LIG    1       23.720 -24.855   6.374  0.00  0.00    +0.012 A 
ENDBRANCH  14  16
ENDBRANCH   4  14
BRANCH   5  22
ATOM     22  O   LIG    1       23.894 -28.550   5.174  0.00  0.00    -0.506 OA
ATOM     23  H   LIG    1       24.376 -27.967   4.563  0.00  0.00    +0.292 HD
ENDBRANCH   5  22
TORSDOF 6
ENDMDL
MODEL 7
REMARK VINA RESULT:      -8.0      2.427      7.095
REMARK  Name = *****
REMARK                            x       y       z     vdW  Elec       q    Type
REMARK                         _______ _______ _______ _____ _____    ______ ____
ROOT
ATOM      1  C   LIG    1       26.531 -21.881   7.002  0.00  0.00    +0.151 A 
ATOM      2  C   LIG    1       26.483 -20.765   6.159  0.00  0.00    +0.159 A 
ATOM      3  C   LIG    1       27.529 -19.821   6.148  0.00  0.00    +0.048 A 
ATOM      4  C   LIG    1       28.650 -19.986   6.980  0.00  0.00    +0.066 A 
ATOM      5  C   LIG    1       28.706 -21.121   7.792  0.00  0.00    +0.131 A 
ATOM      6  C   LIG    1       27.652 -22.041   7.822  0.00  0.00    +0.093 A 
ENDROOT
BRANCH   2   7
ATOM      7  S   LIG    1       25.104 -20.510   5.070  0.00  0.00    +0.113 S 
ATOM      8  O   LIG    1       25.513 -19.619   4.012  0.00  0.00    -0.142 OA
ATOM      9  O   LIG    1       23.938 -20.218   5.887  0.00  0.00    -0.142 OA
BRANCH   7  10
ATOM     10  O   LIG    1       24.818 -21.946   4.389  0.00  0.00    -0.250 OA
ATOM     11  H   LIG    1       23.981 -22.286   4.766  0.00  0.00    +0.245 HD
ENDBRANCH   7  10
ENDBRANCH   2   7
BRANCH   1  13
ATOM     12  C   LIG    1       25.806 -24.156   7.008  0.00  0.00    +0.277 C 
ATOM     13  O   LIG    1       25.484 -22.767   6.970  0.00  0.00    -0.493 OA
ENDBRANCH   1  13
BRANCH   4  14
ATOM     14  C   LIG    1       29.731 -18.953   6.911  0.00  0.00    +0.197 C 
ATOM     15  O   LIG    1       30.084 -18.555   5.802  0.00  0.00    -0.286 OA
BRANCH  14  16
ATOM     16  C   LIG    1       30.372 -18.349   8.117  0.00  0.00    +0.022 A 
ATOM     17  C   LIG    1       31.758 -18.128   8.118  0.00  0.00    +0.012 A 
ATOM     18  C   LIG    1       32.382 -17.541   9.225  0.00  0.00    +0.001 A 
ATOM     19  C   LIG    1       31.629 -17.189  10.345  0.00  0.00    +0.000 A 
ATOM     20  C   LIG    1       30.252 -17.393  10.348  0.00  0.00    +0.001 A 
ATOM     21  C   LIG    1       29.621 -17.941   9.227  0.00  0.00    +0.012 A 
ENDBRANCH  14  16
ENDBRANCH   4  14
BRANCH   5  22
ATOM     22  O   LIG    1       29.810 -21.385   8.554  0.00  0.00    -0.506 OA
ATOM     23  H   LIG    1       30.482 -20.696   8.421  0.00  0.00    +0.292 HD
ENDBRANCH   5  22
TORSDOF 6
ENDMDL
MODEL 8
REMARK VINA RESULT:      -7.7      1.645      2.434
REMARK  Name = *****
REMARK                            x       y       z     vdW  Elec       q    Type
REMARK                         _______ _______ _______ _____ _____    ______ ____
ROOT
ATOM      1  C   LIG    1       30.669 -19.075   7.033  0.00  0.00    +0.151 A 
ATOM      2  C   LIG    1       29.965 -20.182   7.522  0.00  0.00    +0.159 A 
ATOM      3  C   LIG    1       28.697 -20.517   7.006  0.00  0.00    +0.048 A 
ATOM      4  C   LIG    1       28.116 -19.751   5.981  0.00  0.00    +0.066 A 
ATOM      5  C   LIG    1       28.841 -18.669   5.475  0.00  0.00    +0.131 A 
ATOM      6  C   LIG    1       30.087 -18.321   6.010  0.00  0.00    +0.093 A 
ENDROOT
BRANCH   2   7
ATOM      7  S   LIG    1       30.653 -21.202   8.801  0.00  0.00    +0.113 S 
ATOM      8  O   LIG    1       31.931 -21.700   8.355  0.00  0.00    -0.142 OA
ATOM      9  O   LIG    1       29.612 -22.111   9.255  0.00  0.00    -0.142 OA
BRANCH   7  10
ATOM     10  O   LIG    1       30.943 -20.208  10.040  0.00  0.00    -0.250 OA
ATOM     11  H   LIG    1       30.307 -19.468   9.976  0.00  0.00    +0.245 HD
ENDBRANCH   7  10
ENDBRANCH   2   7
BRANCH   1  13
ATOM     12  C   LIG    1       31.989 -17.663   8.434  0.00  0.00    +0.277 C 
ATOM     13  O   LIG    1       31.899 -18.796   7.573  0.00  0.00    -0.493 OA
ENDBRANCH   1  13
BRANCH   4  14
ATOM     14  C   LIG    1       26.772 -20.168   5.470  0.00  0.00    +0.197 C 
ATOM     15  O   LIG    1       26.436 -19.793   4.348  0.00  0.00    -0.286 OA
BRANCH  14  16
ATOM     16  C   LIG    1       25.838 -21.049   6.232  0.00  0.00    +0.022 A 
ATOM     17  C   LIG    1       24.556 -20.576   6.549  0.00  0.00    +0.012 A 
ATOM     18  C   LIG    1       23.651 -21.389   7.241  0.00  0.00    +0.001 A 
ATOM     19  C   LIG    1       24.027 -22.673   7.636  0.00  0.00    +0.000 A 
ATOM     20  C   LIG    1       25.294 -23.156   7.315  0.00  0.00    +0.001 A 
ATOM     21  C   LIG    1       26.184 -22.359   6.588  0.00  0.00    +0.012 A 
ENDBRANCH  14  16
ENDBRANCH   4  14
BRANCH   5  22
ATOM     22  O   LIG    1       28.372 -17.942   4.418  0.00  0.00    -0.506 OA
ATOM     23  H   LIG    1       28.514 -18.426   3.587  0.00  0.00    +0.292 HD
ENDBRANCH   5  22
TORSDOF 6
ENDMDL
MODEL 9
REMARK VINA RESULT:      -7.4      2.779      6.591
REMARK  Name = *****
REMARK                            x       y       z     vdW  Elec       q    Type
REMARK                         _______ _______ _______ _____ _____    ______ ____
ROOT
ATOM      1  C   LIG    1       25.618 -20.343   5.283  0.00  0.00    +0.151 A 
ATOM      2  C   LIG    1       25.704 -21.135   6.434  0.00  0.00    +0.159 A 
ATOM      3  C   LIG    1       26.904 -21.213   7.170  0.00  0.00    +0.048 A 
ATOM      4  C   LIG    1       28.039 -20.489   6.766  0.00  0.00    +0.066 A 
ATOM      5  C   LIG    1       27.933 -19.673   5.637  0.00  0.00    +0.131 A 
ATOM      6  C   LIG    1       26.749 -19.621   4.892  0.00  0.00    +0.093 A 
ENDROOT
BRANCH   2   7
ATOM      7  S   LIG    1       24.301 -22.058   7.007  0.00  0.00    +0.113 S 
ATOM      8  O   LIG    1       23.404 -21.157   7.687  0.00  0.00    -0.142 OA
ATOM      9  O   LIG    1       24.794 -23.260   7.661  0.00  0.00    -0.142 OA
BRANCH   7  10
ATOM     10  O   LIG    1       23.539 -22.562   5.675  0.00  0.00    -0.250 OA
ATOM     11  H   LIG    1       23.097 -23.407   5.893  0.00  0.00    +0.245 HD
ENDBRANCH   7  10
ENDBRANCH   2   7
BRANCH   1  13
ATOM     12  C   LIG    1       24.260 -19.272   3.638  0.00  0.00    +0.277 C 
ATOM     13  O   LIG    1       24.425 -20.305   4.607  0.00  0.00    -0.493 OA
ENDBRANCH   1  13
BRANCH   4  14
ATOM     14  C   LIG    1       29.277 -20.607   7.598  0.00  0.00    +0.197 C 
ATOM     15  O   LIG    1       29.701 -21.735   7.850  0.00  0.00    -0.286 OA
BRANCH  14  16
ATOM     16  C   LIG    1       30.049 -19.432   8.102  0.00  0.00    +0.022 A 
ATOM     17  C   LIG    1       29.421 -18.518   8.961  0.00  0.00    +0.012 A 
ATOM     18  C   LIG    1       30.126 -17.420   9.468  0.00  0.00    +0.001 A 
ATOM     19  C   LIG    1       31.458 -17.219   9.104  0.00  0.00    +0.000 A 
ATOM     20  C   LIG    1       32.093 -18.127   8.261  0.00  0.00    +0.001 A 
ATOM     21  C   LIG    1       31.401 -19.246   7.787  0.00  0.00    +0.012 A 
ENDBRANCH  14  16
ENDBRANCH   4  14
BRANCH   5  22
ATOM     22  O   LIG    1       28.972 -18.874   5.248  0.00  0.00    -0.506 OA
ATOM     23  H   LIG    1       28.634 -18.046   4.868  0.00  0.00    +0.292 HD
ENDBRANCH   5  22
TORSDOF 6
ENDMDL
