MODEL 1
REMARK VINA RESULT:      -8.0      0.000      0.000
REMARK  Name = *****
REMARK                            x       y       z     vdW  Elec       q    Type
REMARK                         _______ _______ _______ _____ _____    ______ ____
ROOT
ATOM      1  C   LIG    1       24.973 -27.330   6.159  0.00  0.00    -0.007 A 
ATOM      2  C   LIG    1       25.979 -26.754   6.936  0.00  0.00    +0.010 A 
ATOM      3  C   LIG    1       26.030 -25.367   7.080  0.00  0.00    +0.010 A 
ATOM      4  C   LIG    1       25.076 -24.563   6.447  0.00  0.00    -0.007 A 
ATOM      5  C   LIG    1       24.064 -25.138   5.673  0.00  0.00    +0.010 A 
ATOM      6  C   LIG    1       24.012 -26.528   5.531  0.00  0.00    +0.010 A 
ENDROOT
BRANCH   1   8
ATOM      7  N   LIG    1       24.005 -29.522   6.514  0.00  0.00    -0.276 NA
ATOM      8  C   LIG    1       24.918 -28.793   5.964  0.00  0.00    +0.113 C 
BRANCH   7  11
ATOM      9  O   LIG    1       23.005 -32.084   8.082  0.00  0.00    -0.271 OA
ATOM     10  C   LIG    1       24.036 -31.782   7.503  0.00  0.00    +0.263 C 
ATOM     11  C   LIG    1       24.137 -30.970   6.239  0.00  0.00    +0.220 C 
ATOM     12  C   LIG    1       25.561 -31.312   5.815  0.00  0.00    +0.226 C 
ATOM     13  O   LIG    1       26.289 -31.672   7.001  0.00  0.00    -0.277 OA
ATOM     14  N   LIG    1       25.305 -32.084   7.922  0.00  0.00    -0.193 N 
ATOM     15  H   LIG    1       25.549 -32.655   8.719  0.00  0.00    +0.182 HD
ENDBRANCH   7  11
ENDBRANCH   1   8
BRANCH   4  16
ATOM     16  C   LIG    1       25.140 -23.095   6.585  0.00  0.00    +0.113 C 
ATOM     17  N   LIG    1       24.926 -22.335   5.568  0.00  0.00    -0.276 NA
BRANCH  17  18
ATOM     18  C   LIG    1       25.003 -20.889   5.829  0.00  0.00    +0.220 C 
ATOM     19  C   LIG    1       25.581 -20.156   4.648  0.00  0.00    +0.263 C 
ATOM     20  O   LIG    1       24.968 -19.794   3.657  0.00  0.00    -0.271 OA
ATOM     21  N   LIG    1       26.930 -20.021   4.850  0.00  0.00    -0.193 N 
ATOM     22  H   LIG    1       27.568 -19.507   4.259  0.00  0.00    +0.182 HD
ATOM     23  O   LIG    1       27.319 -20.422   6.148  0.00  0.00    -0.277 OA
ATOM     24  C   LIG    1       26.089 -20.618   6.864  0.00  0.00    +0.226 C 
ENDBRANCH  17  18
ENDBRANCH   4  16
TORSDOF 4
ENDMDL
MODEL 2
REMARK VINA RESULT:      -7.9      0.285      9.152
REMARK  Name = *****
REMARK                            x       y       z     vdW  Elec       q    Type
REMARK                         _______ _______ _______ _____ _____    ______ ____
ROOT
ATOM      1  C   LIG    1       25.061 -24.653   6.324  0.00  0.00    -0.007 A 
ATOM      2  C   LIG    1       26.025 -25.381   7.024  0.00  0.00    +0.010 A 
ATOM      3  C   LIG    1       26.020 -26.774   6.957  0.00  0.00    +0.010 A 
ATOM      4  C   LIG    1       25.052 -27.435   6.191  0.00  0.00    -0.007 A 
ATOM      5  C   LIG    1       24.089 -26.708   5.485  0.00  0.00    +0.010 A 
ATOM      6  C   LIG    1       24.096 -25.312   5.551  0.00  0.00    +0.010 A 
ENDROOT
BRANCH   1   8
ATOM      7  N   LIG    1       24.775 -22.444   5.375  0.00  0.00    -0.276 NA
ATOM      8  C   LIG    1       25.025 -23.179   6.406  0.00  0.00    +0.113 C 
BRANCH   7  11
ATOM      9  O   LIG    1       24.851 -19.931   3.450  0.00  0.00    -0.271 OA
ATOM     10  C   LIG    1       25.425 -20.237   4.483  0.00  0.00    +0.263 C 
ATOM     11  C   LIG    1       24.823 -20.989   5.641  0.00  0.00    +0.220 C 
ATOM     12  C   LIG    1       25.847 -20.672   6.726  0.00  0.00    +0.226 C 
ATOM     13  O   LIG    1       27.096 -20.393   6.071  0.00  0.00    -0.277 OA
ATOM     14  N   LIG    1       26.743 -19.996   4.765  0.00  0.00    -0.193 N 
ATOM     15  H   LIG    1       27.390 -19.473   4.192  0.00  0.00    +0.182 HD
ENDBRANCH   7  11
ENDBRANCH   1   8
BRANCH   4  16
ATOM     16  C   LIG    1       25.037 -28.909   6.135  0.00  0.00    +0.113 C 
ATOM     17  N   LIG    1       24.071 -29.572   6.670  0.00  0.00    -0.276 NA
BRANCH  17  18
ATOM     18  C   LIG    1       24.155 -31.035   6.539  0.00  0.00    +0.220 C 
ATOM     19  C   LIG    1       23.984 -31.708   7.875  0.00  0.00    +0.263 C 
ATOM     20  O   LIG    1       22.924 -31.967   8.419  0.00  0.00    -0.271 OA
ATOM     21  N   LIG    1       25.231 -31.924   8.404  0.00  0.00    -0.193 N 
ATOM     22  H   LIG    1       25.431 -32.425   9.258  0.00  0.00    +0.182 HD
ATOM     23  O   LIG    1       26.261 -31.637   7.481  0.00  0.00    -0.277 OA
ATOM     24  C   LIG    1       25.592 -31.433   6.225  0.00  0.00    +0.226 C 
ENDBRANCH  17  18
ENDBRANCH   4  16
TORSDOF 4
ENDMDL
MODEL 3
REMARK VINA RESULT:      -7.9      1.534      1.959
REMARK  Name = *****
REMARK                            x       y       z     vdW  Elec       q    Type
REMARK                         _______ _______ _______ _____ _____    ______ ____
ROOT
ATOM      1  C   LIG    1       25.050 -27.630   6.229  0.00  0.00    -0.007 A 
ATOM      2  C   LIG    1       26.043 -26.991   6.974  0.00  0.00    +0.010 A 
ATOM      3  C   LIG    1       26.091 -25.597   7.008  0.00  0.00    +0.010 A 
ATOM      4  C   LIG    1       25.148 -24.847   6.295  0.00  0.00    -0.007 A 
ATOM      5  C   LIG    1       24.150 -25.485   5.552  0.00  0.00    +0.010 A 
ATOM      6  C   LIG    1       24.101 -26.881   5.521  0.00  0.00    +0.010 A 
ENDROOT
BRANCH   1   8
ATOM      7  N   LIG    1       23.914 -29.763   6.383  0.00  0.00    -0.276 NA
ATOM      8  C   LIG    1       25.000 -29.103   6.151  0.00  0.00    +0.113 C 
BRANCH   7  11
ATOM      9  O   LIG    1       22.915 -32.115   8.252  0.00  0.00    -0.271 OA
ATOM     10  C   LIG    1       23.952 -31.876   7.656  0.00  0.00    +0.263 C 
ATOM     11  C   LIG    1       24.067 -31.232   6.299  0.00  0.00    +0.220 C 
ATOM     12  C   LIG    1       25.502 -31.607   5.945  0.00  0.00    +0.226 C 
ATOM     13  O   LIG    1       26.212 -31.802   7.179  0.00  0.00    -0.277 OA
ATOM     14  N   LIG    1       25.217 -32.105   8.130  0.00  0.00    -0.193 N 
ATOM     15  H   LIG    1       25.453 -32.566   8.998  0.00  0.00    +0.182 HD
ENDBRANCH   7  11
ENDBRANCH   1   8
BRANCH   4  16
ATOM     16  C   LIG    1       25.209 -23.374   6.316  0.00  0.00    +0.113 C 
ATOM     17  N   LIG    1       26.224 -22.771   6.834  0.00  0.00    -0.276 NA
BRANCH  17  18
ATOM     18  C   LIG    1       26.182 -21.301   6.785  0.00  0.00    +0.220 C 
ATOM     19  C   LIG    1       26.714 -20.703   8.060  0.00  0.00    +0.263 C 
ATOM     20  O   LIG    1       27.889 -20.512   8.329  0.00  0.00    -0.271 OA
ATOM     21  N   LIG    1       25.652 -20.466   8.895  0.00  0.00    -0.193 N 
ATOM     22  H   LIG    1       25.697 -20.001   9.790  0.00  0.00    +0.182 HD
ATOM     23  O   LIG    1       24.411 -20.667   8.251  0.00  0.00    -0.277 OA
ATOM     24  C   LIG    1       24.733 -20.834   6.860  0.00  0.00    +0.226 C 
ENDBRANCH  17  18
ENDBRANCH   4  16
TORSDOF 4
ENDMDL
MODEL 4
REMARK VINA RESULT:      -7.9      4.856     10.589
REMARK  Name = *****
REMARK                            x       y       z     vdW  Elec       q    Type
REMARK                         _______ _______ _______ _____ _____    ______ ____
ROOT
ATOM      1  C   LIG    1       29.255 -19.404   7.811  0.00  0.00    -0.007 A 
ATOM      2  C   LIG    1       29.185 -19.343   6.418  0.00  0.00    +0.010 A 
ATOM      3  C   LIG    1       28.093 -19.904   5.757  0.00  0.00    +0.010 A 
ATOM      4  C   LIG    1       27.075 -20.524   6.490  0.00  0.00    -0.007 A 
ATOM      5  C   LIG    1       27.140 -20.582   7.885  0.00  0.00    +0.010 A 
ATOM      6  C   LIG    1       28.234 -20.018   8.547  0.00  0.00    +0.010 A 
ENDROOT
BRANCH   1   8
ATOM      7  N   LIG    1       30.321 -18.384   9.732  0.00  0.00    -0.276 NA
ATOM      8  C   LIG    1       30.418 -18.847   8.530  0.00  0.00    +0.113 C 
BRANCH   7  11
ATOM      9  O   LIG    1       30.906 -16.262  12.006  0.00  0.00    -0.271 OA
ATOM     10  C   LIG    1       31.364 -16.476  10.896  0.00  0.00    +0.263 C 
ATOM     11  C   LIG    1       31.581 -17.830  10.273  0.00  0.00    +0.220 C 
ATOM     12  C   LIG    1       32.536 -17.455   9.145  0.00  0.00    +0.226 C 
ATOM     13  O   LIG    1       32.298 -16.075   8.821  0.00  0.00    -0.277 OA
ATOM     14  N   LIG    1       31.724 -15.520   9.983  0.00  0.00    -0.193 N 
ATOM     15  H   LIG    1       31.727 -14.522  10.135  0.00  0.00    +0.182 HD
ENDBRANCH   7  11
ENDBRANCH   1   8
BRANCH   4  16
ATOM     16  C   LIG    1       25.928 -21.133   5.790  0.00  0.00    +0.113 C 
ATOM     17  N   LIG    1       25.504 -22.302   6.127  0.00  0.00    -0.276 NA
BRANCH  17  18
ATOM     18  C   LIG    1       24.346 -22.801   5.369  0.00  0.00    +0.220 C 
ATOM     19  C   LIG    1       23.055 -22.337   5.988  0.00  0.00    +0.263 C 
ATOM     20  O   LIG    1       22.519 -21.257   5.808  0.00  0.00    -0.271 OA
ATOM     21  N   LIG    1       22.616 -23.318   6.840  0.00  0.00    -0.193 N 
ATOM     22  H   LIG    1       21.738 -23.317   7.339  0.00  0.00    +0.182 HD
ATOM     23  O   LIG    1       23.379 -24.502   6.732  0.00  0.00    -0.277 OA
ATOM     24  C   LIG    1       24.214 -24.305   5.578  0.00  0.00    +0.226 C 
ENDBRANCH  17  18
ENDBRANCH   4  16
TORSDOF 4
ENDMDL
MODEL 5
REMARK VINA RESULT:      -7.8      6.814     10.637
REMARK  Name = *****
REMARK                            x       y       z     vdW  Elec       q    Type
REMARK                         _______ _______ _______ _____ _____    ______ ____
ROOT
ATOM      1  C   LIG    1       29.576 -19.220   7.478  0.00  0.00    -0.007 A 
ATOM      2  C   LIG    1       29.449 -18.863   6.134  0.00  0.00    +0.010 A 
ATOM      3  C   LIG    1       28.324 -19.268   5.416  0.00  0.00    +0.010 A 
ATOM      4  C   LIG    1       27.330 -20.029   6.043  0.00  0.00    -0.007 A 
ATOM      5  C   LIG    1       27.452 -20.383   7.390  0.00  0.00    +0.010 A 
ATOM      6  C   LIG    1       28.579 -19.975   8.109  0.00  0.00    +0.010 A 
ENDROOT
BRANCH   1   8
ATOM      7  N   LIG    1       30.689 -18.173   9.357  0.00  0.00    -0.276 NA
ATOM      8  C   LIG    1       30.773 -18.832   8.250  0.00  0.00    +0.113 C 
BRANCH   7  11
ATOM      9  O   LIG    1       31.567 -17.650  12.353  0.00  0.00    -0.271 OA
ATOM     10  C   LIG    1       31.823 -17.126  11.281  0.00  0.00    +0.263 C 
ATOM     11  C   LIG    1       31.995 -17.838   9.965  0.00  0.00    +0.220 C 
ATOM     12  C   LIG    1       32.702 -16.751   9.163  0.00  0.00    +0.226 C 
ATOM     13  O   LIG    1       32.333 -15.485   9.736  0.00  0.00    -0.277 OA
ATOM     14  N   LIG    1       31.954 -15.780  11.062  0.00  0.00    -0.193 N 
ATOM     15  H   LIG    1       31.931 -15.056  11.766  0.00  0.00    +0.182 HD
ENDBRANCH   7  11
ENDBRANCH   1   8
BRANCH   4  16
ATOM     16  C   LIG    1       26.149 -20.471   5.278  0.00  0.00    +0.113 C 
ATOM     17  N   LIG    1       25.417 -19.614   4.655  0.00  0.00    -0.276 NA
BRANCH  17  18
ATOM     18  C   LIG    1       24.275 -20.173   3.915  0.00  0.00    +0.220 C 
ATOM     19  C   LIG    1       22.974 -19.617   4.428  0.00  0.00    +0.263 C 
ATOM     20  O   LIG    1       22.471 -18.553   4.107  0.00  0.00    -0.271 OA
ATOM     21  N   LIG    1       22.482 -20.485   5.369  0.00  0.00    -0.193 N 
ATOM     22  H   LIG    1       21.587 -20.410   5.831  0.00  0.00    +0.182 HD
ATOM     23  O   LIG    1       23.220 -21.688   5.424  0.00  0.00    -0.277 OA
ATOM     24  C   LIG    1       24.100 -21.640   4.288  0.00  0.00    +0.226 C 
ENDBRANCH  17  18
ENDBRANCH   4  16
TORSDOF 4
ENDMDL
MODEL 6
REMARK VINA RESULT:      -7.8      1.994      2.887
REMARK  Name = *****
REMARK                            x       y       z     vdW  Elec       q    Type
REMARK                         _______ _______ _______ _____ _____    ______ ____
ROOT
ATOM      1  C   LIG    1       25.128 -28.057   6.511  0.00  0.00    -0.007 A 
ATOM      2  C   LIG    1       24.272 -27.413   5.616  0.00  0.00    +0.010 A 
ATOM      3  C   LIG    1       24.300 -26.023   5.512  0.00  0.00    +0.010 A 
ATOM      4  C   LIG    1       25.184 -25.281   6.304  0.00  0.00    -0.007 A 
ATOM      5  C   LIG    1       26.046 -25.923   7.198  0.00  0.00    +0.010 A 
ATOM      6  C   LIG    1       26.018 -27.317   7.299  0.00  0.00    +0.010 A 
ENDROOT
BRANCH   1   8
ATOM      7  N   LIG    1       25.412 -30.320   5.697  0.00  0.00    -0.276 NA
ATOM      8  C   LIG    1       25.092 -29.526   6.663  0.00  0.00    +0.113 C 
BRANCH   7  11
ATOM      9  O   LIG    1       26.212 -32.944   4.117  0.00  0.00    -0.271 OA
ATOM     10  C   LIG    1       25.244 -32.603   4.777  0.00  0.00    +0.263 C 
ATOM     11  C   LIG    1       25.274 -31.757   6.022  0.00  0.00    +0.220 C 
ATOM     12  C   LIG    1       23.887 -32.054   6.581  0.00  0.00    +0.226 C 
ATOM     13  O   LIG    1       23.048 -32.426   5.474  0.00  0.00    -0.277 OA
ATOM     14  N   LIG    1       23.937 -32.885   4.480  0.00  0.00    -0.193 N 
ATOM     15  H   LIG    1       23.609 -33.470   3.724  0.00  0.00    +0.182 HD
ENDBRANCH   7  11
ENDBRANCH   1   8
BRANCH   4  16
ATOM     16  C   LIG    1       25.202 -23.809   6.207  0.00  0.00    +0.113 C 
ATOM     17  N   LIG    1       26.052 -23.121   6.889  0.00  0.00    -0.276 NA
BRANCH  17  18
ATOM     18  C   LIG    1       25.986 -21.663   6.701  0.00  0.00    +0.220 C 
ATOM     19  C   LIG    1       26.420 -20.937   7.946  0.00  0.00    +0.263 C 
ATOM     20  O   LIG    1       27.570 -20.694   8.271  0.00  0.00    -0.271 OA
ATOM     21  N   LIG    1       25.301 -20.652   8.684  0.00  0.00    -0.193 N 
ATOM     22  H   LIG    1       25.276 -20.105   9.533  0.00  0.00    +0.182 HD
ATOM     23  O   LIG    1       24.109 -20.941   7.983  0.00  0.00    -0.277 OA
ATOM     24  C   LIG    1       24.526 -21.227   6.637  0.00  0.00    +0.226 C 
ENDBRANCH  17  18
ENDBRANCH   4  16
TORSDOF 4
ENDMDL
MODEL 7
REMARK VINA RESULT:      -7.8      1.986      2.637
REMARK  Name = *****
REMARK                            x       y       z     vdW  Elec       q    Type
REMARK                         _______ _______ _______ _____ _____    ______ ____
ROOT
ATOM      1  C   LIG    1       25.047 -27.881   6.395  0.00  0.00    -0.007 A 
ATOM      2  C   LIG    1       24.187 -27.182   5.546  0.00  0.00    +0.010 A 
ATOM      3  C   LIG    1       24.264 -25.791   5.481  0.00  0.00    +0.010 A 
ATOM      4  C   LIG    1       25.198 -25.104   6.265  0.00  0.00    -0.007 A 
ATOM      5  C   LIG    1       26.064 -25.802   7.112  0.00  0.00    +0.010 A 
ATOM      6  C   LIG    1       25.988 -27.197   7.175  0.00  0.00    +0.010 A 
ENDROOT
BRANCH   1   8
ATOM      7  N   LIG    1       25.475 -30.135   5.618  0.00  0.00    -0.276 NA
ATOM      8  C   LIG    1       24.962 -29.351   6.507  0.00  0.00    +0.113 C 
BRANCH   7  11
ATOM      9  O   LIG    1       26.563 -32.083   7.863  0.00  0.00    -0.271 OA
ATOM     10  C   LIG    1       26.392 -32.175   6.659  0.00  0.00    +0.263 C 
ATOM     11  C   LIG    1       25.254 -31.575   5.877  0.00  0.00    +0.220 C 
ATOM     12  C   LIG    1       25.362 -32.379   4.586  0.00  0.00    +0.226 C 
ATOM     13  O   LIG    1       26.726 -32.813   4.463  0.00  0.00    -0.277 OA
ATOM     14  N   LIG    1       27.233 -32.803   5.778  0.00  0.00    -0.193 N 
ATOM     15  H   LIG    1       28.060 -33.332   6.018  0.00  0.00    +0.182 HD
ENDBRANCH   7  11
ENDBRANCH   1   8
BRANCH   4  16
ATOM     16  C   LIG    1       25.267 -23.631   6.209  0.00  0.00    +0.113 C 
ATOM     17  N   LIG    1       26.129 -22.992   6.921  0.00  0.00    -0.276 NA
BRANCH  17  18
ATOM     18  C   LIG    1       26.115 -21.528   6.773  0.00  0.00    +0.220 C 
ATOM     19  C   LIG    1       26.603 -20.852   8.026  0.00  0.00    +0.263 C 
ATOM     20  O   LIG    1       27.768 -20.661   8.332  0.00  0.00    -0.271 OA
ATOM     21  N   LIG    1       25.511 -20.545   8.796  0.00  0.00    -0.193 N 
ATOM     22  H   LIG    1       25.526 -20.021   9.659  0.00  0.00    +0.182 HD
ATOM     23  O   LIG    1       24.294 -20.770   8.114  0.00  0.00    -0.277 OA
ATOM     24  C   LIG    1       24.672 -21.036   6.753  0.00  0.00    +0.226 C 
ENDBRANCH  17  18
ENDBRANCH   4  16
TORSDOF 4
ENDMDL
MODEL 8
REMARK VINA RESULT:      -7.8      6.769      9.445
REMARK  Name = *****
REMARK                            x       y       z     vdW  Elec       q    Type
REMARK                         _______ _______ _______ _____ _____    ______ ____
ROOT
ATOM      1  C   LIG    1       27.341 -20.037   6.188  0.00  0.00    -0.007 A 
ATOM      2  C   LIG    1       27.463 -20.356   7.542  0.00  0.00    +0.010 A 
ATOM      3  C   LIG    1       28.606 -19.971   8.241  0.00  0.00    +0.010 A 
ATOM      4  C   LIG    1       29.625 -19.270   7.585  0.00  0.00    -0.007 A 
ATOM      5  C   LIG    1       29.504 -18.946   6.230  0.00  0.00    +0.010 A 
ATOM      6  C   LIG    1       28.356 -19.330   5.531  0.00  0.00    +0.010 A 
ENDROOT
BRANCH   1   8
ATOM      7  N   LIG    1       25.598 -19.696   4.542  0.00  0.00    -0.276 NA
ATOM      8  C   LIG    1       26.155 -20.464   5.418  0.00  0.00    +0.113 C 
BRANCH   7  11
ATOM      9  O   LIG    1       22.692 -18.546   4.035  0.00  0.00    -0.271 OA
ATOM     10  C   LIG    1       23.136 -19.622   4.402  0.00  0.00    +0.263 C 
ATOM     11  C   LIG    1       24.396 -20.278   3.903  0.00  0.00    +0.220 C 
ATOM     12  C   LIG    1       24.164 -21.705   4.386  0.00  0.00    +0.226 C 
ATOM     13  O   LIG    1       23.286 -21.638   5.522  0.00  0.00    -0.277 OA
ATOM     14  N   LIG    1       22.595 -20.417   5.377  0.00  0.00    -0.193 N 
ATOM     15  H   LIG    1       21.724 -20.255   5.864  0.00  0.00    +0.182 HD
ENDBRANCH   7  11
ENDBRANCH   1   8
BRANCH   4  16
ATOM     16  C   LIG    1       30.843 -18.879   8.320  0.00  0.00    +0.113 C 
ATOM     17  N   LIG    1       30.762 -18.111   9.351  0.00  0.00    -0.276 NA
BRANCH  17  18
ATOM     18  C   LIG    1       32.040 -17.800  10.012  0.00  0.00    +0.220 C 
ATOM     19  C   LIG    1       31.812 -17.130  11.341  0.00  0.00    +0.263 C 
ATOM     20  O   LIG    1       31.573 -17.692  12.397  0.00  0.00    -0.271 OA
ATOM     21  N   LIG    1       31.857 -15.773  11.146  0.00  0.00    -0.193 N 
ATOM     22  H   LIG    1       31.811 -15.071  11.871  0.00  0.00    +0.182 HD
ATOM     23  O   LIG    1       32.283 -15.433   9.843  0.00  0.00    -0.277 OA
ATOM     24  C   LIG    1       32.735 -16.669   9.263  0.00  0.00    +0.226 C 
ENDBRANCH  17  18
ENDBRANCH   4  16
TORSDOF 4
ENDMDL
MODEL 9
REMARK VINA RESULT:      -7.8      1.308      1.821
REMARK  Name = *****
REMARK                            x       y       z     vdW  Elec       q    Type
REMARK                         _______ _______ _______ _____ _____    ______ ____
ROOT
ATOM      1  C   LIG    1       24.990 -27.612   6.136  0.00  0.00    -0.007 A 
ATOM      2  C   LIG    1       25.965 -27.048   6.961  0.00  0.00    +0.010 A 
ATOM      3  C   LIG    1       26.034 -25.662   7.099  0.00  0.00    +0.010 A 
ATOM      4  C   LIG    1       25.130 -24.845   6.411  0.00  0.00    -0.007 A 
ATOM      5  C   LIG    1       24.150 -25.407   5.588  0.00  0.00    +0.010 A 
ATOM      6  C   LIG    1       24.080 -26.797   5.453  0.00  0.00    +0.010 A 
ENDROOT
BRANCH   1   8
ATOM      7  N   LIG    1       23.987 -29.788   6.487  0.00  0.00    -0.276 NA
ATOM      8  C   LIG    1       24.918 -29.075   5.948  0.00  0.00    +0.113 C 
BRANCH   7  11
ATOM      9  O   LIG    1       22.916 -32.326   8.046  0.00  0.00    -0.271 OA
ATOM     10  C   LIG    1       23.963 -32.043   7.488  0.00  0.00    +0.263 C 
ATOM     11  C   LIG    1       24.103 -31.239   6.222  0.00  0.00    +0.220 C 
ATOM     12  C   LIG    1       25.530 -31.605   5.829  0.00  0.00    +0.226 C 
ATOM     13  O   LIG    1       26.227 -31.969   7.033  0.00  0.00    -0.277 OA
ATOM     14  N   LIG    1       25.218 -32.361   7.935  0.00  0.00    -0.193 N 
ATOM     15  H   LIG    1       25.437 -32.932   8.740  0.00  0.00    +0.182 HD
ENDBRANCH   7  11
ENDBRANCH   1   8
BRANCH   4  16
ATOM     16  C   LIG    1       25.215 -23.378   6.543  0.00  0.00    +0.113 C 
ATOM     17  N   LIG    1       24.757 -22.612   5.613  0.00  0.00    -0.276 NA
BRANCH  17  18
ATOM     18  C   LIG    1       24.883 -21.167   5.861  0.00  0.00    +0.220 C 
ATOM     19  C   LIG    1       23.673 -20.635   6.580  0.00  0.00    +0.263 C 
ATOM     20  O   LIG    1       23.478 -20.673   7.784  0.00  0.00    -0.271 OA
ATOM     21  N   LIG    1       22.797 -20.154   5.641  0.00  0.00    -0.193 N 
ATOM     22  H   LIG    1       21.932 -19.670   5.833  0.00  0.00    +0.182 HD
ATOM     23  O   LIG    1       23.362 -20.128   4.347  0.00  0.00    -0.277 OA
ATOM     24  C   LIG    1       24.757 -20.415   4.541  0.00  0.00    +0.226 C 
ENDBRANCH  17  18
ENDBRANCH   4  16
TORSDOF 4
ENDMDL
