MODEL 1
REMARK VINA RESULT:      -6.7      0.000      0.000
REMARK  Name = *****
REMARK                            x       y       z     vdW  Elec       q    Type
REMARK                         _______ _______ _______ _____ _____    ______ ____
ROOT
ATOM      1  C   LIG    1       25.997 -20.650   6.983  0.00  0.00    +0.100 A 
ATOM      2  C   LIG    1       25.959 -20.397   5.608  0.00  0.00    +0.131 A 
ATOM      3  C   LIG    1       24.732 -20.292   4.945  0.00  0.00    +0.049 A 
ATOM      4  C   LIG    1       23.528 -20.458   5.644  0.00  0.00    -0.047 A 
ATOM      5  C   LIG    1       22.222 -20.350   4.913  0.00  0.00    +0.044 C 
ATOM      6  C   LIG    1       23.566 -20.715   7.018  0.00  0.00    +0.004 A 
ATOM      7  C   LIG    1       24.792 -20.816   7.682  0.00  0.00    +0.019 A 
ENDROOT
BRANCH   1   8
ATOM      8  C   LIG    1       27.252 -20.770   7.763  0.00  0.00    +0.343 C 
ATOM      9  O   LIG    1       27.372 -21.517   8.726  0.00  0.00    -0.245 OA
BRANCH   8  11
ATOM     10  C   LIG    1       29.525 -20.269   7.492  0.00  0.00    +0.280 C 
ATOM     11  O   LIG    1       28.166 -19.866   7.338  0.00  0.00    -0.464 OA
ENDBRANCH   8  11
ENDBRANCH   1   8
BRANCH   2  12
ATOM     12  O   LIG    1       27.112 -20.287   4.881  0.00  0.00    -0.506 OA
ATOM     13  H   LIG    1       27.839 -20.720   5.356  0.00  0.00    +0.292 HD
ENDBRANCH   2  12
TORSDOF 3
ENDMDL
MODEL 2
REMARK VINA RESULT:      -6.7      1.200      2.140
REMARK  Name = *****
REMARK                            x       y       z     vdW  Elec       q    Type
REMARK                         _______ _______ _______ _____ _____    ______ ____
ROOT
ATOM      1  C   LIG    1       26.797 -20.529   7.156  0.00  0.00    +0.100 A 
ATOM      2  C   LIG    1       25.708 -20.690   8.019  0.00  0.00    +0.131 A 
ATOM      3  C   LIG    1       24.406 -20.738   7.509  0.00  0.00    +0.049 A 
ATOM      4  C   LIG    1       24.174 -20.605   6.133  0.00  0.00    -0.047 A 
ATOM      5  C   LIG    1       22.771 -20.649   5.606  0.00  0.00    +0.044 C 
ATOM      6  C   LIG    1       25.263 -20.439   5.270  0.00  0.00    +0.004 A 
ATOM      7  C   LIG    1       26.565 -20.396   5.778  0.00  0.00    +0.019 A 
ENDROOT
BRANCH   1   8
ATOM      8  C   LIG    1       28.207 -20.475   7.611  0.00  0.00    +0.343 C 
ATOM      9  O   LIG    1       28.668 -21.239   8.449  0.00  0.00    -0.245 OA
BRANCH   8  11
ATOM     10  C   LIG    1       30.227 -19.614   6.795  0.00  0.00    +0.280 C 
ATOM     11  O   LIG    1       28.843 -19.410   7.069  0.00  0.00    -0.464 OA
ENDBRANCH   8  11
ENDBRANCH   1   8
BRANCH   2  12
ATOM     12  O   LIG    1       25.888 -20.765   9.372  0.00  0.00    -0.506 OA
ATOM     13  H   LIG    1       26.818 -20.965   9.566  0.00  0.00    +0.292 HD
ENDBRANCH   2  12
TORSDOF 3
ENDMDL
MODEL 3
REMARK VINA RESULT:      -6.7      1.159      1.567
REMARK  Name = *****
REMARK                            x       y       z     vdW  Elec       q    Type
REMARK                         _______ _______ _______ _____ _____    ______ ____
ROOT
ATOM      1  C   LIG    1       27.376 -20.448   7.312  0.00  0.00    +0.100 A 
ATOM      2  C   LIG    1       26.899 -20.353   6.000  0.00  0.00    +0.131 A 
ATOM      3  C   LIG    1       25.531 -20.485   5.736  0.00  0.00    +0.049 A 
ATOM      4  C   LIG    1       24.625 -20.733   6.777  0.00  0.00    -0.047 A 
ATOM      5  C   LIG    1       23.164 -20.881   6.473  0.00  0.00    +0.044 C 
ATOM      6  C   LIG    1       25.103 -20.833   8.088  0.00  0.00    +0.004 A 
ATOM      7  C   LIG    1       26.468 -20.697   8.353  0.00  0.00    +0.019 A 
ENDROOT
BRANCH   1   8
ATOM      8  C   LIG    1       28.806 -20.314   7.679  0.00  0.00    +0.343 C 
ATOM      9  O   LIG    1       29.379 -21.094   8.429  0.00  0.00    -0.245 OA
BRANCH   8  11
ATOM     10  C   LIG    1       30.682 -19.257   6.756  0.00  0.00    +0.280 C 
ATOM     11  O   LIG    1       29.322 -19.168   7.175  0.00  0.00    -0.464 OA
ENDBRANCH   8  11
ENDBRANCH   1   8
BRANCH   2  12
ATOM     12  O   LIG    1       27.757 -20.169   4.951  0.00  0.00    -0.506 OA
ATOM     13  H   LIG    1       27.257 -20.161   4.119  0.00  0.00    +0.292 HD
ENDBRANCH   2  12
TORSDOF 3
ENDMDL
MODEL 4
REMARK VINA RESULT:      -6.7      3.847      5.054
REMARK  Name = *****
REMARK                            x       y       z     vdW  Elec       q    Type
REMARK                         _______ _______ _______ _____ _____    ______ ____
ROOT
ATOM      1  C   LIG    1       24.051 -22.585   6.870  0.00  0.00    +0.100 A 
ATOM      2  C   LIG    1       23.310 -23.751   6.644  0.00  0.00    +0.131 A 
ATOM      3  C   LIG    1       23.958 -24.986   6.532  0.00  0.00    +0.049 A 
ATOM      4  C   LIG    1       25.355 -25.069   6.624  0.00  0.00    -0.047 A 
ATOM      5  C   LIG    1       26.032 -26.401   6.492  0.00  0.00    +0.044 C 
ATOM      6  C   LIG    1       26.095 -23.903   6.846  0.00  0.00    +0.004 A 
ATOM      7  C   LIG    1       25.449 -22.669   6.962  0.00  0.00    +0.019 A 
ENDROOT
BRANCH   1   8
ATOM      8  C   LIG    1       23.444 -21.239   7.008  0.00  0.00    +0.343 C 
ATOM      9  O   LIG    1       23.630 -20.519   7.980  0.00  0.00    -0.245 OA
BRANCH   8  11
ATOM     10  C   LIG    1       23.003 -19.972   5.087  0.00  0.00    +0.280 C 
ATOM     11  O   LIG    1       22.587 -20.996   5.989  0.00  0.00    -0.464 OA
ENDBRANCH   8  11
ENDBRANCH   1   8
BRANCH   2  12
ATOM     12  O   LIG    1       21.953 -23.703   6.491  0.00  0.00    -0.506 OA
ATOM     13  H   LIG    1       21.666 -24.423   5.907  0.00  0.00    +0.292 HD
ENDBRANCH   2  12
TORSDOF 3
ENDMDL
MODEL 5
REMARK VINA RESULT:      -6.6      2.882      3.379
REMARK  Name = *****
REMARK                            x       y       z     vdW  Elec       q    Type
REMARK                         _______ _______ _______ _____ _____    ______ ____
ROOT
ATOM      1  C   LIG    1       25.481 -22.083   7.669  0.00  0.00    +0.100 A 
ATOM      2  C   LIG    1       24.110 -22.231   7.431  0.00  0.00    +0.131 A 
ATOM      3  C   LIG    1       23.616 -23.411   6.867  0.00  0.00    +0.049 A 
ATOM      4  C   LIG    1       24.487 -24.452   6.514  0.00  0.00    -0.047 A 
ATOM      5  C   LIG    1       23.939 -25.707   5.901  0.00  0.00    +0.044 C 
ATOM      6  C   LIG    1       25.858 -24.303   6.748  0.00  0.00    +0.004 A 
ATOM      7  C   LIG    1       26.353 -23.126   7.315  0.00  0.00    +0.019 A 
ENDROOT
BRANCH   1   8
ATOM      8  C   LIG    1       26.087 -20.870   8.269  0.00  0.00    +0.343 C 
ATOM      9  O   LIG    1       25.848 -20.500   9.410  0.00  0.00    -0.245 OA
BRANCH   8  11
ATOM     10  C   LIG    1       28.204 -20.073   7.658  0.00  0.00    +0.280 C 
ATOM     11  O   LIG    1       26.817 -20.197   7.349  0.00  0.00    -0.464 OA
ENDBRANCH   8  11
ENDBRANCH   1   8
BRANCH   2  12
ATOM     12  O   LIG    1       23.236 -21.216   7.707  0.00  0.00    -0.506 OA
ATOM     13  H   LIG    1       23.557 -20.393   7.306  0.00  0.00    +0.292 HD
ENDBRANCH   2  12
TORSDOF 3
ENDMDL
MODEL 6
REMARK VINA RESULT:      -6.5      4.363      5.275
REMARK  Name = *****
REMARK                            x       y       z     vdW  Elec       q    Type
REMARK                         _______ _______ _______ _____ _____    ______ ____
ROOT
ATOM      1  C   LIG    1       24.686 -24.371   6.477  0.00  0.00    +0.100 A 
ATOM      2  C   LIG    1       23.639 -23.506   6.813  0.00  0.00    +0.131 A 
ATOM      3  C   LIG    1       23.909 -22.274   7.418  0.00  0.00    +0.049 A 
ATOM      4  C   LIG    1       25.228 -21.899   7.714  0.00  0.00    -0.047 A 
ATOM      5  C   LIG    1       25.497 -20.578   8.372  0.00  0.00    +0.044 C 
ATOM      6  C   LIG    1       26.275 -22.765   7.382  0.00  0.00    +0.004 A 
ATOM      7  C   LIG    1       26.006 -23.995   6.773  0.00  0.00    +0.019 A 
ENDROOT
BRANCH   1   8
ATOM      8  C   LIG    1       24.489 -25.689   5.827  0.00  0.00    +0.343 C 
ATOM      9  O   LIG    1       23.780 -26.567   6.301  0.00  0.00    -0.245 OA
BRANCH   8  11
ATOM     10  C   LIG    1       26.012 -27.031   4.657  0.00  0.00    +0.280 C 
ATOM     11  O   LIG    1       25.284 -25.807   4.738  0.00  0.00    -0.464 OA
ENDBRANCH   8  11
ENDBRANCH   1   8
BRANCH   2  12
ATOM     12  O   LIG    1       22.337 -23.860   6.594  0.00  0.00    -0.506 OA
ATOM     13  H   LIG    1       21.912 -23.202   6.021  0.00  0.00    +0.292 HD
ENDBRANCH   2  12
TORSDOF 3
ENDMDL
MODEL 7
REMARK VINA RESULT:      -6.4      1.644      2.074
REMARK  Name = *****
REMARK                            x       y       z     vdW  Elec       q    Type
REMARK                         _______ _______ _______ _____ _____    ______ ____
ROOT
ATOM      1  C   LIG    1       25.064 -21.052   6.966  0.00  0.00    +0.100 A 
ATOM      2  C   LIG    1       25.636 -20.559   5.788  0.00  0.00    +0.131 A 
ATOM      3  C   LIG    1       24.841 -19.917   4.834  0.00  0.00    +0.049 A 
ATOM      4  C   LIG    1       23.460 -19.778   5.033  0.00  0.00    -0.047 A 
ATOM      5  C   LIG    1       22.622 -19.095   3.993  0.00  0.00    +0.044 C 
ATOM      6  C   LIG    1       22.887 -20.274   6.209  0.00  0.00    +0.004 A 
ATOM      7  C   LIG    1       23.681 -20.912   7.166  0.00  0.00    +0.019 A 
ENDROOT
BRANCH   1   8
ATOM      8  C   LIG    1       25.834 -21.737   8.031  0.00  0.00    +0.343 C 
ATOM      9  O   LIG    1       25.860 -21.349   9.192  0.00  0.00    -0.245 OA
BRANCH   8  11
ATOM     10  C   LIG    1       25.833 -23.905   7.143  0.00  0.00    +0.280 C 
ATOM     11  O   LIG    1       26.575 -22.744   7.512  0.00  0.00    -0.464 OA
ENDBRANCH   8  11
ENDBRANCH   1   8
BRANCH   2  12
ATOM     12  O   LIG    1       26.968 -20.727   5.530  0.00  0.00    -0.506 OA
ATOM     13  H   LIG    1       27.482 -20.528   6.330  0.00  0.00    +0.292 HD
ENDBRANCH   2  12
TORSDOF 3
ENDMDL
MODEL 8
REMARK VINA RESULT:      -6.4      1.833      4.669
REMARK  Name = *****
REMARK                            x       y       z     vdW  Elec       q    Type
REMARK                         _______ _______ _______ _____ _____    ______ ____
ROOT
ATOM      1  C   LIG    1       25.612 -20.601   6.950  0.00  0.00    +0.100 A 
ATOM      2  C   LIG    1       26.391 -20.527   8.111  0.00  0.00    +0.131 A 
ATOM      3  C   LIG    1       27.749 -20.204   8.029  0.00  0.00    +0.049 A 
ATOM      4  C   LIG    1       28.352 -19.969   6.784  0.00  0.00    -0.047 A 
ATOM      5  C   LIG    1       29.812 -19.632   6.716  0.00  0.00    +0.044 C 
ATOM      6  C   LIG    1       27.575 -20.046   5.624  0.00  0.00    +0.004 A 
ATOM      7  C   LIG    1       26.216 -20.365   5.705  0.00  0.00    +0.019 A 
ENDROOT
BRANCH   1   8
ATOM      8  C   LIG    1       24.166 -20.929   6.949  0.00  0.00    +0.343 C 
ATOM      9  O   LIG    1       23.491 -20.977   7.968  0.00  0.00    -0.245 OA
BRANCH   8  11
ATOM     10  C   LIG    1       22.558 -20.642   5.269  0.00  0.00    +0.280 C 
ATOM     11  O   LIG    1       23.758 -21.278   5.706  0.00  0.00    -0.464 OA
ENDBRANCH   8  11
ENDBRANCH   1   8
BRANCH   2  12
ATOM     12  O   LIG    1       25.853 -20.806   9.336  0.00  0.00    -0.506 OA
ATOM     13  H   LIG    1       24.912 -21.023   9.237  0.00  0.00    +0.292 HD
ENDBRANCH   2  12
TORSDOF 3
ENDMDL
MODEL 9
REMARK VINA RESULT:      -6.3      2.968      3.804
REMARK  Name = *****
REMARK                            x       y       z     vdW  Elec       q    Type
REMARK                         _______ _______ _______ _____ _____    ______ ____
ROOT
ATOM      1  C   LIG    1       24.324 -21.994   5.703  0.00  0.00    +0.100 A 
ATOM      2  C   LIG    1       23.489 -21.289   6.578  0.00  0.00    +0.131 A 
ATOM      3  C   LIG    1       22.818 -20.143   6.142  0.00  0.00    +0.049 A 
ATOM      4  C   LIG    1       22.986 -19.674   4.831  0.00  0.00    -0.047 A 
ATOM      5  C   LIG    1       22.265 -18.437   4.384  0.00  0.00    +0.044 C 
ATOM      6  C   LIG    1       23.823 -20.376   3.957  0.00  0.00    +0.004 A 
ATOM      7  C   LIG    1       24.492 -21.524   4.391  0.00  0.00    +0.019 A 
ENDROOT
BRANCH   1   8
ATOM      8  C   LIG    1       25.066 -23.220   6.082  0.00  0.00    +0.343 C 
ATOM      9  O   LIG    1       25.694 -23.325   7.127  0.00  0.00    -0.245 OA
BRANCH   8  11
ATOM     10  C   LIG    1       25.450 -25.439   5.436  0.00  0.00    +0.280 C 
ATOM     11  O   LIG    1       25.043 -24.122   5.072  0.00  0.00    -0.464 OA
ENDBRANCH   8  11
ENDBRANCH   1   8
BRANCH   2  12
ATOM     12  O   LIG    1       23.345 -21.682   7.880  0.00  0.00    -0.506 OA
ATOM     13  H   LIG    1       22.547 -22.228   7.968  0.00  0.00    +0.292 HD
ENDBRANCH   2  12
TORSDOF 3
ENDMDL
