MODEL 1
REMARK VINA RESULT:       2.3      0.000      0.000
REMARK  Name = *****
REMARK                            x       y       z     vdW  Elec       q    Type
REMARK                         _______ _______ _______ _____ _____    ______ ____
ROOT
ATOM      1  N   LIG    1       26.164 -14.917   3.607  0.00  0.00    -0.298 NA
ATOM      2  C   LIG    1       25.019 -15.848   3.570  0.00  0.00    +0.100 C 
ATOM      3  C   LIG    1       25.371 -17.261   3.049  0.00  0.00    +0.100 C 
ATOM      4  N   LIG    1       26.477 -17.948   3.755  0.00  0.00    -0.289 NA
ATOM      5  C   LIG    1       27.602 -16.995   3.946  0.00  0.00    +0.100 C 
ATOM      6  C   LIG    1       27.224 -15.564   4.412  0.00  0.00    +0.100 C 
ENDROOT
BRANCH   1   7
ATOM      7  C   LIG    1       26.681 -14.563   2.267  0.00  0.00    +0.112 C 
BRANCH   7   8
ATOM      8  C   LIG    1       26.683 -13.064   1.927  0.00  0.00    +0.176 C 
BRANCH   8   9
ATOM      9  O   LIG    1       26.917 -12.315   3.133  0.00  0.00    -0.367 OA
BRANCH   9  10
ATOM     10  C   LIG    1       28.177 -12.680   3.717  0.00  0.00    +0.279 C 
BRANCH  10  12
ATOM     11  O   LIG    1       27.164 -13.207   5.864  0.00  0.00    -0.248 OA
ATOM     12  C   LIG    1       28.064 -12.663   5.232  0.00  0.00    +0.331 C 
BRANCH  12  13
ATOM     13  O   LIG    1       29.069 -11.973   5.823  0.00  0.00    -0.479 OA
ATOM     14  H   LIG    1       28.856 -11.015   5.761  0.00  0.00    +0.295 HD
ENDBRANCH  12  13
ENDBRANCH  10  12
ENDBRANCH   9  10
ENDBRANCH   8   9
ENDBRANCH   7   8
ENDBRANCH   1   7
BRANCH   4  15
ATOM     15  C   LIG    1       26.058 -18.611   5.025  0.00  0.00    +0.117 C 
BRANCH  15  16
ATOM     16  C   LIG    1       24.737 -19.392   4.875  0.00  0.00    -0.026 A 
ATOM     17  C   LIG    1       24.284 -19.835   3.617  0.00  0.00    +0.007 A 
ATOM     18  C   LIG    1       23.074 -20.517   3.485  0.00  0.00    +0.020 A 
ATOM     19  C   LIG    1       22.295 -20.758   4.611  0.00  0.00    +0.041 A 
ATOM     20 CL   LIG    1       20.787 -21.572   4.445  0.00  0.00    -0.084 Cl
ATOM     21  C   LIG    1       22.723 -20.336   5.867  0.00  0.00    +0.020 A 
ATOM     22  C   LIG    1       23.940 -19.659   6.002  0.00  0.00    +0.007 A 
ENDBRANCH  15  16
BRANCH  15  23
ATOM     23  C   LIG    1       27.132 -19.560   5.590  0.00  0.00    -0.026 A 
ATOM     24  C   LIG    1       28.492 -19.248   5.445  0.00  0.00    +0.005 A 
ATOM     25  C   LIG    1       29.474 -20.088   5.979  0.00  0.00    +0.000 A 
ATOM     26  C   LIG    1       29.111 -21.243   6.669  0.00  0.00    +0.000 A 
ATOM     27  C   LIG    1       27.767 -21.561   6.834  0.00  0.00    +0.000 A 
ATOM     28  C   LIG    1       26.786 -20.726   6.302  0.00  0.00    +0.005 A 
ENDBRANCH  15  23
ENDBRANCH   4  15
TORSDOF 9
ENDMDL
MODEL 2
REMARK VINA RESULT:       2.4      2.301      4.455
REMARK  Name = *****
REMARK                            x       y       z     vdW  Elec       q    Type
REMARK                         _______ _______ _______ _____ _____    ______ ____
ROOT
ATOM      1  N   LIG    1       25.092 -13.791   2.203  0.00  0.00    -0.298 NA
ATOM      2  C   LIG    1       26.312 -14.607   2.048  0.00  0.00    +0.100 C 
ATOM      3  C   LIG    1       26.850 -15.195   3.372  0.00  0.00    +0.100 C 
ATOM      4  N   LIG    1       25.882 -15.993   4.160  0.00  0.00    -0.289 NA
ATOM      5  C   LIG    1       24.584 -15.271   4.216  0.00  0.00    +0.100 C 
ATOM      6  C   LIG    1       24.089 -14.636   2.890  0.00  0.00    +0.100 C 
ENDROOT
BRANCH   1   7
ATOM      7  C   LIG    1       25.311 -12.538   2.958  0.00  0.00    +0.112 C 
BRANCH   7   8
ATOM      8  C   LIG    1       24.977 -12.596   4.457  0.00  0.00    +0.176 C 
BRANCH   8   9
ATOM      9  O   LIG    1       26.101 -12.095   5.203  0.00  0.00    -0.367 OA
BRANCH   9  10
ATOM     10  C   LIG    1       27.117 -13.105   5.321  0.00  0.00    +0.279 C 
BRANCH  10  12
ATOM     11  O   LIG    1       28.946 -12.770   3.752  0.00  0.00    -0.248 OA
ATOM     12  C   LIG    1       28.451 -12.547   4.852  0.00  0.00    +0.331 C 
BRANCH  12  13
ATOM     13  O   LIG    1       29.050 -11.770   5.787  0.00  0.00    -0.479 OA
ATOM     14  H   LIG    1       28.959 -10.833   5.506  0.00  0.00    +0.295 HD
ENDBRANCH  12  13
ENDBRANCH  10  12
ENDBRANCH   9  10
ENDBRANCH   8   9
ENDBRANCH   7   8
ENDBRANCH   1   7
BRANCH   4  15
ATOM     15  C   LIG    1       25.740 -17.402   3.689  0.00  0.00    +0.117 C 
BRANCH  15  16
ATOM     16  C   LIG    1       26.692 -18.368   4.422  0.00  0.00    -0.026 A 
ATOM     17  C   LIG    1       26.255 -19.629   4.874  0.00  0.00    +0.007 A 
ATOM     18  C   LIG    1       27.114 -20.487   5.561  0.00  0.00    +0.020 A 
ATOM     19  C   LIG    1       28.423 -20.092   5.813  0.00  0.00    +0.041 A 
ATOM     20 CL   LIG    1       29.475 -21.136   6.688  0.00  0.00    -0.084 Cl
ATOM     21  C   LIG    1       28.882 -18.853   5.372  0.00  0.00    +0.020 A 
ATOM     22  C   LIG    1       28.023 -17.995   4.676  0.00  0.00    +0.007 A 
ENDBRANCH  15  16
BRANCH  15  23
ATOM     23  C   LIG    1       24.301 -17.936   3.813  0.00  0.00    -0.026 A 
ATOM     24  C   LIG    1       23.310 -17.153   4.423  0.00  0.00    +0.005 A 
ATOM     25  C   LIG    1       21.995 -17.616   4.516  0.00  0.00    +0.000 A 
ATOM     26  C   LIG    1       21.651 -18.863   3.994  0.00  0.00    +0.000 A 
ATOM     27  C   LIG    1       22.618 -19.648   3.374  0.00  0.00    +0.000 A 
ATOM     28  C   LIG    1       23.930 -19.188   3.281  0.00  0.00    +0.005 A 
ENDBRANCH  15  23
ENDBRANCH   4  15
TORSDOF 9
ENDMDL
MODEL 3
REMARK VINA RESULT:       4.0      3.633      6.129
REMARK  Name = *****
REMARK                            x       y       z     vdW  Elec       q    Type
REMARK                         _______ _______ _______ _____ _____    ______ ____
ROOT
ATOM      1  N   LIG    1       24.016 -21.528   3.285  0.00  0.00    -0.298 NA
ATOM      2  C   LIG    1       24.302 -20.390   2.390  0.00  0.00    +0.100 C 
ATOM      3  C   LIG    1       24.225 -19.009   3.080  0.00  0.00    +0.100 C 
ATOM      4  N   LIG    1       25.071 -18.846   4.285  0.00  0.00    -0.289 NA
ATOM      5  C   LIG    1       24.926 -20.046   5.150  0.00  0.00    +0.100 C 
ATOM      6  C   LIG    1       24.946 -21.422   4.432  0.00  0.00    +0.100 C 
ENDROOT
BRANCH   1   7
ATOM      7  C   LIG    1       22.616 -21.568   3.762  0.00  0.00    +0.112 C 
BRANCH   7   8
ATOM      8  C   LIG    1       22.374 -20.999   5.169  0.00  0.00    +0.176 C 
BRANCH   8   9
ATOM      9  O   LIG    1       21.563 -19.815   5.057  0.00  0.00    -0.367 OA
BRANCH   9  10
ATOM     10  C   LIG    1       22.279 -18.666   5.538  0.00  0.00    +0.279 C 
BRANCH  10  12
ATOM     11  O   LIG    1       21.986 -16.293   5.090  0.00  0.00    -0.248 OA
ATOM     12  C   LIG    1       21.927 -17.453   4.693  0.00  0.00    +0.331 C 
BRANCH  12  13
ATOM     13  O   LIG    1       21.533 -17.786   3.440  0.00  0.00    -0.479 OA
ATOM     14  H   LIG    1       20.560 -17.925   3.456  0.00  0.00    +0.295 HD
ENDBRANCH  12  13
ENDBRANCH  10  12
ENDBRANCH   9  10
ENDBRANCH   8   9
ENDBRANCH   7   8
ENDBRANCH   1   7
BRANCH   4  15
ATOM     15  C   LIG    1       26.495 -18.521   3.979  0.00  0.00    +0.117 C 
BRANCH  15  16
ATOM     16  C   LIG    1       26.725 -17.011   3.775  0.00  0.00    -0.026 A 
ATOM     17  C   LIG    1       25.755 -16.196   3.160  0.00  0.00    +0.007 A 
ATOM     18  C   LIG    1       25.980 -14.834   2.954  0.00  0.00    +0.020 A 
ATOM     19  C   LIG    1       27.186 -14.270   3.355  0.00  0.00    +0.041 A 
ATOM     20 CL   LIG    1       27.479 -12.597   3.073  0.00  0.00    -0.084 Cl
ATOM     21  C   LIG    1       28.160 -15.052   3.971  0.00  0.00    +0.020 A 
ATOM     22  C   LIG    1       27.932 -16.416   4.185  0.00  0.00    +0.007 A 
ENDBRANCH  15  16
BRANCH  15  23
ATOM     23  C   LIG    1       27.473 -19.030   5.055  0.00  0.00    -0.026 A 
ATOM     24  C   LIG    1       28.592 -18.261   5.409  0.00  0.00    +0.005 A 
ATOM     25  C   LIG    1       29.470 -18.701   6.403  0.00  0.00    +0.000 A 
ATOM     26  C   LIG    1       29.238 -19.909   7.062  0.00  0.00    +0.000 A 
ATOM     27  C   LIG    1       28.126 -20.678   6.733  0.00  0.00    +0.000 A 
ATOM     28  C   LIG    1       27.250 -20.242   5.741  0.00  0.00    +0.005 A 
ENDBRANCH  15  23
ENDBRANCH   4  15
TORSDOF 9
ENDMDL
MODEL 4
REMARK VINA RESULT:       4.7      4.107      6.673
REMARK  Name = *****
REMARK                            x       y       z     vdW  Elec       q    Type
REMARK                         _______ _______ _______ _____ _____    ______ ____
ROOT
ATOM      1  N   LIG    1       24.469 -21.466   4.411  0.00  0.00    -0.298 NA
ATOM      2  C   LIG    1       24.628 -20.810   3.099  0.00  0.00    +0.100 C 
ATOM      3  C   LIG    1       24.244 -19.312   3.092  0.00  0.00    +0.100 C 
ATOM      4  N   LIG    1       24.934 -18.468   4.095  0.00  0.00    -0.289 NA
ATOM      5  C   LIG    1       24.926 -19.164   5.408  0.00  0.00    +0.100 C 
ATOM      6  C   LIG    1       25.256 -20.680   5.388  0.00  0.00    +0.100 C 
ENDROOT
BRANCH   1   7
ATOM      7  C   LIG    1       23.061 -21.571   4.853  0.00  0.00    +0.112 C 
BRANCH   7   8
ATOM      8  C   LIG    1       22.049 -20.725   4.063  0.00  0.00    +0.176 C 
BRANCH   8   9
ATOM      9  O   LIG    1       21.690 -19.575   4.850  0.00  0.00    -0.367 OA
BRANCH   9  10
ATOM     10  C   LIG    1       21.419 -18.448   4.001  0.00  0.00    +0.279 C 
BRANCH  10  12
ATOM     11  O   LIG    1       19.662 -17.907   2.408  0.00  0.00    -0.248 OA
ATOM     12  C   LIG    1       20.112 -18.669   3.258  0.00  0.00    +0.331 C 
BRANCH  12  13
ATOM     13  O   LIG    1       19.481 -19.807   3.637  0.00  0.00    -0.479 OA
ATOM     14  H   LIG    1       18.981 -20.149   2.863  0.00  0.00    +0.295 HD
ENDBRANCH  12  13
ENDBRANCH  10  12
ENDBRANCH   9  10
ENDBRANCH   8   9
ENDBRANCH   7   8
ENDBRANCH   1   7
BRANCH   4  15
ATOM     15  C   LIG    1       26.299 -18.034   3.677  0.00  0.00    +0.117 C 
BRANCH  15  16
ATOM     16  C   LIG    1       26.407 -16.505   3.511  0.00  0.00    -0.026 A 
ATOM     17  C   LIG    1       27.657 -15.857   3.468  0.00  0.00    +0.007 A 
ATOM     18  C   LIG    1       27.748 -14.470   3.344  0.00  0.00    +0.020 A 
ATOM     19  C   LIG    1       26.586 -13.710   3.270  0.00  0.00    +0.041 A 
ATOM     20 CL   LIG    1       26.695 -11.997   3.150  0.00  0.00    -0.084 Cl
ATOM     21  C   LIG    1       25.337 -14.327   3.304  0.00  0.00    +0.020 A 
ATOM     22  C   LIG    1       25.246 -15.718   3.421  0.00  0.00    +0.007 A 
ENDBRANCH  15  16
BRANCH  15  23
ATOM     23  C   LIG    1       27.402 -18.506   4.643  0.00  0.00    -0.026 A 
ATOM     24  C   LIG    1       27.392 -19.820   5.133  0.00  0.00    +0.005 A 
ATOM     25  C   LIG    1       28.404 -20.267   5.988  0.00  0.00    +0.000 A 
ATOM     26  C   LIG    1       29.441 -19.411   6.357  0.00  0.00    +0.000 A 
ATOM     27  C   LIG    1       29.474 -18.108   5.870  0.00  0.00    +0.000 A 
ATOM     28  C   LIG    1       28.466 -17.660   5.019  0.00  0.00    +0.005 A 
ENDBRANCH  15  23
ENDBRANCH   4  15
TORSDOF 9
ENDMDL
