MODEL 1
REMARK VINA RESULT:      -7.8      0.000      0.000
REMARK  Name = *****
REMARK                            x       y       z     vdW  Elec       q    Type
REMARK                         _______ _______ _______ _____ _____    ______ ____
ROOT
ATOM      1  C   LIG    1       24.900 -20.784   5.136  0.00  0.00    -0.027 A 
ATOM      2  C   LIG    1       24.706 -22.177   5.177  0.00  0.00    +0.010 A 
ATOM      3  C   LIG    1       25.267 -22.993   6.189  0.00  0.00    -0.027 A 
ATOM      4  C   LIG    1       26.136 -22.379   7.121  0.00  0.00    +0.010 A 
ATOM      5  C   LIG    1       26.379 -20.994   7.096  0.00  0.00    -0.025 A 
ATOM      6  C   LIG    1       25.706 -20.224   6.139  0.00  0.00    +0.010 A 
ENDROOT
BRANCH   1   8
ATOM      7  C   LIG    1       22.965 -19.241   4.581  0.00  0.00    +0.032 C 
ATOM      8  C   LIG    1       24.256 -19.892   4.049  0.00  0.00    +0.077 C 
ATOM      9  C   LIG    1       23.913 -20.720   2.795  0.00  0.00    +0.032 C 
BRANCH   8  10
ATOM     10  C   LIG    1       25.145 -18.783   3.604  0.00  0.00    +0.073 C 
ATOM     11  N   LIG    1       25.827 -17.914   3.235  0.00  0.00    -0.196 NA
ENDBRANCH   8  10
ENDBRANCH   1   8
BRANCH   3  12
ATOM     12  C   LIG    1       24.940 -24.507   6.267  0.00  0.00    +0.077 C 
ATOM     13  C   LIG    1       23.449 -24.697   6.606  0.00  0.00    +0.032 C 
ATOM     14  C   LIG    1       25.785 -25.221   7.351  0.00  0.00    +0.032 C 
BRANCH  12  15
ATOM     15  C   LIG    1       25.221 -25.210   4.987  0.00  0.00    +0.073 C 
ATOM     16  N   LIG    1       25.451 -25.770   3.989  0.00  0.00    -0.196 NA
ENDBRANCH  12  15
ENDBRANCH   3  12
BRANCH   5  17
ATOM     17  C   LIG    1       27.275 -20.331   8.130  0.00  0.00    +0.180 C 
BRANCH  17  18
ATOM     18  N   LIG    1       28.635 -20.074   7.659  0.00  0.00    -0.248 N 
ATOM     19  N   LIG    1       29.705 -20.442   8.396  0.00  0.00    -0.158 NA
ATOM     20  C   LIG    1       30.714 -20.046   7.614  0.00  0.00    +0.244 A 
ATOM     21  N   LIG    1       30.346 -19.431   6.454  0.00  0.00    -0.223 NA
ATOM     22  C   LIG    1       29.034 -19.440   6.519  0.00  0.00    +0.219 A 
ENDBRANCH  17  18
ENDBRANCH   5  17
TORSDOF 6
ENDMDL
MODEL 2
REMARK VINA RESULT:      -7.7      1.331      5.809
REMARK  Name = *****
REMARK                            x       y       z     vdW  Elec       q    Type
REMARK                         _______ _______ _______ _____ _____    ______ ____
ROOT
ATOM      1  C   LIG    1       27.125 -20.740   6.501  0.00  0.00    -0.027 A 
ATOM      2  C   LIG    1       26.465 -20.024   5.486  0.00  0.00    +0.010 A 
ATOM      3  C   LIG    1       25.227 -20.444   4.941  0.00  0.00    -0.027 A 
ATOM      4  C   LIG    1       24.708 -21.686   5.373  0.00  0.00    +0.010 A 
ATOM      5  C   LIG    1       25.353 -22.447   6.365  0.00  0.00    -0.025 A 
ATOM      6  C   LIG    1       26.515 -21.923   6.945  0.00  0.00    +0.010 A 
ENDROOT
BRANCH   1   8
ATOM      7  C   LIG    1       29.446 -21.433   7.255  0.00  0.00    +0.032 C 
ATOM      8  C   LIG    1       28.459 -20.258   7.119  0.00  0.00    +0.077 C 
ATOM      9  C   LIG    1       28.225 -19.643   8.514  0.00  0.00    +0.032 C 
BRANCH   8  10
ATOM     10  C   LIG    1       29.138 -19.217   6.298  0.00  0.00    +0.073 C 
ATOM     11  N   LIG    1       29.671 -18.390   5.676  0.00  0.00    -0.196 NA
ENDBRANCH   8  10
ENDBRANCH   1   8
BRANCH   3  12
ATOM     12  C   LIG    1       24.473 -19.571   3.904  0.00  0.00    +0.077 C 
ATOM     13  C   LIG    1       23.150 -19.070   4.514  0.00  0.00    +0.032 C 
ATOM     14  C   LIG    1       24.151 -20.364   2.614  0.00  0.00    +0.032 C 
BRANCH  12  15
ATOM     15  C   LIG    1       25.270 -18.388   3.481  0.00  0.00    +0.073 C 
ATOM     16  N   LIG    1       25.907 -17.467   3.151  0.00  0.00    -0.196 NA
ENDBRANCH  12  15
ENDBRANCH   3  12
BRANCH   5  17
ATOM     17  C   LIG    1       24.765 -23.758   6.861  0.00  0.00    +0.180 C 
BRANCH  17  18
ATOM     18  N   LIG    1       25.287 -24.940   6.176  0.00  0.00    -0.248 N 
ATOM     19  N   LIG    1       26.015 -25.862   6.841  0.00  0.00    -0.158 NA
ATOM     20  C   LIG    1       26.268 -26.748   5.873  0.00  0.00    +0.244 A 
ATOM     21  N   LIG    1       25.772 -26.427   4.644  0.00  0.00    -0.223 NA
ATOM     22  C   LIG    1       25.182 -25.273   4.857  0.00  0.00    +0.219 A 
ENDBRANCH  17  18
ENDBRANCH   5  17
TORSDOF 6
ENDMDL
MODEL 3
REMARK VINA RESULT:      -7.6      1.350      5.050
REMARK  Name = *****
REMARK                            x       y       z     vdW  Elec       q    Type
REMARK                         _______ _______ _______ _____ _____    ______ ____
ROOT
ATOM      1  C   LIG    1       25.262 -20.413   4.995  0.00  0.00    -0.027 A 
ATOM      2  C   LIG    1       26.450 -19.965   5.602  0.00  0.00    +0.010 A 
ATOM      3  C   LIG    1       27.143 -20.731   6.571  0.00  0.00    -0.027 A 
ATOM      4  C   LIG    1       26.546 -21.937   7.005  0.00  0.00    +0.010 A 
ATOM      5  C   LIG    1       25.344 -22.404   6.444  0.00  0.00    -0.025 A 
ATOM      6  C   LIG    1       24.765 -21.657   5.410  0.00  0.00    +0.010 A 
ENDROOT
BRANCH   1   8
ATOM      7  C   LIG    1       23.168 -19.091   4.440  0.00  0.00    +0.032 C 
ATOM      8  C   LIG    1       24.527 -19.588   3.911  0.00  0.00    +0.077 C 
ATOM      9  C   LIG    1       24.286 -20.439   2.648  0.00  0.00    +0.032 C 
BRANCH   8  10
ATOM     10  C   LIG    1       25.289 -18.384   3.480  0.00  0.00    +0.073 C 
ATOM     11  N   LIG    1       25.902 -17.455   3.135  0.00  0.00    -0.196 NA
ENDBRANCH   8  10
ENDBRANCH   1   8
BRANCH   3  12
ATOM     12  C   LIG    1       28.509 -20.258   7.135  0.00  0.00    +0.077 C 
ATOM     13  C   LIG    1       29.470 -21.457   7.237  0.00  0.00    +0.032 C 
ATOM     14  C   LIG    1       28.359 -19.626   8.541  0.00  0.00    +0.032 C 
BRANCH  12  15
ATOM     15  C   LIG    1       29.143 -19.222   6.276  0.00  0.00    +0.073 C 
ATOM     16  N   LIG    1       29.654 -18.414   5.607  0.00  0.00    -0.196 NA
ENDBRANCH  12  15
ENDBRANCH   3  12
BRANCH   5  17
ATOM     17  C   LIG    1       24.731 -23.726   6.878  0.00  0.00    +0.180 C 
BRANCH  17  18
ATOM     18  N   LIG    1       25.278 -24.890   6.183  0.00  0.00    -0.248 N 
ATOM     19  N   LIG    1       26.045 -25.790   6.835  0.00  0.00    -0.158 NA
ATOM     20  C   LIG    1       26.309 -26.668   5.862  0.00  0.00    +0.244 A 
ATOM     21  N   LIG    1       25.783 -26.361   4.642  0.00  0.00    -0.223 NA
ATOM     22  C   LIG    1       25.161 -25.227   4.865  0.00  0.00    +0.219 A 
ENDBRANCH  17  18
ENDBRANCH   5  17
TORSDOF 6
ENDMDL
MODEL 4
REMARK VINA RESULT:      -7.6      0.971      4.549
REMARK  Name = *****
REMARK                            x       y       z     vdW  Elec       q    Type
REMARK                         _______ _______ _______ _____ _____    ______ ____
ROOT
ATOM      1  C   LIG    1       25.244 -23.095   6.227  0.00  0.00    -0.027 A 
ATOM      2  C   LIG    1       24.675 -22.245   5.260  0.00  0.00    +0.010 A 
ATOM      3  C   LIG    1       24.963 -20.860   5.203  0.00  0.00    -0.027 A 
ATOM      4  C   LIG    1       25.771 -20.315   6.228  0.00  0.00    +0.010 A 
ATOM      5  C   LIG    1       26.335 -21.126   7.229  0.00  0.00    -0.025 A 
ATOM      6  C   LIG    1       26.103 -22.506   7.166  0.00  0.00    +0.010 A 
ENDROOT
BRANCH   1   8
ATOM      7  C   LIG    1       23.463 -24.872   6.555  0.00  0.00    +0.032 C 
ATOM      8  C   LIG    1       24.954 -24.614   6.263  0.00  0.00    +0.077 C 
ATOM      9  C   LIG    1       25.799 -25.307   7.351  0.00  0.00    +0.032 C 
BRANCH   8  10
ATOM     10  C   LIG    1       25.265 -25.297   4.977  0.00  0.00    +0.073 C 
ATOM     11  N   LIG    1       25.487 -25.825   3.963  0.00  0.00    -0.196 NA
ENDBRANCH   8  10
ENDBRANCH   1   8
BRANCH   3  12
ATOM     12  C   LIG    1       24.408 -19.975   4.056  0.00  0.00    +0.077 C 
ATOM     13  C   LIG    1       24.077 -20.856   2.837  0.00  0.00    +0.032 C 
ATOM     14  C   LIG    1       25.428 -18.895   3.621  0.00  0.00    +0.032 C 
BRANCH  12  15
ATOM     15  C   LIG    1       23.173 -19.248   4.455  0.00  0.00    +0.073 C 
ATOM     16  N   LIG    1       22.201 -18.675   4.755  0.00  0.00    -0.196 NA
ENDBRANCH  12  15
ENDBRANCH   3  12
BRANCH   5  17
ATOM     17  C   LIG    1       27.242 -20.543   8.300  0.00  0.00    +0.180 C 
BRANCH  17  18
ATOM     18  N   LIG    1       28.514 -20.035   7.787  0.00  0.00    -0.248 N 
ATOM     19  N   LIG    1       29.232 -19.131   8.486  0.00  0.00    -0.158 NA
ATOM     20  C   LIG    1       30.291 -18.959   7.690  0.00  0.00    +0.244 A 
ATOM     21  N   LIG    1       30.268 -19.673   6.528  0.00  0.00    -0.223 NA
ATOM     22  C   LIG    1       29.129 -20.322   6.603  0.00  0.00    +0.219 A 
ENDBRANCH  17  18
ENDBRANCH   5  17
TORSDOF 6
ENDMDL
MODEL 5
REMARK VINA RESULT:      -7.3      1.367      5.995
REMARK  Name = *****
REMARK                            x       y       z     vdW  Elec       q    Type
REMARK                         _______ _______ _______ _____ _____    ______ ____
ROOT
ATOM      1  C   LIG    1       27.628 -20.743   6.769  0.00  0.00    -0.027 A 
ATOM      2  C   LIG    1       26.837 -20.156   5.764  0.00  0.00    +0.010 A 
ATOM      3  C   LIG    1       25.608 -20.718   5.339  0.00  0.00    -0.027 A 
ATOM      4  C   LIG    1       25.236 -21.969   5.884  0.00  0.00    +0.010 A 
ATOM      5  C   LIG    1       26.014 -22.602   6.869  0.00  0.00    -0.025 A 
ATOM      6  C   LIG    1       27.160 -21.941   7.328  0.00  0.00    +0.010 A 
ENDROOT
BRANCH   1   8
ATOM      7  C   LIG    1       28.666 -18.887   8.153  0.00  0.00    +0.032 C 
ATOM      8  C   LIG    1       28.952 -20.106   7.255  0.00  0.00    +0.077 C 
ATOM      9  C   LIG    1       29.811 -19.650   6.058  0.00  0.00    +0.032 C 
BRANCH   8  10
ATOM     10  C   LIG    1       29.789 -21.043   8.054  0.00  0.00    +0.073 C 
ATOM     11  N   LIG    1       30.442 -21.762   8.698  0.00  0.00    -0.196 NA
ENDBRANCH   8  10
ENDBRANCH   1   8
BRANCH   3  12
ATOM     12  C   LIG    1       24.709 -19.985   4.310  0.00  0.00    +0.077 C 
ATOM     13  C   LIG    1       23.412 -19.516   4.998  0.00  0.00    +0.032 C 
ATOM     14  C   LIG    1       24.331 -20.905   3.123  0.00  0.00    +0.032 C 
BRANCH  12  15
ATOM     15  C   LIG    1       25.381 -18.796   3.722  0.00  0.00    +0.073 C 
ATOM     16  N   LIG    1       25.897 -17.858   3.256  0.00  0.00    -0.196 NA
ENDBRANCH  12  15
ENDBRANCH   3  12
BRANCH   5  17
ATOM     17  C   LIG    1       25.583 -23.922   7.488  0.00  0.00    +0.180 C 
BRANCH  17  18
ATOM     18  N   LIG    1       25.305 -24.973   6.509  0.00  0.00    -0.248 N 
ATOM     19  N   LIG    1       26.299 -25.523   5.780  0.00  0.00    -0.158 NA
ATOM     20  C   LIG    1       25.629 -26.418   5.050  0.00  0.00    +0.244 A 
ATOM     21  N   LIG    1       24.280 -26.443   5.252  0.00  0.00    -0.223 NA
ATOM     22  C   LIG    1       24.100 -25.508   6.156  0.00  0.00    +0.219 A 
ENDBRANCH  17  18
ENDBRANCH   5  17
TORSDOF 6
ENDMDL
MODEL 6
REMARK VINA RESULT:      -7.2      1.611      5.524
REMARK  Name = *****
REMARK                            x       y       z     vdW  Elec       q    Type
REMARK                         _______ _______ _______ _____ _____    ______ ____
ROOT
ATOM      1  C   LIG    1       25.688 -20.386   5.219  0.00  0.00    -0.027 A 
ATOM      2  C   LIG    1       26.894 -19.757   5.579  0.00  0.00    +0.010 A 
ATOM      3  C   LIG    1       27.783 -20.307   6.534  0.00  0.00    -0.027 A 
ATOM      4  C   LIG    1       27.372 -21.477   7.215  0.00  0.00    +0.010 A 
ATOM      5  C   LIG    1       26.161 -22.120   6.905  0.00  0.00    -0.025 A 
ATOM      6  C   LIG    1       25.378 -21.589   5.872  0.00  0.00    +0.010 A 
ENDROOT
BRANCH   1   8
ATOM      7  C   LIG    1       24.489 -20.826   3.027  0.00  0.00    +0.032 C 
ATOM      8  C   LIG    1       24.737 -19.799   4.149  0.00  0.00    +0.077 C 
ATOM      9  C   LIG    1       25.336 -18.521   3.527  0.00  0.00    +0.032 C 
BRANCH   8  10
ATOM     10  C   LIG    1       23.403 -19.428   4.696  0.00  0.00    +0.073 C 
ATOM     11  N   LIG    1       22.351 -19.134   5.102  0.00  0.00    -0.196 NA
ENDBRANCH   8  10
ENDBRANCH   1   8
BRANCH   3  12
ATOM     12  C   LIG    1       29.155 -19.644   6.823  0.00  0.00    +0.077 C 
ATOM     13  C   LIG    1       29.417 -18.528   5.794  0.00  0.00    +0.032 C 
ATOM     14  C   LIG    1       30.313 -20.669   6.742  0.00  0.00    +0.032 C 
BRANCH  12  15
ATOM     15  C   LIG    1       29.216 -19.049   8.184  0.00  0.00    +0.073 C 
ATOM     16  N   LIG    1       29.268 -18.595   9.258  0.00  0.00    -0.196 NA
ENDBRANCH  12  15
ENDBRANCH   3  12
BRANCH   5  17
ATOM     17  C   LIG    1       25.747 -23.405   7.605  0.00  0.00    +0.180 C 
BRANCH  17  18
ATOM     18  N   LIG    1       25.324 -24.467   6.693  0.00  0.00    -0.248 N 
ATOM     19  N   LIG    1       26.224 -25.133   5.939  0.00  0.00    -0.158 NA
ATOM     20  C   LIG    1       25.438 -25.996   5.288  0.00  0.00    +0.244 A 
ATOM     21  N   LIG    1       24.106 -25.893   5.563  0.00  0.00    -0.223 NA
ATOM     22  C   LIG    1       24.060 -24.908   6.430  0.00  0.00    +0.219 A 
ENDBRANCH  17  18
ENDBRANCH   5  17
TORSDOF 6
ENDMDL
MODEL 7
REMARK VINA RESULT:      -7.2      1.308      1.807
REMARK  Name = *****
REMARK                            x       y       z     vdW  Elec       q    Type
REMARK                         _______ _______ _______ _____ _____    ______ ____
ROOT
ATOM      1  C   LIG    1       25.026 -21.057   5.161  0.00  0.00    -0.027 A 
ATOM      2  C   LIG    1       24.772 -22.437   5.056  0.00  0.00    +0.010 A 
ATOM      3  C   LIG    1       25.260 -23.373   6.000  0.00  0.00    -0.027 A 
ATOM      4  C   LIG    1       26.119 -22.894   7.016  0.00  0.00    +0.010 A 
ATOM      5  C   LIG    1       26.421 -21.526   7.137  0.00  0.00    -0.025 A 
ATOM      6  C   LIG    1       25.817 -20.636   6.240  0.00  0.00    +0.010 A 
ENDROOT
BRANCH   1   8
ATOM      7  C   LIG    1       24.075 -20.736   2.831  0.00  0.00    +0.032 C 
ATOM      8  C   LIG    1       24.460 -20.034   4.147  0.00  0.00    +0.077 C 
ATOM      9  C   LIG    1       25.500 -18.938   3.838  0.00  0.00    +0.032 C 
BRANCH   8  10
ATOM     10  C   LIG    1       23.238 -19.341   4.641  0.00  0.00    +0.073 C 
ATOM     11  N   LIG    1       22.268 -18.815   5.014  0.00  0.00    -0.196 NA
ENDBRANCH   8  10
ENDBRANCH   1   8
BRANCH   3  12
ATOM     12  C   LIG    1       24.865 -24.871   5.917  0.00  0.00    +0.077 C 
ATOM     13  C   LIG    1       24.957 -25.349   4.455  0.00  0.00    +0.032 C 
ATOM     14  C   LIG    1       23.423 -25.112   6.425  0.00  0.00    +0.032 C 
BRANCH  12  15
ATOM     15  C   LIG    1       25.751 -25.732   6.746  0.00  0.00    +0.073 C 
ATOM     16  N   LIG    1       26.449 -26.396   7.405  0.00  0.00    -0.196 NA
ENDBRANCH  12  15
ENDBRANCH   3  12
BRANCH   5  17
ATOM     17  C   LIG    1       27.305 -21.009   8.260  0.00  0.00    +0.180 C 
BRANCH  17  18
ATOM     18  N   LIG    1       28.502 -20.307   7.798  0.00  0.00    -0.248 N 
ATOM     19  N   LIG    1       29.060 -19.326   8.539  0.00  0.00    -0.158 NA
ATOM     20  C   LIG    1       30.103 -18.980   7.778  0.00  0.00    +0.244 A 
ATOM     21  N   LIG    1       30.216 -19.658   6.600  0.00  0.00    -0.223 NA
ATOM     22  C   LIG    1       29.183 -20.468   6.626  0.00  0.00    +0.219 A 
ENDBRANCH  17  18
ENDBRANCH   5  17
TORSDOF 6
ENDMDL
MODEL 8
REMARK VINA RESULT:      -6.9      1.672      4.868
REMARK  Name = *****
REMARK                            x       y       z     vdW  Elec       q    Type
REMARK                         _______ _______ _______ _____ _____    ______ ____
ROOT
ATOM      1  C   LIG    1       25.999 -21.361   6.623  0.00  0.00    -0.027 A 
ATOM      2  C   LIG    1       25.245 -20.658   5.665  0.00  0.00    +0.010 A 
ATOM      3  C   LIG    1       25.831 -19.735   4.766  0.00  0.00    -0.027 A 
ATOM      4  C   LIG    1       27.206 -19.445   4.926  0.00  0.00    +0.010 A 
ATOM      5  C   LIG    1       27.988 -20.103   5.891  0.00  0.00    -0.025 A 
ATOM      6  C   LIG    1       27.374 -21.089   6.676  0.00  0.00    +0.010 A 
ENDROOT
BRANCH   1   8
ATOM      7  C   LIG    1       23.825 -22.267   7.566  0.00  0.00    +0.032 C 
ATOM      8  C   LIG    1       25.360 -22.396   7.579  0.00  0.00    +0.077 C 
ATOM      9  C   LIG    1       25.862 -22.190   9.023  0.00  0.00    +0.032 C 
BRANCH   8  10
ATOM     10  C   LIG    1       25.678 -23.803   7.210  0.00  0.00    +0.073 C 
ATOM     11  N   LIG    1       25.913 -24.901   6.900  0.00  0.00    -0.196 NA
ENDBRANCH   8  10
ENDBRANCH   1   8
BRANCH   3  12
ATOM     12  C   LIG    1       24.989 -19.064   3.648  0.00  0.00    +0.077 C 
ATOM     13  C   LIG    1       24.927 -19.992   2.420  0.00  0.00    +0.032 C 
ATOM     14  C   LIG    1       25.596 -17.708   3.211  0.00  0.00    +0.032 C 
BRANCH  12  15
ATOM     15  C   LIG    1       23.598 -18.778   4.088  0.00  0.00    +0.073 C 
ATOM     16  N   LIG    1       22.510 -18.548   4.446  0.00  0.00    -0.196 NA
ENDBRANCH  12  15
ENDBRANCH   3  12
BRANCH   5  17
ATOM     17  C   LIG    1       29.476 -19.825   6.026  0.00  0.00    +0.180 C 
BRANCH  17  18
ATOM     18  N   LIG    1       29.904 -19.539   7.395  0.00  0.00    -0.248 N 
ATOM     19  N   LIG    1       29.744 -18.310   7.930  0.00  0.00    -0.158 NA
ATOM     20  C   LIG    1       30.238 -18.488   9.158  0.00  0.00    +0.244 A 
ATOM     21  N   LIG    1       30.722 -19.737   9.416  0.00  0.00    -0.223 NA
ATOM     22  C   LIG    1       30.522 -20.370   8.284  0.00  0.00    +0.219 A 
ENDBRANCH  17  18
ENDBRANCH   5  17
TORSDOF 6
ENDMDL
MODEL 9
REMARK VINA RESULT:      -6.9      1.533      2.229
REMARK  Name = *****
REMARK                            x       y       z     vdW  Elec       q    Type
REMARK                         _______ _______ _______ _____ _____    ______ ____
ROOT
ATOM      1  C   LIG    1       25.910 -19.749   4.762  0.00  0.00    -0.027 A 
ATOM      2  C   LIG    1       25.340 -20.736   5.587  0.00  0.00    +0.010 A 
ATOM      3  C   LIG    1       26.073 -21.387   6.609  0.00  0.00    -0.027 A 
ATOM      4  C   LIG    1       27.452 -21.094   6.716  0.00  0.00    +0.010 A 
ATOM      5  C   LIG    1       28.066 -20.135   5.891  0.00  0.00    -0.025 A 
ATOM      6  C   LIG    1       27.263 -19.444   4.974  0.00  0.00    +0.010 A 
ENDROOT
BRANCH   1   8
ATOM      7  C   LIG    1       23.644 -18.791   4.139  0.00  0.00    +0.032 C 
ATOM      8  C   LIG    1       25.095 -19.014   3.670  0.00  0.00    +0.077 C 
ATOM      9  C   LIG    1       25.073 -19.830   2.362  0.00  0.00    +0.032 C 
BRANCH   8  10
ATOM     10  C   LIG    1       25.650 -17.674   3.333  0.00  0.00    +0.073 C 
ATOM     11  N   LIG    1       26.106 -16.636   3.065  0.00  0.00    -0.196 NA
ENDBRANCH   8  10
ENDBRANCH   1   8
BRANCH   3  12
ATOM     12  C   LIG    1       25.383 -22.388   7.572  0.00  0.00    +0.077 C 
ATOM     13  C   LIG    1       23.857 -22.188   7.521  0.00  0.00    +0.032 C 
ATOM     14  C   LIG    1       25.856 -22.194   9.034  0.00  0.00    +0.032 C 
BRANCH  12  15
ATOM     15  C   LIG    1       25.680 -23.803   7.220  0.00  0.00    +0.073 C 
ATOM     16  N   LIG    1       25.900 -24.914   6.938  0.00  0.00    -0.196 NA
ENDBRANCH  12  15
ENDBRANCH   3  12
BRANCH   5  17
ATOM     17  C   LIG    1       29.538 -19.788   6.043  0.00  0.00    +0.180 C 
BRANCH  17  18
ATOM     18  N   LIG    1       29.943 -19.511   7.421  0.00  0.00    -0.248 N 
ATOM     19  N   LIG    1       29.756 -18.291   7.967  0.00  0.00    -0.158 NA
ATOM     20  C   LIG    1       30.237 -18.476   9.200  0.00  0.00    +0.244 A 
ATOM     21  N   LIG    1       30.737 -19.720   9.450  0.00  0.00    -0.223 NA
ATOM     22  C   LIG    1       30.563 -20.343   8.308  0.00  0.00    +0.219 A 
ENDBRANCH  17  18
ENDBRANCH   5  17
TORSDOF 6
ENDMDL
