MODEL 1
REMARK VINA RESULT:      -8.5      0.000      0.000
REMARK  Name = *****
REMARK                            x       y       z     vdW  Elec       q    Type
REMARK                         _______ _______ _______ _____ _____    ______ ____
ROOT
ATOM      1  N   LIG    1       26.461 -22.029   6.369  0.00  0.00    -0.284 N 
ATOM      2  H   LIG    1       26.956 -22.209   5.508  0.00  0.00    +0.155 HD
ATOM      3  C   LIG    1       27.285 -21.648   7.423  0.00  0.00    +0.234 C 
ATOM      4  O   LIG    1       27.050 -21.852   8.614  0.00  0.00    -0.274 OA
ENDROOT
BRANCH   1   7
ATOM      5  C   LIG    1       24.146 -20.419   6.936  0.00  0.00    +0.045 C 
ATOM      6  C   LIG    1       24.082 -21.919   6.815  0.00  0.00    -0.029 A 
ATOM      7  C   LIG    1       25.225 -22.703   6.530  0.00  0.00    +0.039 A 
ATOM      8  C   LIG    1       25.107 -24.109   6.463  0.00  0.00    -0.029 A 
ATOM      9  C   LIG    1       26.278 -25.046   6.325  0.00  0.00    +0.045 C 
ATOM     10  C   LIG    1       23.832 -24.694   6.567  0.00  0.00    +0.005 A 
ATOM     11  C   LIG    1       22.701 -23.916   6.792  0.00  0.00    +0.001 A 
ATOM     12  C   LIG    1       22.828 -22.539   6.931  0.00  0.00    +0.005 A 
ENDBRANCH   1   7
BRANCH   3  13
ATOM     13  C   LIG    1       28.586 -20.959   6.936  0.00  0.00    +0.143 C 
ATOM     14  N   LIG    1       29.486 -20.633   8.075  0.00  0.00    -0.295 NA
ATOM     15  C   LIG    1       29.918 -21.822   8.809  0.00  0.00    +0.105 C 
ATOM     16  C   LIG    1       30.661 -19.865   7.637  0.00  0.00    +0.085 C 
ATOM     17  C   LIG    1       30.265 -18.577   6.917  0.00  0.00    +0.015 C 
ATOM     18  C   LIG    1       29.368 -18.875   5.724  0.00  0.00    +0.003 C 
ATOM     19  C   LIG    1       28.165 -19.694   6.168  0.00  0.00    +0.028 C 
ENDBRANCH   3  13
TORSDOF 2
ENDMDL
MODEL 2
REMARK VINA RESULT:      -8.2      0.232      2.061
REMARK  Name = *****
REMARK                            x       y       z     vdW  Elec       q    Type
REMARK                         _______ _______ _______ _____ _____    ______ ____
ROOT
ATOM      1  N   LIG    1       26.371 -21.939   6.302  0.00  0.00    -0.284 N 
ATOM      2  H   LIG    1       26.900 -22.191   5.479  0.00  0.00    +0.155 HD
ATOM      3  C   LIG    1       27.158 -21.522   7.371  0.00  0.00    +0.234 C 
ATOM      4  O   LIG    1       26.859 -21.643   8.559  0.00  0.00    -0.274 OA
ENDROOT
BRANCH   1   7
ATOM      5  C   LIG    1       26.301 -24.814   6.325  0.00  0.00    +0.045 C 
ATOM      6  C   LIG    1       25.060 -23.971   6.447  0.00  0.00    -0.029 A 
ATOM      7  C   LIG    1       25.103 -22.556   6.441  0.00  0.00    +0.039 A 
ATOM      8  C   LIG    1       23.901 -21.821   6.525  0.00  0.00    -0.029 A 
ATOM      9  C   LIG    1       23.816 -20.325   6.368  0.00  0.00    +0.045 C 
ATOM     10  C   LIG    1       22.691 -22.509   6.729  0.00  0.00    +0.005 A 
ATOM     11  C   LIG    1       22.657 -23.898   6.791  0.00  0.00    +0.001 A 
ATOM     12  C   LIG    1       23.831 -24.625   6.635  0.00  0.00    +0.005 A 
ENDBRANCH   1   7
BRANCH   3  13
ATOM     13  C   LIG    1       28.508 -20.913   6.908  0.00  0.00    +0.143 C 
ATOM     14  N   LIG    1       29.400 -20.632   8.066  0.00  0.00    -0.295 NA
ATOM     15  C   LIG    1       29.746 -21.839   8.816  0.00  0.00    +0.105 C 
ATOM     16  C   LIG    1       30.627 -19.937   7.649  0.00  0.00    +0.085 C 
ATOM     17  C   LIG    1       30.322 -18.633   6.913  0.00  0.00    +0.015 C 
ATOM     18  C   LIG    1       29.436 -18.888   5.702  0.00  0.00    +0.003 C 
ATOM     19  C   LIG    1       28.178 -19.632   6.124  0.00  0.00    +0.028 C 
ENDBRANCH   3  13
TORSDOF 2
ENDMDL
MODEL 3
REMARK VINA RESULT:      -8.0      1.309      6.335
REMARK  Name = *****
REMARK                            x       y       z     vdW  Elec       q    Type
REMARK                         _______ _______ _______ _____ _____    ______ ____
ROOT
ATOM      1  N   LIG    1       28.769 -21.081   6.997  0.00  0.00    -0.284 N 
ATOM      2  H   LIG    1       28.834 -21.300   6.014  0.00  0.00    +0.155 HD
ATOM      3  C   LIG    1       27.471 -21.106   7.495  0.00  0.00    +0.234 C 
ATOM      4  O   LIG    1       27.063 -20.433   8.442  0.00  0.00    -0.274 OA
ENDROOT
BRANCH   1   7
ATOM      5  C   LIG    1       29.211 -18.524   5.758  0.00  0.00    +0.045 C 
ATOM      6  C   LIG    1       30.036 -19.017   6.917  0.00  0.00    -0.029 A 
ATOM      7  C   LIG    1       29.808 -20.274   7.525  0.00  0.00    +0.039 A 
ATOM      8  C   LIG    1       30.638 -20.696   8.587  0.00  0.00    -0.029 A 
ATOM      9  C   LIG    1       30.589 -22.071   9.199  0.00  0.00    +0.045 C 
ATOM     10  C   LIG    1       31.602 -19.807   9.096  0.00  0.00    +0.005 A 
ATOM     11  C   LIG    1       31.787 -18.549   8.533  0.00  0.00    +0.001 A 
ATOM     12  C   LIG    1       31.020 -18.163   7.440  0.00  0.00    +0.005 A 
ENDBRANCH   1   7
BRANCH   3  13
ATOM     13  C   LIG    1       26.548 -22.059   6.691  0.00  0.00    +0.143 C 
ATOM     14  N   LIG    1       25.388 -21.329   6.112  0.00  0.00    -0.295 NA
ATOM     15  C   LIG    1       25.792 -20.283   5.173  0.00  0.00    +0.105 C 
ATOM     16  C   LIG    1       24.442 -22.245   5.458  0.00  0.00    +0.085 C 
ATOM     17  C   LIG    1       23.939 -23.324   6.416  0.00  0.00    +0.015 C 
ATOM     18  C   LIG    1       25.099 -24.114   7.003  0.00  0.00    +0.003 C 
ATOM     19  C   LIG    1       26.095 -23.167   7.656  0.00  0.00    +0.028 C 
ENDBRANCH   3  13
TORSDOF 2
ENDMDL
MODEL 4
REMARK VINA RESULT:      -7.3      1.671      2.185
REMARK  Name = *****
REMARK                            x       y       z     vdW  Elec       q    Type
REMARK                         _______ _______ _______ _____ _____    ______ ____
ROOT
ATOM      1  N   LIG    1       26.383 -20.807   5.623  0.00  0.00    -0.284 N 
ATOM      2  H   LIG    1       26.933 -21.445   5.066  0.00  0.00    +0.155 HD
ATOM      3  C   LIG    1       27.024 -20.369   6.777  0.00  0.00    +0.234 C 
ATOM      4  O   LIG    1       26.458 -20.032   7.816  0.00  0.00    -0.274 OA
ENDROOT
BRANCH   1   7
ATOM      5  C   LIG    1       25.080 -18.945   3.860  0.00  0.00    +0.045 C 
ATOM      6  C   LIG    1       24.327 -19.999   4.627  0.00  0.00    -0.029 A 
ATOM      7  C   LIG    1       24.976 -20.917   5.488  0.00  0.00    +0.039 A 
ATOM      8  C   LIG    1       24.211 -21.861   6.206  0.00  0.00    -0.029 A 
ATOM      9  C   LIG    1       24.775 -22.773   7.264  0.00  0.00    +0.045 C 
ATOM     10  C   LIG    1       22.828 -21.948   5.964  0.00  0.00    +0.005 A 
ATOM     11  C   LIG    1       22.199 -21.082   5.075  0.00  0.00    +0.001 A 
ATOM     12  C   LIG    1       22.941 -20.104   4.423  0.00  0.00    +0.005 A 
ENDBRANCH   1   7
BRANCH   3  13
ATOM     13  C   LIG    1       28.569 -20.388   6.637  0.00  0.00    +0.143 C 
ATOM     14  N   LIG    1       29.230 -20.556   7.959  0.00  0.00    -0.295 NA
ATOM     15  C   LIG    1       28.875 -21.817   8.611  0.00  0.00    +0.105 C 
ATOM     16  C   LIG    1       30.693 -20.446   7.853  0.00  0.00    +0.085 C 
ATOM     17  C   LIG    1       31.121 -19.116   7.234  0.00  0.00    +0.015 C 
ATOM     18  C   LIG    1       30.488 -18.926   5.863  0.00  0.00    +0.003 C 
ATOM     19  C   LIG    1       28.976 -19.067   5.964  0.00  0.00    +0.028 C 
ENDBRANCH   3  13
TORSDOF 2
ENDMDL
MODEL 5
REMARK VINA RESULT:      -7.3      1.324      6.545
REMARK  Name = *****
REMARK                            x       y       z     vdW  Elec       q    Type
REMARK                         _______ _______ _______ _____ _____    ______ ____
ROOT
ATOM      1  N   LIG    1       28.723 -21.065   6.914  0.00  0.00    -0.284 N 
ATOM      2  H   LIG    1       28.801 -21.346   5.948  0.00  0.00    +0.155 HD
ATOM      3  C   LIG    1       27.418 -21.060   7.396  0.00  0.00    +0.234 C 
ATOM      4  O   LIG    1       26.998 -20.330   8.293  0.00  0.00    -0.274 OA
ENDROOT
BRANCH   1   7
ATOM      5  C   LIG    1       30.227 -22.012   9.175  0.00  0.00    +0.045 C 
ATOM      6  C   LIG    1       30.495 -20.683   8.522  0.00  0.00    -0.029 A 
ATOM      7  C   LIG    1       29.755 -20.227   7.405  0.00  0.00    +0.039 A 
ATOM      8  C   LIG    1       30.031 -18.955   6.857  0.00  0.00    -0.029 A 
ATOM      9  C   LIG    1       29.205 -18.306   5.778  0.00  0.00    +0.045 C 
ATOM     10  C   LIG    1       31.116 -18.215   7.359  0.00  0.00    +0.005 A 
ATOM     11  C   LIG    1       31.879 -18.689   8.421  0.00  0.00    +0.001 A 
ATOM     12  C   LIG    1       31.560 -19.908   9.009  0.00  0.00    +0.005 A 
ENDBRANCH   1   7
BRANCH   3  13
ATOM     13  C   LIG    1       26.506 -22.063   6.641  0.00  0.00    +0.143 C 
ATOM     14  N   LIG    1       25.305 -21.387   6.082  0.00  0.00    -0.295 NA
ATOM     15  C   LIG    1       25.644 -20.349   5.108  0.00  0.00    +0.105 C 
ATOM     16  C   LIG    1       24.372 -22.349   5.477  0.00  0.00    +0.085 C 
ATOM     17  C   LIG    1       23.936 -23.423   6.472  0.00  0.00    +0.015 C 
ATOM     18  C   LIG    1       25.140 -24.159   7.041  0.00  0.00    +0.003 C 
ATOM     19  C   LIG    1       26.121 -23.163   7.643  0.00  0.00    +0.028 C 
ENDBRANCH   3  13
TORSDOF 2
ENDMDL
MODEL 6
REMARK VINA RESULT:      -6.9      1.330      2.891
REMARK  Name = *****
REMARK                            x       y       z     vdW  Elec       q    Type
REMARK                         _______ _______ _______ _____ _____    ______ ____
ROOT
ATOM      1  N   LIG    1       26.106 -21.563   7.319  0.00  0.00    -0.284 N 
ATOM      2  H   LIG    1       26.251 -21.271   8.275  0.00  0.00    +0.155 HD
ATOM      3  C   LIG    1       26.734 -20.750   6.381  0.00  0.00    +0.234 C 
ATOM      4  O   LIG    1       26.343 -20.567   5.229  0.00  0.00    -0.274 OA
ENDROOT
BRANCH   1   7
ATOM      5  C   LIG    1       26.404 -24.363   6.739  0.00  0.00    +0.045 C 
ATOM      6  C   LIG    1       25.062 -23.680   6.773  0.00  0.00    -0.029 A 
ATOM      7  C   LIG    1       24.924 -22.302   7.066  0.00  0.00    +0.039 A 
ATOM      8  C   LIG    1       23.642 -21.711   7.049  0.00  0.00    -0.029 A 
ATOM      9  C   LIG    1       23.395 -20.232   7.187  0.00  0.00    +0.045 C 
ATOM     10  C   LIG    1       22.514 -22.529   6.855  0.00  0.00    +0.005 A 
ATOM     11  C   LIG    1       22.648 -23.894   6.623  0.00  0.00    +0.001 A 
ATOM     12  C   LIG    1       23.915 -24.462   6.566  0.00  0.00    +0.005 A 
ENDBRANCH   1   7
BRANCH   3  13
ATOM     13  C   LIG    1       27.988 -20.042   6.959  0.00  0.00    +0.143 C 
ATOM     14  N   LIG    1       28.845 -19.489   5.876  0.00  0.00    -0.295 NA
ATOM     15  C   LIG    1       28.155 -18.480   5.072  0.00  0.00    +0.105 C 
ATOM     16  C   LIG    1       30.097 -18.930   6.407  0.00  0.00    +0.085 C 
ATOM     17  C   LIG    1       30.889 -19.964   7.206  0.00  0.00    +0.015 C 
ATOM     18  C   LIG    1       30.053 -20.528   8.345  0.00  0.00    +0.003 C 
ATOM     19  C   LIG    1       28.743 -21.082   7.803  0.00  0.00    +0.028 C 
ENDBRANCH   3  13
TORSDOF 2
ENDMDL
MODEL 7
REMARK VINA RESULT:      -6.9      2.053      2.470
REMARK  Name = *****
REMARK                            x       y       z     vdW  Elec       q    Type
REMARK                         _______ _______ _______ _____ _____    ______ ____
ROOT
ATOM      1  N   LIG    1       27.053 -20.170   6.787  0.00  0.00    -0.284 N 
ATOM      2  H   LIG    1       27.381 -19.310   6.370  0.00  0.00    +0.155 HD
ATOM      3  C   LIG    1       28.050 -21.124   6.965  0.00  0.00    +0.234 C 
ATOM      4  O   LIG    1       27.872 -22.342   6.965  0.00  0.00    -0.274 OA
ENDROOT
BRANCH   1   7
ATOM      5  C   LIG    1       25.574 -21.131   9.058  0.00  0.00    +0.045 C 
ATOM      6  C   LIG    1       24.951 -20.958   7.698  0.00  0.00    -0.029 A 
ATOM      7  C   LIG    1       25.685 -20.478   6.587  0.00  0.00    +0.039 A 
ATOM      8  C   LIG    1       25.053 -20.369   5.328  0.00  0.00    -0.029 A 
ATOM      9  C   LIG    1       25.774 -20.025   4.052  0.00  0.00    +0.045 C 
ATOM     10  C   LIG    1       23.675 -20.630   5.230  0.00  0.00    +0.005 A 
ATOM     11  C   LIG    1       22.942 -21.048   6.337  0.00  0.00    +0.001 A 
ATOM     12  C   LIG    1       23.580 -21.226   7.559  0.00  0.00    +0.005 A 
ENDBRANCH   1   7
BRANCH   3  13
ATOM     13  C   LIG    1       29.455 -20.487   7.126  0.00  0.00    +0.143 C 
ATOM     14  N   LIG    1       29.935 -20.584   8.531  0.00  0.00    -0.295 NA
ATOM     15  C   LIG    1       30.073 -21.968   8.985  0.00  0.00    +0.105 C 
ATOM     16  C   LIG    1       31.207 -19.870   8.721  0.00  0.00    +0.085 C 
ATOM     17  C   LIG    1       31.101 -18.400   8.319  0.00  0.00    +0.015 C 
ATOM     18  C   LIG    1       30.642 -18.263   6.874  0.00  0.00    +0.003 C 
ATOM     19  C   LIG    1       29.341 -19.024   6.667  0.00  0.00    +0.028 C 
ENDBRANCH   3  13
TORSDOF 2
ENDMDL
MODEL 8
REMARK VINA RESULT:      -6.8      2.110      3.267
REMARK  Name = *****
REMARK                            x       y       z     vdW  Elec       q    Type
REMARK                         _______ _______ _______ _____ _____    ______ ____
ROOT
ATOM      1  N   LIG    1       26.717 -20.335   5.143  0.00  0.00    -0.284 N 
ATOM      2  H   LIG    1       27.312 -20.916   4.570  0.00  0.00    +0.155 HD
ATOM      3  C   LIG    1       27.180 -20.165   6.443  0.00  0.00    +0.234 C 
ATOM      4  O   LIG    1       26.469 -19.961   7.427  0.00  0.00    -0.274 OA
ENDROOT
BRANCH   1   7
ATOM      5  C   LIG    1       25.062 -22.550   5.934  0.00  0.00    +0.045 C 
ATOM      6  C   LIG    1       24.530 -21.378   5.153  0.00  0.00    -0.029 A 
ATOM      7  C   LIG    1       25.350 -20.288   4.773  0.00  0.00    +0.039 A 
ATOM      8  C   LIG    1       24.800 -19.233   4.012  0.00  0.00    -0.029 A 
ATOM      9  C   LIG    1       25.611 -18.111   3.421  0.00  0.00    +0.045 C 
ATOM     10  C   LIG    1       23.419 -19.230   3.746  0.00  0.00    +0.005 A 
ATOM     11  C   LIG    1       22.604 -20.274   4.168  0.00  0.00    +0.001 A 
ATOM     12  C   LIG    1       23.158 -21.349   4.854  0.00  0.00    +0.005 A 
ENDBRANCH   1   7
BRANCH   3  13
ATOM     13  C   LIG    1       28.722 -20.304   6.544  0.00  0.00    +0.143 C 
ATOM     14  N   LIG    1       29.146 -20.644   7.929  0.00  0.00    -0.295 NA
ATOM     15  C   LIG    1       28.602 -21.922   8.387  0.00  0.00    +0.105 C 
ATOM     16  C   LIG    1       30.610 -20.650   8.063  0.00  0.00    +0.085 C 
ATOM     17  C   LIG    1       31.226 -19.313   7.655  0.00  0.00    +0.015 C 
ATOM     18  C   LIG    1       30.839 -18.948   6.229  0.00  0.00    +0.003 C 
ATOM     19  C   LIG    1       29.325 -18.968   6.080  0.00  0.00    +0.028 C 
ENDBRANCH   3  13
TORSDOF 2
ENDMDL
MODEL 9
REMARK VINA RESULT:      -6.8      1.329      2.047
REMARK  Name = *****
REMARK                            x       y       z     vdW  Elec       q    Type
REMARK                         _______ _______ _______ _____ _____    ______ ____
ROOT
ATOM      1  N   LIG    1       26.121 -21.663   7.320  0.00  0.00    -0.284 N 
ATOM      2  H   LIG    1       26.280 -21.377   8.275  0.00  0.00    +0.155 HD
ATOM      3  C   LIG    1       26.695 -20.819   6.375  0.00  0.00    +0.234 C 
ATOM      4  O   LIG    1       26.268 -20.637   5.235  0.00  0.00    -0.274 OA
ENDROOT
BRANCH   1   7
ATOM      5  C   LIG    1       23.579 -20.340   7.567  0.00  0.00    +0.045 C 
ATOM      6  C   LIG    1       23.704 -21.799   7.215  0.00  0.00    -0.029 A 
ATOM      7  C   LIG    1       24.959 -22.441   7.089  0.00  0.00    +0.039 A 
ATOM      8  C   LIG    1       25.010 -23.820   6.789  0.00  0.00    -0.029 A 
ATOM      9  C   LIG    1       26.276 -24.635   6.789  0.00  0.00    +0.045 C 
ATOM     10  C   LIG    1       23.814 -24.503   6.508  0.00  0.00    +0.005 A 
ATOM     11  C   LIG    1       22.584 -23.857   6.577  0.00  0.00    +0.001 A 
ATOM     12  C   LIG    1       22.528 -22.518   6.944  0.00  0.00    +0.005 A 
ENDBRANCH   1   7
BRANCH   3  13
ATOM     13  C   LIG    1       27.938 -20.073   6.928  0.00  0.00    +0.143 C 
ATOM     14  N   LIG    1       28.772 -19.520   5.827  0.00  0.00    -0.295 NA
ATOM     15  C   LIG    1       28.053 -18.542   5.012  0.00  0.00    +0.105 C 
ATOM     16  C   LIG    1       30.017 -18.925   6.335  0.00  0.00    +0.085 C 
ATOM     17  C   LIG    1       30.839 -19.926   7.145  0.00  0.00    +0.015 C 
ATOM     18  C   LIG    1       30.026 -20.489   8.302  0.00  0.00    +0.003 C 
ATOM     19  C   LIG    1       28.723 -21.081   7.783  0.00  0.00    +0.028 C 
ENDBRANCH   3  13
TORSDOF 2
ENDMDL
