MODEL 1
REMARK VINA RESULT:      -1.0      0.000      0.000
REMARK  Name = *****
REMARK                            x       y       z     vdW  Elec       q    Type
REMARK                         _______ _______ _______ _____ _____    ______ ____
ROOT
ATOM      1  C   LIG    1       22.581 -16.150   4.082  0.00  0.00    +0.158 C 
ATOM      2  N   LIG    1       24.026 -15.835   4.236  0.00  0.00    -0.197 N 
ATOM      3  S   LIG    1       24.308 -14.161   4.141  0.00  0.00    +0.076 S 
ATOM      4  O   LIG    1       23.773 -13.527   5.324  0.00  0.00    -0.150 OA
ATOM      5  O   LIG    1       23.993 -13.717   2.803  0.00  0.00    -0.150 OA
ATOM      6  C   LIG    1       25.990 -13.895   4.252  0.00  0.00    +0.128 A 
ATOM      7  C   LIG    1       26.859 -14.895   3.907  0.00  0.00    +0.089 A 
ATOM      8  S   LIG    1       28.481 -14.362   4.018  0.00  0.00    -0.071 S 
ATOM      9  C   LIG    1       27.988 -12.820   4.528  0.00  0.00    +0.081 A 
ATOM     10 CL   LIG    1       29.166 -11.617   4.862  0.00  0.00    -0.076 Cl
ATOM     11  C   LIG    1       26.514 -16.232   3.482  0.00  0.00    +0.222 C 
ATOM     12  O   LIG    1       27.335 -17.000   2.973  0.00  0.00    -0.284 OA
ATOM     13  C   LIG    1       26.627 -12.679   4.618  0.00  0.00    +0.057 A 
ATOM     14  C   LIG    1       25.082 -16.716   3.716  0.00  0.00    +0.156 C 
ATOM     15  C   LIG    1       24.824 -18.043   3.526  0.00  0.00    +0.210 C 
ENDROOT
BRANCH  15  16
ATOM     16  N   LIG    1       23.651 -18.720   3.790  0.00  0.00    -0.269 N 
ATOM     17  H   LIG    1       23.378 -19.283   2.981  0.00  0.00    +0.157 HD
BRANCH  16  18
ATOM     18  C   LIG    1       23.524 -19.652   4.843  0.00  0.00    +0.125 A 
ATOM     19  N   LIG    1       24.621 -19.802   5.618  0.00  0.00    -0.240 NA
ATOM     20  C   LIG    1       24.586 -20.743   6.586  0.00  0.00    +0.113 A 
ATOM     21  C   LIG    1       23.501 -21.568   6.824  0.00  0.00    +0.020 A 
ATOM     22  C   LIG    1       22.380 -21.410   6.023  0.00  0.00    +0.005 A 
ATOM     23  C   LIG    1       22.390 -20.442   5.020  0.00  0.00    +0.044 A 
ENDBRANCH  16  18
ENDBRANCH  15  16
BRANCH  15  24
ATOM     24  O   LIG    1       25.744 -18.911   2.960  0.00  0.00    -0.494 OA
ATOM     25  H   LIG    1       25.733 -18.827   1.981  0.00  0.00    +0.293 HD
ENDBRANCH  15  24
TORSDOF 3
ENDMDL
