MODEL 1
REMARK VINA RESULT:       3.3      0.000      0.000
REMARK  Name = *****
REMARK                            x       y       z     vdW  Elec       q    Type
REMARK                         _______ _______ _______ _____ _____    ______ ____
ROOT
ATOM      1  C   LIG    1       26.926 -19.875   4.711  0.00  0.00    +0.169 C 
ATOM      2  C   LIG    1       27.276 -18.636   3.759  0.00  0.00    +0.175 C 
ATOM      3  C   LIG    1       28.181 -17.421   4.240  0.00  0.00    +0.169 C 
ATOM      4  C   LIG    1       29.163 -17.895   5.355  0.00  0.00    +0.084 C 
ATOM      5  C   LIG    1       28.824 -19.096   6.209  0.00  0.00    +0.042 C 
ATOM      6  C   LIG    1       28.272 -20.237   5.421  0.00  0.00    +0.084 C 
ENDROOT
BRANCH   4   7
ATOM      7  N   LIG    1       29.358 -16.964   6.438  0.00  0.00    -0.325 NA
ATOM      8  H   LIG    1       30.344 -16.679   6.476  0.00  0.00    +0.118 HD
ATOM      9  H   LIG    1       28.820 -16.133   6.203  0.00  0.00    +0.118 HD
ENDBRANCH   4   7
BRANCH   6  10
ATOM     10  N   LIG    1       28.332 -21.504   6.152  0.00  0.00    -0.325 NA
ATOM     11  H   LIG    1       28.940 -21.536   6.916  0.00  0.00    +0.118 HD
ATOM     12  H   LIG    1       28.535 -22.302   5.500  0.00  0.00    +0.118 HD
ENDBRANCH   6  10
BRANCH   2  13
ATOM     13  O   LIG    1       26.230 -18.264   2.867  0.00  0.00    -0.387 OA
ATOM     14  H   LIG    1       26.545 -17.495   2.360  0.00  0.00    +0.210 HD
ENDBRANCH   2  13
BRANCH   1  15
ATOM     15  O   LIG    1       25.755 -19.721   5.575  0.00  0.00    -0.342 OA
BRANCH  15  18
ATOM     16  C   LIG    1       22.449 -18.759   4.432  0.00  0.00    +0.138 C 
ATOM     17  O   LIG    1       23.836 -19.059   4.160  0.00  0.00    -0.345 OA
ATOM     18  C   LIG    1       24.467 -20.085   4.957  0.00  0.00    +0.268 C 
ATOM     19  C   LIG    1       23.519 -20.731   6.026  0.00  0.00    +0.107 C 
ATOM     20  C   LIG    1       22.688 -19.719   6.788  0.00  0.00    +0.026 C 
ATOM     21  C   LIG    1       22.287 -18.537   5.934  0.00  0.00    +0.035 C 
BRANCH  19  22
ATOM     22  N   LIG    1       24.105 -21.572   7.062  0.00  0.00    -0.323 NA
ATOM     23  H   LIG    1       23.386 -22.178   7.461  0.00  0.00    +0.119 HD
ATOM     24  H   LIG    1       24.782 -22.146   6.576  0.00  0.00    +0.119 HD
ENDBRANCH  19  22
BRANCH  16  25
ATOM     25  C   LIG    1       21.292 -19.602   3.696  0.00  0.00    +0.079 C 
ATOM     26  C   LIG    1       21.286 -21.066   4.171  0.00  0.00    +0.026 C 
BRANCH  25  28
ATOM     27  C   LIG    1       19.549 -18.227   2.596  0.00  0.00    +0.101 C 
ATOM     28  N   LIG    1       19.915 -19.071   3.738  0.00  0.00    -0.314 NA
ATOM     29  H   LIG    1       19.253 -19.842   3.774  0.00  0.00    +0.122 HD
ENDBRANCH  25  28
ENDBRANCH  16  25
ENDBRANCH  15  18
ENDBRANCH   1  15
BRANCH   3  30
ATOM     30  O   LIG    1       27.563 -16.119   4.527  0.00  0.00    -0.341 OA
BRANCH  30  31
ATOM     31  C   LIG    1       27.427 -15.208   3.373  0.00  0.00    +0.281 C 
ATOM     32  C   LIG    1       27.531 -13.673   3.666  0.00  0.00    +0.190 C 
ATOM     33  C   LIG    1       26.216 -13.000   4.269  0.00  0.00    +0.121 C 
ATOM     34  C   LIG    1       24.952 -13.636   3.627  0.00  0.00    +0.104 C 
ATOM     35  C   LIG    1       24.225 -14.675   4.505  0.00  0.00    +0.045 C 
ATOM     36  C   LIG    1       25.377 -14.347   2.336  0.00  0.00    +0.199 C 
ATOM     37  O   LIG    1       26.214 -15.485   2.621  0.00  0.00    -0.346 OA
BRANCH  33  38
ATOM     38  N   LIG    1       26.080 -12.831   5.731  0.00  0.00    -0.311 NA
ATOM     39  H   LIG    1       26.285 -11.872   6.004  0.00  0.00    +0.122 HD
ATOM     40  C   LIG    1       26.880 -13.672   6.602  0.00  0.00    +0.101 C 
ENDBRANCH  33  38
BRANCH  32  41
ATOM     41  O   LIG    1       28.737 -13.242   4.304  0.00  0.00    -0.385 OA
ATOM     42  H   LIG    1       29.434 -13.181   3.629  0.00  0.00    +0.210 HD
ENDBRANCH  32  41
BRANCH  34  43
ATOM     43  O   LIG    1       24.023 -12.590   3.297  0.00  0.00    -0.385 OA
ATOM     44  H   LIG    1       24.509 -11.893   2.817  0.00  0.00    +0.210 HD
ENDBRANCH  34  43
ENDBRANCH  30  31
ENDBRANCH   3  30
TORSDOF 13
ENDMDL
MODEL 2
REMARK VINA RESULT:       4.7      1.286      1.535
REMARK  Name = *****
REMARK                            x       y       z     vdW  Elec       q    Type
REMARK                         _______ _______ _______ _____ _____    ______ ____
ROOT
ATOM      1  C   LIG    1       26.724 -19.431   4.605  0.00  0.00    +0.169 C 
ATOM      2  C   LIG    1       27.291 -18.161   3.812  0.00  0.00    +0.175 C 
ATOM      3  C   LIG    1       28.257 -17.096   4.491  0.00  0.00    +0.169 C 
ATOM      4  C   LIG    1       29.067 -17.766   5.644  0.00  0.00    +0.084 C 
ATOM      5  C   LIG    1       28.523 -18.991   6.343  0.00  0.00    +0.042 C 
ATOM      6  C   LIG    1       27.946 -19.995   5.401  0.00  0.00    +0.084 C 
ENDROOT
BRANCH   4   7
ATOM      7  N   LIG    1       29.238 -16.956   6.823  0.00  0.00    -0.325 NA
ATOM      8  H   LIG    1       28.785 -16.044   6.685  0.00  0.00    +0.118 HD
ATOM      9  H   LIG    1       28.733 -17.426   7.572  0.00  0.00    +0.118 HD
ENDBRANCH   4   7
BRANCH   6  10
ATOM     10  N   LIG    1       27.804 -21.318   6.011  0.00  0.00    -0.325 NA
ATOM     11  H   LIG    1       27.757 -22.076   5.397  0.00  0.00    +0.118 HD
ATOM     12  H   LIG    1       26.986 -21.340   6.670  0.00  0.00    +0.118 HD
ENDBRANCH   6  10
BRANCH   2  13
ATOM     13  O   LIG    1       26.386 -17.604   2.865  0.00  0.00    -0.387 OA
ATOM     14  H   LIG    1       26.801 -16.797   2.511  0.00  0.00    +0.210 HD
ENDBRANCH   2  13
BRANCH   1  15
ATOM     15  O   LIG    1       25.490 -19.225   5.364  0.00  0.00    -0.342 OA
BRANCH  15  18
ATOM     16  C   LIG    1       21.952 -19.916   4.957  0.00  0.00    +0.138 C 
ATOM     17  O   LIG    1       23.027 -19.010   5.293  0.00  0.00    -0.345 OA
ATOM     18  C   LIG    1       24.261 -19.135   4.555  0.00  0.00    +0.268 C 
ATOM     19  C   LIG    1       24.243 -20.269   3.472  0.00  0.00    +0.107 C 
ATOM     20  C   LIG    1       23.633 -21.565   3.966  0.00  0.00    +0.026 C 
ATOM     21  C   LIG    1       22.504 -21.339   4.947  0.00  0.00    +0.035 C 
BRANCH  19  22
ATOM     22  N   LIG    1       25.502 -20.671   2.860  0.00  0.00    -0.323 NA
ATOM     23  H   LIG    1       25.947 -21.393   3.429  0.00  0.00    +0.119 HD
ATOM     24  H   LIG    1       25.238 -21.074   1.970  0.00  0.00    +0.119 HD
ENDBRANCH  19  22
BRANCH  16  25
ATOM     25  C   LIG    1       20.922 -19.530   3.782  0.00  0.00    +0.079 C 
ATOM     26  C   LIG    1       19.585 -20.275   3.952  0.00  0.00    +0.026 C 
BRANCH  25  28
ATOM     27  C   LIG    1       19.526 -17.833   2.639  0.00  0.00    +0.101 C 
ATOM     28  N   LIG    1       20.654 -18.099   3.537  0.00  0.00    -0.314 NA
ATOM     29  H   LIG    1       20.461 -17.632   4.420  0.00  0.00    +0.122 HD
ENDBRANCH  25  28
ENDBRANCH  16  25
ENDBRANCH  15  18
ENDBRANCH   1  15
BRANCH   3  30
ATOM     30  O   LIG    1       27.745 -15.763   4.841  0.00  0.00    -0.341 OA
BRANCH  30  31
ATOM     31  C   LIG    1       27.880 -14.732   3.793  0.00  0.00    +0.281 C 
ATOM     32  C   LIG    1       27.587 -13.252   4.214  0.00  0.00    +0.190 C 
ATOM     33  C   LIG    1       26.044 -12.859   4.311  0.00  0.00    +0.121 C 
ATOM     34  C   LIG    1       25.243 -13.573   3.186  0.00  0.00    +0.104 C 
ATOM     35  C   LIG    1       24.446 -14.815   3.638  0.00  0.00    +0.045 C 
ATOM     36  C   LIG    1       26.236 -14.035   2.111  0.00  0.00    +0.199 C 
ATOM     37  O   LIG    1       27.100 -15.071   2.613  0.00  0.00    -0.346 OA
BRANCH  33  38
ATOM     38  N   LIG    1       25.350 -12.913   5.615  0.00  0.00    -0.311 NA
ATOM     39  H   LIG    1       24.733 -13.722   5.662  0.00  0.00    +0.122 HD
ATOM     40  C   LIG    1       24.545 -11.775   6.019  0.00  0.00    +0.101 C 
ENDBRANCH  33  38
BRANCH  32  41
ATOM     41  O   LIG    1       28.373 -12.747   5.297  0.00  0.00    -0.385 OA
ATOM     42  H   LIG    1       29.262 -13.136   5.236  0.00  0.00    +0.210 HD
ENDBRANCH  32  41
BRANCH  34  43
ATOM     43  O   LIG    1       24.327 -12.633   2.600  0.00  0.00    -0.385 OA
ATOM     44  H   LIG    1       24.831 -11.838   2.345  0.00  0.00    +0.210 HD
ENDBRANCH  34  43
ENDBRANCH  30  31
ENDBRANCH   3  30
TORSDOF 13
ENDMDL
