MODEL 1
REMARK VINA RESULT:      -4.8      0.000      0.000
REMARK  Name = *****
REMARK                            x       y       z     vdW  Elec       q    Type
REMARK                         _______ _______ _______ _____ _____    ______ ____
ROOT
ATOM      1  C   LIG    1       25.858 -14.347   3.676  0.00  0.00    +0.036 C 
ATOM      2  C   LIG    1       24.389 -14.600   4.078  0.00  0.00    +0.018 C 
ENDROOT
BRANCH   1   3
ATOM      3  C   LIG    1       25.896 -13.464   2.368  0.00  0.00    +0.013 C 
BRANCH   3   5
ATOM      4  C   LIG    1       24.276 -11.448   2.290  0.00  0.00    +0.004 C 
ATOM      5  C   LIG    1       24.527 -12.903   1.902  0.00  0.00    -0.003 C 
ENDBRANCH   3   5
ENDBRANCH   1   3
BRANCH   1   6
ATOM      6  C   LIG    1       26.597 -13.618   4.829  0.00  0.00    +0.243 C 
BRANCH   6   7
ATOM      7  O   LIG    1       27.333 -12.475   4.349  0.00  0.00    -0.450 OA
BRANCH   7   8
ATOM      8  C   LIG    1       28.683 -12.576   4.375  0.00  0.00    +0.398 C 
ATOM      9  O   LIG    1       29.382 -13.224   3.629  0.00  0.00    -0.227 OA
ATOM     10  N   LIG    1       29.177 -11.811   5.384  0.00  0.00    -0.295 N 
ATOM     11  H   LIG    1       30.171 -11.636   5.367  0.00  0.00    +0.148 HD
ATOM     12  H   LIG    1       28.556 -11.161   5.820  0.00  0.00    +0.148 HD
ENDBRANCH   7   8
ENDBRANCH   6   7
ENDBRANCH   1   6
BRANCH   1  13
ATOM     13  C   LIG    1       26.612 -15.704   3.485  0.00  0.00    +0.243 C 
BRANCH  13  14
ATOM     14  O   LIG    1       25.809 -16.746   2.912  0.00  0.00    -0.450 OA
BRANCH  14  15
ATOM     15  C   LIG    1       25.980 -17.973   3.476  0.00  0.00    +0.398 C 
ATOM     16  O   LIG    1       25.221 -18.912   3.437  0.00  0.00    -0.227 OA
ATOM     17  N   LIG    1       27.196 -18.029   4.073  0.00  0.00    -0.295 N 
ATOM     18  H   LIG    1       27.519 -18.941   4.363  0.00  0.00    +0.148 HD
ATOM     19  H   LIG    1       27.848 -17.283   3.913  0.00  0.00    +0.148 HD
ENDBRANCH  14  15
ENDBRANCH  13  14
ENDBRANCH   1  13
TORSDOF 8
ENDMDL
MODEL 2
REMARK VINA RESULT:      -4.8      1.038      5.072
REMARK  Name = *****
REMARK                            x       y       z     vdW  Elec       q    Type
REMARK                         _______ _______ _______ _____ _____    ______ ____
ROOT
ATOM      1  C   LIG    1       26.090 -14.831   3.511  0.00  0.00    +0.036 C 
ATOM      2  C   LIG    1       26.352 -14.110   2.172  0.00  0.00    +0.018 C 
ENDROOT
BRANCH   1   3
ATOM      3  C   LIG    1       24.676 -14.403   4.066  0.00  0.00    +0.013 C 
BRANCH   3   5
ATOM      4  C   LIG    1       23.876 -11.943   3.991  0.00  0.00    +0.004 C 
ATOM      5  C   LIG    1       23.956 -13.285   3.267  0.00  0.00    -0.003 C 
ENDBRANCH   3   5
ENDBRANCH   1   3
BRANCH   1   6
ATOM      6  C   LIG    1       26.132 -16.366   3.296  0.00  0.00    +0.243 C 
BRANCH   6   7
ATOM      7  O   LIG    1       24.848 -16.973   3.542  0.00  0.00    -0.450 OA
BRANCH   7   8
ATOM      8  C   LIG    1       24.819 -18.326   3.578  0.00  0.00    +0.398 C 
ATOM      9  O   LIG    1       23.842 -19.038   3.511  0.00  0.00    -0.227 OA
ATOM     10  N   LIG    1       26.085 -18.805   3.691  0.00  0.00    -0.295 N 
ATOM     11  H   LIG    1       26.208 -19.791   3.512  0.00  0.00    +0.148 HD
ATOM     12  H   LIG    1       26.839 -18.165   3.541  0.00  0.00    +0.148 HD
ENDBRANCH   7   8
ENDBRANCH   6   7
ENDBRANCH   1   6
BRANCH   1  13
ATOM     13  C   LIG    1       27.234 -14.518   4.531  0.00  0.00    +0.243 C 
BRANCH  13  14
ATOM     14  O   LIG    1       27.470 -13.117   4.738  0.00  0.00    -0.450 OA
BRANCH  14  15
ATOM     15  C   LIG    1       28.743 -12.709   4.485  0.00  0.00    +0.398 C 
ATOM     16  O   LIG    1       29.458 -13.052   3.574  0.00  0.00    -0.227 OA
ATOM     17  N   LIG    1       29.110 -11.779   5.402  0.00  0.00    -0.295 N 
ATOM     18  H   LIG    1       29.957 -11.264   5.213  0.00  0.00    +0.148 HD
ATOM     19  H   LIG    1       28.410 -11.407   6.017  0.00  0.00    +0.148 HD
ENDBRANCH  14  15
ENDBRANCH  13  14
ENDBRANCH   1  13
TORSDOF 8
ENDMDL
MODEL 3
REMARK VINA RESULT:      -4.6      2.514      4.107
REMARK  Name = *****
REMARK                            x       y       z     vdW  Elec       q    Type
REMARK                         _______ _______ _______ _____ _____    ______ ____
ROOT
ATOM      1  C   LIG    1       26.122 -14.834   3.568  0.00  0.00    +0.036 C 
ATOM      2  C   LIG    1       26.414 -14.025   2.286  0.00  0.00    +0.018 C 
ENDROOT
BRANCH   1   3
ATOM      3  C   LIG    1       26.357 -16.368   3.281  0.00  0.00    +0.013 C 
BRANCH   3   5
ATOM      4  C   LIG    1       25.449 -18.778   3.535  0.00  0.00    +0.004 C 
ATOM      5  C   LIG    1       25.127 -17.286   3.507  0.00  0.00    -0.003 C 
ENDBRANCH   3   5
ENDBRANCH   1   3
BRANCH   1   6
ATOM      6  C   LIG    1       27.057 -14.360   4.710  0.00  0.00    +0.243 C 
BRANCH   6   7
ATOM      7  O   LIG    1       27.386 -12.962   4.582  0.00  0.00    -0.450 OA
BRANCH   7   8
ATOM      8  C   LIG    1       28.700 -12.662   4.450  0.00  0.00    +0.398 C 
ATOM      9  O   LIG    1       29.455 -13.054   3.589  0.00  0.00    -0.227 OA
ATOM     10  N   LIG    1       29.076 -11.817   5.445  0.00  0.00    -0.295 N 
ATOM     11  H   LIG    1       29.968 -11.358   5.328  0.00  0.00    +0.148 HD
ATOM     12  H   LIG    1       28.355 -11.392   5.991  0.00  0.00    +0.148 HD
ENDBRANCH   7   8
ENDBRANCH   6   7
ENDBRANCH   1   6
BRANCH   1  13
ATOM     13  C   LIG    1       24.668 -14.552   4.071  0.00  0.00    +0.243 C 
BRANCH  13  14
ATOM     14  O   LIG    1       23.902 -13.702   3.205  0.00  0.00    -0.450 OA
BRANCH  14  15
ATOM     15  C   LIG    1       23.982 -12.374   3.492  0.00  0.00    +0.398 C 
ATOM     16  O   LIG    1       23.887 -11.447   2.723  0.00  0.00    -0.227 OA
ATOM     17  N   LIG    1       24.137 -12.211   4.830  0.00  0.00    -0.295 N 
ATOM     18  H   LIG    1       24.021 -11.274   5.191  0.00  0.00    +0.148 HD
ATOM     19  H   LIG    1       24.025 -13.008   5.429  0.00  0.00    +0.148 HD
ENDBRANCH  14  15
ENDBRANCH  13  14
ENDBRANCH   1  13
TORSDOF 8
ENDMDL
MODEL 4
REMARK VINA RESULT:      -4.5      3.358      6.458
REMARK  Name = *****
REMARK                            x       y       z     vdW  Elec       q    Type
REMARK                         _______ _______ _______ _____ _____    ______ ____
ROOT
ATOM      1  C   LIG    1       24.772 -19.746   3.876  0.00  0.00    +0.036 C 
ATOM      2  C   LIG    1       24.464 -20.918   2.921  0.00  0.00    +0.018 C 
ENDROOT
BRANCH   1   3
ATOM      3  C   LIG    1       23.423 -19.031   4.278  0.00  0.00    +0.013 C 
BRANCH   3   5
ATOM      4  C   LIG    1       21.920 -20.992   5.046  0.00  0.00    +0.004 C 
ATOM      5  C   LIG    1       22.633 -19.699   5.433  0.00  0.00    -0.003 C 
ENDBRANCH   3   5
ENDBRANCH   1   3
BRANCH   1   6
ATOM      6  C   LIG    1       25.487 -20.279   5.145  0.00  0.00    +0.243 C 
BRANCH   6   7
ATOM      7  O   LIG    1       26.836 -19.781   5.245  0.00  0.00    -0.450 OA
BRANCH   7   8
ATOM      8  C   LIG    1       27.600 -20.307   6.231  0.00  0.00    +0.398 C 
ATOM      9  O   LIG    1       28.599 -19.827   6.716  0.00  0.00    -0.227 OA
ATOM     10  N   LIG    1       27.070 -21.492   6.634  0.00  0.00    -0.295 N 
ATOM     11  H   LIG    1       27.425 -21.869   7.500  0.00  0.00    +0.148 HD
ATOM     12  H   LIG    1       26.146 -21.716   6.324  0.00  0.00    +0.148 HD
ENDBRANCH   7   8
ENDBRANCH   6   7
ENDBRANCH   1   6
BRANCH   1  13
ATOM     13  C   LIG    1       25.782 -18.753   3.212  0.00  0.00    +0.243 C 
BRANCH  13  14
ATOM     14  O   LIG    1       25.414 -17.371   3.335  0.00  0.00    -0.450 OA
BRANCH  14  15
ATOM     15  C   LIG    1       26.460 -16.500   3.330  0.00  0.00    +0.398 C 
ATOM     16  O   LIG    1       26.457 -15.349   2.964  0.00  0.00    -0.227 OA
ATOM     17  N   LIG    1       27.551 -17.102   3.865  0.00  0.00    -0.295 N 
ATOM     18  H   LIG    1       28.335 -16.506   4.090  0.00  0.00    +0.148 HD
ATOM     19  H   LIG    1       27.439 -17.992   4.315  0.00  0.00    +0.148 HD
ENDBRANCH  14  15
ENDBRANCH  13  14
ENDBRANCH   1  13
TORSDOF 8
ENDMDL
MODEL 5
REMARK VINA RESULT:      -4.4      2.510      3.471
REMARK  Name = *****
REMARK                            x       y       z     vdW  Elec       q    Type
REMARK                         _______ _______ _______ _____ _____    ______ ____
ROOT
ATOM      1  C   LIG    1       26.224 -14.754   3.494  0.00  0.00    +0.036 C 
ATOM      2  C   LIG    1       26.384 -14.049   2.130  0.00  0.00    +0.018 C 
ENDROOT
BRANCH   1   3
ATOM      3  C   LIG    1       27.411 -14.328   4.443  0.00  0.00    +0.013 C 
BRANCH   3   5
ATOM      4  C   LIG    1       28.816 -12.173   4.720  0.00  0.00    +0.004 C 
ATOM      5  C   LIG    1       28.443 -13.351   3.823  0.00  0.00    -0.003 C 
ENDBRANCH   3   5
ENDBRANCH   1   3
BRANCH   1   6
ATOM      6  C   LIG    1       24.867 -14.357   4.132  0.00  0.00    +0.243 C 
BRANCH   6   7
ATOM      7  O   LIG    1       24.083 -13.535   3.245  0.00  0.00    -0.450 OA
BRANCH   7   8
ATOM      8  C   LIG    1       23.897 -12.248   3.625  0.00  0.00    +0.398 C 
ATOM      9  O   LIG    1       23.825 -11.824   4.756  0.00  0.00    -0.227 OA
ATOM     10  N   LIG    1       23.810 -11.457   2.523  0.00  0.00    -0.295 N 
ATOM     11  H   LIG    1       23.886 -10.463   2.680  0.00  0.00    +0.148 HD
ATOM     12  H   LIG    1       24.074 -11.854   1.645  0.00  0.00    +0.148 HD
ENDBRANCH   7   8
ENDBRANCH   6   7
ENDBRANCH   1   6
BRANCH   1  13
ATOM     13  C   LIG    1       26.160 -16.305   3.302  0.00  0.00    +0.243 C 
BRANCH  13  14
ATOM     14  O   LIG    1       24.864 -16.874   3.542  0.00  0.00    -0.450 OA
BRANCH  14  15
ATOM     15  C   LIG    1       24.838 -18.234   3.584  0.00  0.00    +0.398 C 
ATOM     16  O   LIG    1       23.870 -18.954   3.518  0.00  0.00    -0.227 OA
ATOM     17  N   LIG    1       26.107 -18.708   3.659  0.00  0.00    -0.295 N 
ATOM     18  H   LIG    1       26.233 -19.698   3.506  0.00  0.00    +0.148 HD
ATOM     19  H   LIG    1       26.869 -18.069   3.526  0.00  0.00    +0.148 HD
ENDBRANCH  14  15
ENDBRANCH  13  14
ENDBRANCH   1  13
TORSDOF 8
ENDMDL
MODEL 6
REMARK VINA RESULT:      -4.3      0.940      4.783
REMARK  Name = *****
REMARK                            x       y       z     vdW  Elec       q    Type
REMARK                         _______ _______ _______ _____ _____    ______ ____
ROOT
ATOM      1  C   LIG    1       25.728 -13.864   3.381  0.00  0.00    +0.036 C 
ATOM      2  C   LIG    1       26.027 -12.908   2.206  0.00  0.00    +0.018 C 
ENDROOT
BRANCH   1   3
ATOM      3  C   LIG    1       24.180 -14.174   3.420  0.00  0.00    +0.013 C 
BRANCH   3   5
ATOM      4  C   LIG    1       22.695 -15.770   4.814  0.00  0.00    +0.004 C 
ATOM      5  C   LIG    1       23.609 -14.547   4.813  0.00  0.00    -0.003 C 
ENDBRANCH   3   5
ENDBRANCH   1   3
BRANCH   1   6
ATOM      6  C   LIG    1       26.527 -15.181   3.201  0.00  0.00    +0.243 C 
BRANCH   6   7
ATOM      7  O   LIG    1       25.656 -16.299   2.934  0.00  0.00    -0.450 OA
BRANCH   7   8
ATOM      8  C   LIG    1       26.070 -17.505   3.390  0.00  0.00    +0.398 C 
ATOM      9  O   LIG    1       25.423 -18.526   3.444  0.00  0.00    -0.227 OA
ATOM     10  N   LIG    1       27.367 -17.421   3.785  0.00  0.00    -0.295 N 
ATOM     11  H   LIG    1       27.845 -18.297   3.939  0.00  0.00    +0.148 HD
ATOM     12  H   LIG    1       27.880 -16.604   3.525  0.00  0.00    +0.148 HD
ENDBRANCH   7   8
ENDBRANCH   6   7
ENDBRANCH   1   6
BRANCH   1  13
ATOM     13  C   LIG    1       26.232 -13.247   4.727  0.00  0.00    +0.243 C 
BRANCH  13  14
ATOM     14  O   LIG    1       27.546 -13.676   5.113  0.00  0.00    -0.450 OA
BRANCH  14  15
ATOM     15  C   LIG    1       28.559 -12.885   4.663  0.00  0.00    +0.398 C 
ATOM     16  O   LIG    1       29.124 -12.948   3.598  0.00  0.00    -0.227 OA
ATOM     17  N   LIG    1       28.833 -11.933   5.590  0.00  0.00    -0.295 N 
ATOM     18  H   LIG    1       29.432 -11.173   5.298  0.00  0.00    +0.148 HD
ATOM     19  H   LIG    1       28.209 -11.823   6.368  0.00  0.00    +0.148 HD
ENDBRANCH  14  15
ENDBRANCH  13  14
ENDBRANCH   1  13
TORSDOF 8
ENDMDL
MODEL 7
REMARK VINA RESULT:      -3.9      2.370      5.007
REMARK  Name = *****
REMARK                            x       y       z     vdW  Elec       q    Type
REMARK                         _______ _______ _______ _____ _____    ______ ____
ROOT
ATOM      1  C   LIG    1       26.418 -14.093   3.509  0.00  0.00    +0.036 C 
ATOM      2  C   LIG    1       26.141 -13.816   5.003  0.00  0.00    +0.018 C 
ENDROOT
BRANCH   1   3
ATOM      3  C   LIG    1       27.472 -13.048   2.972  0.00  0.00    +0.013 C 
BRANCH   3   5
ATOM      4  C   LIG    1       28.821 -12.170   4.998  0.00  0.00    +0.004 C 
ATOM      5  C   LIG    1       28.826 -13.018   3.727  0.00  0.00    -0.003 C 
ENDBRANCH   3   5
ENDBRANCH   1   3
BRANCH   1   6
ATOM      6  C   LIG    1       26.964 -15.534   3.337  0.00  0.00    +0.243 C 
BRANCH   6   7
ATOM      7  O   LIG    1       25.910 -16.470   3.039  0.00  0.00    -0.450 OA
BRANCH   7   8
ATOM      8  C   LIG    1       26.095 -17.741   3.468  0.00  0.00    +0.398 C 
ATOM      9  O   LIG    1       25.332 -18.672   3.345  0.00  0.00    -0.227 OA
ATOM     10  N   LIG    1       27.308 -17.845   4.073  0.00  0.00    -0.295 N 
ATOM     11  H   LIG    1       27.646 -18.781   4.239  0.00  0.00    +0.148 HD
ATOM     12  H   LIG    1       27.950 -17.087   3.958  0.00  0.00    +0.148 HD
ENDBRANCH   7   8
ENDBRANCH   6   7
ENDBRANCH   1   6
BRANCH   1  13
ATOM     13  C   LIG    1       25.085 -14.049   2.692  0.00  0.00    +0.243 C 
BRANCH  13  14
ATOM     14  O   LIG    1       23.957 -13.560   3.433  0.00  0.00    -0.450 OA
BRANCH  14  15
ATOM     15  C   LIG    1       23.791 -12.209   3.393  0.00  0.00    +0.398 C 
ATOM     16  O   LIG    1       23.592 -11.465   4.323  0.00  0.00    -0.227 OA
ATOM     17  N   LIG    1       23.939 -11.774   2.117  0.00  0.00    -0.295 N 
ATOM     18  H   LIG    1       24.026 -10.776   1.984  0.00  0.00    +0.148 HD
ATOM     19  H   LIG    1       24.283 -12.415   1.425  0.00  0.00    +0.148 HD
ENDBRANCH  14  15
ENDBRANCH  13  14
ENDBRANCH   1  13
TORSDOF 8
ENDMDL
MODEL 8
REMARK VINA RESULT:      -3.9      3.988      6.632
REMARK  Name = *****
REMARK                            x       y       z     vdW  Elec       q    Type
REMARK                         _______ _______ _______ _____ _____    ______ ____
ROOT
ATOM      1  C   LIG    1       24.564 -20.593   4.617  0.00  0.00    +0.036 C 
ATOM      2  C   LIG    1       23.904 -21.506   3.561  0.00  0.00    +0.018 C 
ENDROOT
BRANCH   1   3
ATOM      3  C   LIG    1       25.215 -21.486   5.744  0.00  0.00    +0.013 C 
BRANCH   3   5
ATOM      4  C   LIG    1       27.164 -20.409   7.062  0.00  0.00    +0.004 C 
ATOM      5  C   LIG    1       25.671 -20.726   7.017  0.00  0.00    -0.003 C 
ENDBRANCH   3   5
ENDBRANCH   1   3
BRANCH   1   6
ATOM      6  C   LIG    1       25.651 -19.716   3.944  0.00  0.00    +0.243 C 
BRANCH   6   7
ATOM      7  O   LIG    1       25.124 -18.437   3.536  0.00  0.00    -0.450 OA
BRANCH   7   8
ATOM      8  C   LIG    1       26.017 -17.424   3.433  0.00  0.00    +0.398 C 
ATOM      9  O   LIG    1       25.827 -16.329   2.955  0.00  0.00    -0.227 OA
ATOM     10  N   LIG    1       27.205 -17.809   3.969  0.00  0.00    -0.295 N 
ATOM     11  H   LIG    1       27.875 -17.074   4.143  0.00  0.00    +0.148 HD
ATOM     12  H   LIG    1       27.219 -18.647   4.513  0.00  0.00    +0.148 HD
ENDBRANCH   7   8
ENDBRANCH   6   7
ENDBRANCH   1   6
BRANCH   1  13
ATOM     13  C   LIG    1       23.516 -19.590   5.201  0.00  0.00    +0.243 C 
BRANCH  13  14
ATOM     14  O   LIG    1       22.193 -19.744   4.666  0.00  0.00    -0.450 OA
BRANCH  14  15
ATOM     15  C   LIG    1       21.641 -18.602   4.172  0.00  0.00    +0.398 C 
ATOM     16  O   LIG    1       20.659 -18.501   3.477  0.00  0.00    -0.227 OA
ATOM     17  N   LIG    1       22.339 -17.531   4.627  0.00  0.00    -0.295 N 
ATOM     18  H   LIG    1       21.920 -16.623   4.487  0.00  0.00    +0.148 HD
ATOM     19  H   LIG    1       23.027 -17.672   5.343  0.00  0.00    +0.148 HD
ENDBRANCH  14  15
ENDBRANCH  13  14
ENDBRANCH   1  13
TORSDOF 8
ENDMDL
MODEL 9
REMARK VINA RESULT:      -3.7      3.087      5.820
REMARK  Name = *****
REMARK                            x       y       z     vdW  Elec       q    Type
REMARK                         _______ _______ _______ _____ _____    ______ ____
ROOT
ATOM      1  C   LIG    1       25.131 -19.387   3.821  0.00  0.00    +0.036 C 
ATOM      2  C   LIG    1       24.792 -20.443   2.747  0.00  0.00    +0.018 C 
ENDROOT
BRANCH   1   3
ATOM      3  C   LIG    1       25.859 -20.090   5.031  0.00  0.00    +0.013 C 
BRANCH   3   5
ATOM      4  C   LIG    1       28.029 -20.396   6.408  0.00  0.00    +0.004 C 
ATOM      5  C   LIG    1       27.336 -19.673   5.255  0.00  0.00    -0.003 C 
ENDBRANCH   3   5
ENDBRANCH   1   3
BRANCH   1   6
ATOM      6  C   LIG    1       26.049 -18.297   3.211  0.00  0.00    +0.243 C 
BRANCH   6   7
ATOM      7  O   LIG    1       25.511 -16.974   3.413  0.00  0.00    -0.450 OA
BRANCH   7   8
ATOM      8  C   LIG    1       26.381 -15.945   3.284  0.00  0.00    +0.398 C 
ATOM      9  O   LIG    1       26.198 -14.903   2.697  0.00  0.00    -0.227 OA
ATOM     10  N   LIG    1       27.535 -16.240   3.939  0.00  0.00    -0.295 N 
ATOM     11  H   LIG    1       28.169 -15.470   4.094  0.00  0.00    +0.148 HD
ATOM     12  H   LIG    1       27.530 -17.026   4.556  0.00  0.00    +0.148 HD
ENDBRANCH   7   8
ENDBRANCH   6   7
ENDBRANCH   1   6
BRANCH   1  13
ATOM     13  C   LIG    1       23.835 -18.638   4.276  0.00  0.00    +0.243 C 
BRANCH  13  14
ATOM     14  O   LIG    1       22.648 -19.444   4.241  0.00  0.00    -0.450 OA
BRANCH  14  15
ATOM     15  C   LIG    1       22.497 -20.284   5.302  0.00  0.00    +0.398 C 
ATOM     16  O   LIG    1       22.832 -20.091   6.446  0.00  0.00    -0.227 OA
ATOM     17  N   LIG    1       21.842 -21.402   4.902  0.00  0.00    -0.295 N 
ATOM     18  H   LIG    1       21.503 -22.016   5.630  0.00  0.00    +0.148 HD
ATOM     19  H   LIG    1       21.432 -21.420   3.986  0.00  0.00    +0.148 HD
ENDBRANCH  14  15
ENDBRANCH  13  14
ENDBRANCH   1  13
TORSDOF 8
ENDMDL
