MODEL 1
REMARK VINA RESULT:      -6.2      0.000      0.000
REMARK  Name = *****
REMARK                            x       y       z     vdW  Elec       q    Type
REMARK                         _______ _______ _______ _____ _____    ______ ____
ROOT
ATOM      1  N   LIG    1       25.656 -31.526   7.098  0.00  0.00    -0.300 N 
ATOM      2  C   LIG    1       25.977 -31.452   8.447  0.00  0.00    +0.231 C 
ATOM      3  O   LIG    1       26.979 -32.001   8.936  0.00  0.00    -0.274 OA
ATOM      4  C   LIG    1       24.897 -30.601   9.191  0.00  0.00    +0.101 C 
ATOM      5  C   LIG    1       24.305 -29.837   7.929  0.00  0.00    +0.031 C 
ATOM      6  C   LIG    1       24.411 -30.872   6.808  0.00  0.00    +0.113 C 
ENDROOT
BRANCH   4   7
ATOM      7  C   LIG    1       23.854 -31.590   9.800  0.00  0.00    -0.028 A 
ATOM      8  C   LIG    1       22.464 -31.346   9.771  0.00  0.00    +0.005 A 
ATOM      9  C   LIG    1       21.538 -32.250  10.288  0.00  0.00    +0.000 A 
ATOM     10  C   LIG    1       21.979 -33.426  10.870  0.00  0.00    +0.000 A 
ATOM     11  C   LIG    1       23.345 -33.700  10.917  0.00  0.00    +0.000 A 
ATOM     12  C   LIG    1       24.274 -32.798  10.383  0.00  0.00    +0.005 A 
ENDBRANCH   4   7
BRANCH   4  13
ATOM     13  C   LIG    1       25.443 -29.633  10.290  0.00  0.00    -0.028 A 
ATOM     14  C   LIG    1       24.664 -29.293  11.414  0.00  0.00    +0.005 A 
ATOM     15  C   LIG    1       25.137 -28.400  12.391  0.00  0.00    +0.000 A 
ATOM     16  C   LIG    1       26.401 -27.830  12.278  0.00  0.00    +0.000 A 
ATOM     17  C   LIG    1       27.205 -28.175  11.203  0.00  0.00    +0.000 A 
ATOM     18  C   LIG    1       26.734 -29.067  10.231  0.00  0.00    +0.005 A 
ENDBRANCH   4  13
BRANCH   1  20
ATOM     19  C   LIG    1       25.952 -31.948   4.697  0.00  0.00    +0.024 C 
ATOM     20  C   LIG    1       26.395 -32.281   6.107  0.00  0.00    +0.104 C 
ENDBRANCH   1  20
BRANCH   5  21
ATOM     21  C   LIG    1       24.986 -28.521   7.494  0.00  0.00    +0.022 C 
BRANCH  21  22
ATOM     22  C   LIG    1       24.762 -28.074   6.037  0.00  0.00    +0.085 C 
BRANCH  22  23
ATOM     23  N   LIG    1       25.873 -27.282   5.500  0.00  0.00    -0.298 NA
ATOM     24  C   LIG    1       25.492 -26.422   4.362  0.00  0.00    +0.112 C 
ATOM     25  C   LIG    1       24.778 -25.121   4.739  0.00  0.00    +0.175 C 
ATOM     26  O   LIG    1       25.554 -24.349   5.657  0.00  0.00    -0.377 OA
ATOM     27  C   LIG    1       25.786 -25.105   6.852  0.00  0.00    +0.175 C 
ATOM     28  C   LIG    1       26.500 -26.438   6.549  0.00  0.00    +0.112 C 
ENDBRANCH  22  23
ENDBRANCH  21  22
ENDBRANCH   5  21
TORSDOF 6
ENDMDL
MODEL 2
REMARK VINA RESULT:      -6.1      2.338      7.069
REMARK  Name = *****
REMARK                            x       y       z     vdW  Elec       q    Type
REMARK                         _______ _______ _______ _____ _____    ______ ____
ROOT
ATOM      1  N   LIG    1       25.272 -29.782  10.427  0.00  0.00    -0.300 N 
ATOM      2  C   LIG    1       26.147 -29.960   9.364  0.00  0.00    +0.231 C 
ATOM      3  O   LIG    1       27.382 -29.975   9.497  0.00  0.00    -0.274 OA
ATOM      4  C   LIG    1       25.328 -30.123   8.041  0.00  0.00    +0.101 C 
ATOM      5  C   LIG    1       23.935 -30.528   8.688  0.00  0.00    +0.031 C 
ATOM      6  C   LIG    1       23.905 -29.728   9.992  0.00  0.00    +0.113 C 
ENDROOT
BRANCH   4   7
ATOM      7  C   LIG    1       25.254 -28.720   7.357  0.00  0.00    -0.028 A 
ATOM      8  C   LIG    1       26.148 -27.673   7.666  0.00  0.00    +0.005 A 
ATOM      9  C   LIG    1       26.095 -26.436   7.027  0.00  0.00    +0.000 A 
ATOM     10  C   LIG    1       25.127 -26.202   6.065  0.00  0.00    +0.000 A 
ATOM     11  C   LIG    1       24.227 -27.213   5.735  0.00  0.00    +0.000 A 
ATOM     12  C   LIG    1       24.291 -28.462   6.366  0.00  0.00    +0.005 A 
ENDBRANCH   4   7
BRANCH   4  13
ATOM     13  C   LIG    1       25.872 -31.194   7.041  0.00  0.00    -0.028 A 
ATOM     14  C   LIG    1       26.827 -32.147   7.443  0.00  0.00    +0.005 A 
ATOM     15  C   LIG    1       27.343 -33.095   6.541  0.00  0.00    +0.000 A 
ATOM     16  C   LIG    1       26.912 -33.122   5.219  0.00  0.00    +0.000 A 
ATOM     17  C   LIG    1       25.945 -32.220   4.804  0.00  0.00    +0.000 A 
ATOM     18  C   LIG    1       25.430 -31.278   5.703  0.00  0.00    +0.005 A 
ENDBRANCH   4  13
BRANCH   1  20
ATOM     19  C   LIG    1       25.860 -28.063  12.080  0.00  0.00    +0.024 C 
ATOM     20  C   LIG    1       25.668 -29.539  11.799  0.00  0.00    +0.104 C 
ENDBRANCH   1  20
BRANCH   5  21
ATOM     21  C   LIG    1       23.680 -32.021   8.983  0.00  0.00    +0.022 C 
BRANCH  21  22
ATOM     22  C   LIG    1       22.690 -32.345  10.118  0.00  0.00    +0.085 C 
BRANCH  22  23
ATOM     23  N   LIG    1       21.287 -32.184   9.724  0.00  0.00    -0.298 NA
ATOM     24  C   LIG    1       20.503 -33.433   9.801  0.00  0.00    +0.112 C 
ATOM     25  C   LIG    1       20.037 -33.825  11.207  0.00  0.00    +0.175 C 
ATOM     26  O   LIG    1       19.288 -32.774  11.818  0.00  0.00    -0.377 OA
ATOM     27  C   LIG    1       20.095 -31.594  11.917  0.00  0.00    +0.175 C 
ATOM     28  C   LIG    1       20.606 -31.141  10.534  0.00  0.00    +0.112 C 
ENDBRANCH  22  23
ENDBRANCH  21  22
ENDBRANCH   5  21
TORSDOF 6
ENDMDL
MODEL 3
REMARK VINA RESULT:      -5.9      2.951      4.768
REMARK  Name = *****
REMARK                            x       y       z     vdW  Elec       q    Type
REMARK                         _______ _______ _______ _____ _____    ______ ____
ROOT
ATOM      1  N   LIG    1       23.147 -32.616  11.368  0.00  0.00    -0.300 N 
ATOM      2  C   LIG    1       22.651 -31.757  12.339  0.00  0.00    +0.231 C 
ATOM      3  O   LIG    1       22.849 -31.921  13.555  0.00  0.00    -0.274 OA
ATOM      4  C   LIG    1       21.836 -30.612  11.652  0.00  0.00    +0.101 C 
ATOM      5  C   LIG    1       22.454 -30.743  10.193  0.00  0.00    +0.031 C 
ATOM      6  C   LIG    1       22.710 -32.244  10.052  0.00  0.00    +0.113 C 
ENDROOT
BRANCH   4   7
ATOM      7  C   LIG    1       20.331 -31.026  11.674  0.00  0.00    -0.028 A 
ATOM      8  C   LIG    1       19.658 -31.393  12.859  0.00  0.00    +0.005 A 
ATOM      9  C   LIG    1       18.306 -31.730  12.874  0.00  0.00    +0.000 A 
ATOM     10  C   LIG    1       17.585 -31.725  11.692  0.00  0.00    +0.000 A 
ATOM     11  C   LIG    1       18.217 -31.369  10.502  0.00  0.00    +0.000 A 
ATOM     12  C   LIG    1       19.572 -31.015  10.490  0.00  0.00    +0.005 A 
ENDBRANCH   4   7
BRANCH   4  13
ATOM     13  C   LIG    1       22.024 -29.189  12.269  0.00  0.00    -0.028 A 
ATOM     14  C   LIG    1       20.924 -28.331  12.471  0.00  0.00    +0.005 A 
ATOM     15  C   LIG    1       21.089 -27.038  12.998  0.00  0.00    +0.000 A 
ATOM     16  C   LIG    1       22.352 -26.571  13.346  0.00  0.00    +0.000 A 
ATOM     17  C   LIG    1       23.449 -27.406  13.193  0.00  0.00    +0.000 A 
ATOM     18  C   LIG    1       23.283 -28.694  12.671  0.00  0.00    +0.005 A 
ENDBRANCH   4  13
BRANCH   1  20
ATOM     19  C   LIG    1       25.316 -33.737  11.100  0.00  0.00    +0.024 C 
ATOM     20  C   LIG    1       23.900 -33.825  11.632  0.00  0.00    +0.104 C 
ENDBRANCH   1  20
BRANCH   5  21
ATOM     21  C   LIG    1       23.745 -29.958   9.880  0.00  0.00    +0.022 C 
BRANCH  21  22
ATOM     22  C   LIG    1       24.565 -30.428   8.663  0.00  0.00    +0.085 C 
BRANCH  22  23
ATOM     23  N   LIG    1       23.824 -30.342   7.401  0.00  0.00    -0.298 NA
ATOM     24  C   LIG    1       24.164 -29.153   6.594  0.00  0.00    +0.112 C 
ATOM     25  C   LIG    1       25.466 -29.258   5.794  0.00  0.00    +0.175 C 
ATOM     26  O   LIG    1       25.462 -30.405   4.943  0.00  0.00    -0.377 OA
ATOM     27  C   LIG    1       25.311 -31.594   5.728  0.00  0.00    +0.175 C 
ATOM     28  C   LIG    1       24.018 -31.557   6.569  0.00  0.00    +0.112 C 
ENDBRANCH  22  23
ENDBRANCH  21  22
ENDBRANCH   5  21
TORSDOF 6
ENDMDL
MODEL 4
REMARK VINA RESULT:      -5.8      2.455      5.707
REMARK  Name = *****
REMARK                            x       y       z     vdW  Elec       q    Type
REMARK                         _______ _______ _______ _____ _____    ______ ____
ROOT
ATOM      1  N   LIG    1       24.640 -31.312  10.094  0.00  0.00    -0.300 N 
ATOM      2  C   LIG    1       24.091 -30.581   9.049  0.00  0.00    +0.231 C 
ATOM      3  O   LIG    1       22.903 -30.219   9.025  0.00  0.00    -0.274 OA
ATOM      4  C   LIG    1       25.190 -30.320   7.966  0.00  0.00    +0.101 C 
ATOM      5  C   LIG    1       26.467 -30.567   8.878  0.00  0.00    +0.031 C 
ATOM      6  C   LIG    1       26.008 -31.666   9.838  0.00  0.00    +0.113 C 
ENDROOT
BRANCH   4   7
ATOM      7  C   LIG    1       25.046 -31.426   6.873  0.00  0.00    -0.028 A 
ATOM      8  C   LIG    1       23.830 -32.097   6.621  0.00  0.00    +0.005 A 
ATOM      9  C   LIG    1       23.703 -33.059   5.622  0.00  0.00    +0.000 A 
ATOM     10  C   LIG    1       24.801 -33.395   4.850  0.00  0.00    +0.000 A 
ATOM     11  C   LIG    1       26.019 -32.754   5.071  0.00  0.00    +0.000 A 
ATOM     12  C   LIG    1       26.142 -31.775   6.065  0.00  0.00    +0.005 A 
ENDBRANCH   4   7
BRANCH   4  13
ATOM     13  C   LIG    1       25.169 -28.899   7.316  0.00  0.00    -0.028 A 
ATOM     14  C   LIG    1       24.278 -28.590   6.269  0.00  0.00    +0.005 A 
ATOM     15  C   LIG    1       24.275 -27.323   5.659  0.00  0.00    +0.000 A 
ATOM     16  C   LIG    1       25.153 -26.330   6.083  0.00  0.00    +0.000 A 
ATOM     17  C   LIG    1       26.015 -26.594   7.136  0.00  0.00    +0.000 A 
ATOM     18  C   LIG    1       26.016 -27.855   7.745  0.00  0.00    +0.005 A 
ENDBRANCH   4  13
BRANCH   1  20
ATOM     19  C   LIG    1       24.831 -32.366  12.304  0.00  0.00    +0.024 C 
ATOM     20  C   LIG    1       23.909 -31.791  11.249  0.00  0.00    +0.104 C 
ENDBRANCH   1  20
BRANCH   5  21
ATOM     21  C   LIG    1       27.028 -29.372   9.678  0.00  0.00    +0.022 C 
BRANCH  21  22
ATOM     22  C   LIG    1       27.691 -29.694  11.031  0.00  0.00    +0.085 C 
BRANCH  22  23
ATOM     23  N   LIG    1       27.606 -28.590  11.992  0.00  0.00    -0.298 NA
ATOM     24  C   LIG    1       26.304 -27.893  11.979  0.00  0.00    +0.112 C 
ATOM     25  C   LIG    1       25.175 -28.603  12.731  0.00  0.00    +0.175 C 
ATOM     26  O   LIG    1       25.540 -28.868  14.087  0.00  0.00    -0.377 OA
ATOM     27  C   LIG    1       26.707 -29.698  14.124  0.00  0.00    +0.175 C 
ATOM     28  C   LIG    1       27.889 -29.047  13.377  0.00  0.00    +0.112 C 
ENDBRANCH  22  23
ENDBRANCH  21  22
ENDBRANCH   5  21
TORSDOF 6
ENDMDL
MODEL 5
REMARK VINA RESULT:      -5.8      4.174      6.902
REMARK  Name = *****
REMARK                            x       y       z     vdW  Elec       q    Type
REMARK                         _______ _______ _______ _____ _____    ______ ____
ROOT
ATOM      1  N   LIG    1       25.836 -31.002  13.934  0.00  0.00    -0.300 N 
ATOM      2  C   LIG    1       24.621 -30.762  13.307  0.00  0.00    +0.231 C 
ATOM      3  O   LIG    1       23.730 -31.623  13.204  0.00  0.00    -0.274 OA
ATOM      4  C   LIG    1       24.591 -29.290  12.780  0.00  0.00    +0.101 C 
ATOM      5  C   LIG    1       25.742 -28.698  13.702  0.00  0.00    +0.031 C 
ATOM      6  C   LIG    1       26.715 -29.870  13.848  0.00  0.00    +0.113 C 
ENDROOT
BRANCH   4   7
ATOM      7  C   LIG    1       25.020 -29.318  11.279  0.00  0.00    -0.028 A 
ATOM      8  C   LIG    1       24.307 -30.035  10.295  0.00  0.00    +0.005 A 
ATOM      9  C   LIG    1       24.678 -30.027   8.952  0.00  0.00    +0.000 A 
ATOM     10  C   LIG    1       25.793 -29.311   8.553  0.00  0.00    +0.000 A 
ATOM     11  C   LIG    1       26.523 -28.592   9.498  0.00  0.00    +0.000 A 
ATOM     12  C   LIG    1       26.140 -28.586  10.845  0.00  0.00    +0.005 A 
ENDBRANCH   4   7
BRANCH   4  13
ATOM     13  C   LIG    1       23.229 -28.543  12.948  0.00  0.00    -0.028 A 
ATOM     14  C   LIG    1       22.011 -29.250  12.992  0.00  0.00    +0.005 A 
ATOM     15  C   LIG    1       20.779 -28.582  13.112  0.00  0.00    +0.000 A 
ATOM     16  C   LIG    1       20.731 -27.195  13.203  0.00  0.00    +0.000 A 
ATOM     17  C   LIG    1       21.916 -26.475  13.201  0.00  0.00    +0.000 A 
ATOM     18  C   LIG    1       23.142 -27.141  13.083  0.00  0.00    +0.005 A 
ENDBRANCH   4  13
BRANCH   1  20
ATOM     19  C   LIG    1       27.411 -32.120  15.451  0.00  0.00    +0.024 C 
ATOM     20  C   LIG    1       26.248 -32.273  14.493  0.00  0.00    +0.104 C 
ENDBRANCH   1  20
BRANCH   5  21
ATOM     21  C   LIG    1       25.350 -28.165  15.097  0.00  0.00    +0.022 C 
BRANCH  21  22
ATOM     22  C   LIG    1       25.919 -26.791  15.499  0.00  0.00    +0.085 C 
BRANCH  22  23
ATOM     23  N   LIG    1       26.260 -25.949  14.349  0.00  0.00    -0.298 NA
ATOM     24  C   LIG    1       25.420 -24.740  14.231  0.00  0.00    +0.112 C 
ATOM     25  C   LIG    1       25.805 -23.585  15.160  0.00  0.00    +0.175 C 
ATOM     26  O   LIG    1       27.173 -23.212  14.986  0.00  0.00    -0.377 OA
ATOM     27  C   LIG    1       28.022 -24.330  15.272  0.00  0.00    +0.175 C 
ATOM     28  C   LIG    1       27.687 -25.539  14.374  0.00  0.00    +0.112 C 
ENDBRANCH  22  23
ENDBRANCH  21  22
ENDBRANCH   5  21
TORSDOF 6
ENDMDL
MODEL 6
REMARK VINA RESULT:      -5.6      3.811      6.076
REMARK  Name = *****
REMARK                            x       y       z     vdW  Elec       q    Type
REMARK                         _______ _______ _______ _____ _____    ______ ____
ROOT
ATOM      1  N   LIG    1       22.348 -30.912  13.605  0.00  0.00    -0.300 N 
ATOM      2  C   LIG    1       22.883 -29.802  14.245  0.00  0.00    +0.231 C 
ATOM      3  O   LIG    1       23.401 -29.853  15.373  0.00  0.00    -0.274 OA
ATOM      4  C   LIG    1       22.713 -28.545  13.329  0.00  0.00    +0.101 C 
ATOM      5  C   LIG    1       22.503 -29.301  11.947  0.00  0.00    +0.031 C 
ATOM      6  C   LIG    1       21.744 -30.568  12.350  0.00  0.00    +0.113 C 
ENDROOT
BRANCH   4   7
ATOM      7  C   LIG    1       21.413 -27.806  13.779  0.00  0.00    -0.028 A 
ATOM      8  C   LIG    1       20.917 -27.870  15.099  0.00  0.00    +0.005 A 
ATOM      9  C   LIG    1       19.775 -27.182  15.500  0.00  0.00    +0.000 A 
ATOM     10  C   LIG    1       19.078 -26.416  14.581  0.00  0.00    +0.000 A 
ATOM     11  C   LIG    1       19.537 -26.331  13.268  0.00  0.00    +0.000 A 
ATOM     12  C   LIG    1       20.695 -27.010  12.869  0.00  0.00    +0.005 A 
ENDBRANCH   4   7
BRANCH   4  13
ATOM     13  C   LIG    1       23.926 -27.560  13.307  0.00  0.00    -0.028 A 
ATOM     14  C   LIG    1       23.769 -26.204  13.660  0.00  0.00    +0.005 A 
ATOM     15  C   LIG    1       24.849 -25.305  13.614  0.00  0.00    +0.000 A 
ATOM     16  C   LIG    1       26.113 -25.736  13.225  0.00  0.00    +0.000 A 
ATOM     17  C   LIG    1       26.306 -27.072  12.908  0.00  0.00    +0.000 A 
ATOM     18  C   LIG    1       25.230 -27.967  12.957  0.00  0.00    +0.005 A 
ENDBRANCH   4  13
BRANCH   1  20
ATOM     19  C   LIG    1       23.462 -33.094  13.782  0.00  0.00    +0.024 C 
ATOM     20  C   LIG    1       22.272 -32.243  14.173  0.00  0.00    +0.104 C 
ENDBRANCH   1  20
BRANCH   5  21
ATOM     21  C   LIG    1       23.756 -29.678  11.129  0.00  0.00    +0.022 C 
BRANCH  21  22
ATOM     22  C   LIG    1       23.519 -30.236   9.713  0.00  0.00    +0.085 C 
BRANCH  22  23
ATOM     23  N   LIG    1       24.761 -30.488   8.976  0.00  0.00    -0.298 NA
ATOM     24  C   LIG    1       24.735 -31.731   8.180  0.00  0.00    +0.112 C 
ATOM     25  C   LIG    1       23.991 -31.636   6.845  0.00  0.00    +0.175 C 
ATOM     26  O   LIG    1       24.513 -30.583   6.034  0.00  0.00    -0.377 OA
ATOM     27  C   LIG    1       24.384 -29.331   6.719  0.00  0.00    +0.175 C 
ATOM     28  C   LIG    1       25.107 -29.354   8.081  0.00  0.00    +0.112 C 
ENDBRANCH  22  23
ENDBRANCH  21  22
ENDBRANCH   5  21
TORSDOF 6
ENDMDL
MODEL 7
REMARK VINA RESULT:      -5.5      2.558      5.623
REMARK  Name = *****
REMARK                            x       y       z     vdW  Elec       q    Type
REMARK                         _______ _______ _______ _____ _____    ______ ____
ROOT
ATOM      1  N   LIG    1       23.283 -32.714   8.738  0.00  0.00    -0.300 N 
ATOM      2  C   LIG    1       23.668 -31.990   7.618  0.00  0.00    +0.231 C 
ATOM      3  O   LIG    1       23.034 -32.007   6.549  0.00  0.00    -0.274 OA
ATOM      4  C   LIG    1       24.978 -31.199   7.937  0.00  0.00    +0.101 C 
ATOM      5  C   LIG    1       24.876 -31.226   9.522  0.00  0.00    +0.031 C 
ATOM      6  C   LIG    1       24.227 -32.581   9.811  0.00  0.00    +0.113 C 
ENDROOT
BRANCH   4   7
ATOM      7  C   LIG    1       26.182 -32.054   7.427  0.00  0.00    -0.028 A 
ATOM      8  C   LIG    1       26.490 -32.197   6.058  0.00  0.00    +0.005 A 
ATOM      9  C   LIG    1       27.585 -32.936   5.614  0.00  0.00    +0.000 A 
ATOM     10  C   LIG    1       28.400 -33.573   6.534  0.00  0.00    +0.000 A 
ATOM     11  C   LIG    1       28.124 -33.455   7.895  0.00  0.00    +0.000 A 
ATOM     12  C   LIG    1       27.033 -32.700   8.341  0.00  0.00    +0.005 A 
ENDBRANCH   4   7
BRANCH   4  13
ATOM     13  C   LIG    1       25.049 -29.750   7.354  0.00  0.00    -0.028 A 
ATOM     14  C   LIG    1       25.912 -28.784   7.906  0.00  0.00    +0.005 A 
ATOM     15  C   LIG    1       25.959 -27.471   7.406  0.00  0.00    +0.000 A 
ATOM     16  C   LIG    1       25.153 -27.090   6.337  0.00  0.00    +0.000 A 
ATOM     17  C   LIG    1       24.321 -28.030   5.749  0.00  0.00    +0.000 A 
ATOM     18  C   LIG    1       24.277 -29.339   6.246  0.00  0.00    +0.005 A 
ENDBRANCH   4  13
BRANCH   1  20
ATOM     19  C   LIG    1       21.134 -33.173   9.835  0.00  0.00    +0.024 C 
ATOM     20  C   LIG    1       22.148 -33.613   8.799  0.00  0.00    +0.104 C 
ENDBRANCH   1  20
BRANCH   5  21
ATOM     21  C   LIG    1       24.076 -30.102  10.216  0.00  0.00    +0.022 C 
BRANCH  21  22
ATOM     22  C   LIG    1       24.660 -29.544  11.528  0.00  0.00    +0.085 C 
BRANCH  22  23
ATOM     23  N   LIG    1       26.125 -29.497  11.533  0.00  0.00    -0.298 NA
ATOM     24  C   LIG    1       26.676 -28.155  11.260  0.00  0.00    +0.112 C 
ATOM     25  C   LIG    1       26.665 -27.190  12.450  0.00  0.00    +0.175 C 
ATOM     26  O   LIG    1       27.347 -27.746  13.575  0.00  0.00    -0.377 OA
ATOM     27  C   LIG    1       26.715 -28.968  13.973  0.00  0.00    +0.175 C 
ATOM     28  C   LIG    1       26.684 -29.991  12.818  0.00  0.00    +0.112 C 
ENDBRANCH  22  23
ENDBRANCH  21  22
ENDBRANCH   5  21
TORSDOF 6
ENDMDL
MODEL 8
REMARK VINA RESULT:      -5.4      2.817      5.246
REMARK  Name = *****
REMARK                            x       y       z     vdW  Elec       q    Type
REMARK                         _______ _______ _______ _____ _____    ______ ____
ROOT
ATOM      1  N   LIG    1       22.061 -31.691  11.886  0.00  0.00    -0.300 N 
ATOM      2  C   LIG    1       23.026 -31.101  12.690  0.00  0.00    +0.231 C 
ATOM      3  O   LIG    1       23.360 -31.559  13.796  0.00  0.00    -0.274 OA
ATOM      4  C   LIG    1       23.579 -29.821  11.981  0.00  0.00    +0.101 C 
ATOM      5  C   LIG    1       23.128 -30.173  10.499  0.00  0.00    +0.031 C 
ATOM      6  C   LIG    1       21.810 -30.923  10.699  0.00  0.00    +0.113 C 
ENDROOT
BRANCH   4   7
ATOM      7  C   LIG    1       22.791 -28.594  12.542  0.00  0.00    -0.028 A 
ATOM      8  C   LIG    1       21.383 -28.508  12.498  0.00  0.00    +0.005 A 
ATOM      9  C   LIG    1       20.686 -27.425  13.029  0.00  0.00    +0.000 A 
ATOM     10  C   LIG    1       21.383 -26.380  13.610  0.00  0.00    +0.000 A 
ATOM     11  C   LIG    1       22.775 -26.430  13.670  0.00  0.00    +0.000 A 
ATOM     12  C   LIG    1       23.474 -27.526  13.149  0.00  0.00    +0.005 A 
ENDBRANCH   4   7
BRANCH   4  13
ATOM     13  C   LIG    1       25.119 -29.590  12.113  0.00  0.00    -0.028 A 
ATOM     14  C   LIG    1       25.884 -30.304  13.056  0.00  0.00    +0.005 A 
ATOM     15  C   LIG    1       27.265 -30.080  13.201  0.00  0.00    +0.000 A 
ATOM     16  C   LIG    1       27.919 -29.148  12.402  0.00  0.00    +0.000 A 
ATOM     17  C   LIG    1       27.199 -28.458  11.439  0.00  0.00    +0.000 A 
ATOM     18  C   LIG    1       25.824 -28.683  11.294  0.00  0.00    +0.005 A 
ENDBRANCH   4  13
BRANCH   1  20
ATOM     19  C   LIG    1       19.939 -32.495  12.827  0.00  0.00    +0.024 C 
ATOM     20  C   LIG    1       21.286 -32.863  12.239  0.00  0.00    +0.104 C 
ENDBRANCH   1  20
BRANCH   5  21
ATOM     21  C   LIG    1       24.085 -31.017   9.631  0.00  0.00    +0.022 C 
BRANCH  21  22
ATOM     22  C   LIG    1       24.652 -30.344   8.367  0.00  0.00    +0.085 C 
BRANCH  22  23
ATOM     23  N   LIG    1       23.869 -30.629   7.161  0.00  0.00    -0.298 NA
ATOM     24  C   LIG    1       24.163 -29.720   6.035  0.00  0.00    +0.112 C 
ATOM     25  C   LIG    1       25.440 -30.041   5.253  0.00  0.00    +0.175 C 
ATOM     26  O   LIG    1       25.427 -31.385   4.767  0.00  0.00    -0.377 OA
ATOM     27  C   LIG    1       25.322 -32.299   5.865  0.00  0.00    +0.175 C 
ATOM     28  C   LIG    1       24.057 -32.031   6.705  0.00  0.00    +0.112 C 
ENDBRANCH  22  23
ENDBRANCH  21  22
ENDBRANCH   5  21
TORSDOF 6
ENDMDL
MODEL 9
REMARK VINA RESULT:      -5.4      2.653      5.769
REMARK  Name = *****
REMARK                            x       y       z     vdW  Elec       q    Type
REMARK                         _______ _______ _______ _____ _____    ______ ____
ROOT
ATOM      1  N   LIG    1       26.677 -32.482   8.395  0.00  0.00    -0.300 N 
ATOM      2  C   LIG    1       25.324 -32.370   8.102  0.00  0.00    +0.231 C 
ATOM      3  O   LIG    1       24.716 -33.184   7.387  0.00  0.00    -0.274 OA
ATOM      4  C   LIG    1       24.747 -31.095   8.800  0.00  0.00    +0.101 C 
ATOM      5  C   LIG    1       25.883 -30.904   9.895  0.00  0.00    +0.031 C 
ATOM      6  C   LIG    1       27.149 -31.373   9.175  0.00  0.00    +0.113 C 
ENDROOT
BRANCH   4   7
ATOM      7  C   LIG    1       24.763 -29.937   7.753  0.00  0.00    -0.028 A 
ATOM      8  C   LIG    1       24.099 -30.023   6.510  0.00  0.00    +0.005 A 
ATOM      9  C   LIG    1       24.092 -28.972   5.595  0.00  0.00    +0.000 A 
ATOM     10  C   LIG    1       24.768 -27.800   5.891  0.00  0.00    +0.000 A 
ATOM     11  C   LIG    1       25.435 -27.681   7.109  0.00  0.00    +0.000 A 
ATOM     12  C   LIG    1       25.429 -28.731   8.035  0.00  0.00    +0.005 A 
ENDBRANCH   4   7
BRANCH   4  13
ATOM     13  C   LIG    1       23.321 -31.255   9.420  0.00  0.00    -0.028 A 
ATOM     14  C   LIG    1       22.731 -30.215  10.166  0.00  0.00    +0.005 A 
ATOM     15  C   LIG    1       21.461 -30.363  10.752  0.00  0.00    +0.000 A 
ATOM     16  C   LIG    1       20.745 -31.546  10.602  0.00  0.00    +0.000 A 
ATOM     17  C   LIG    1       21.284 -32.572   9.842  0.00  0.00    +0.000 A 
ATOM     18  C   LIG    1       22.548 -32.424   9.257  0.00  0.00    +0.005 A 
ENDBRANCH   4  13
BRANCH   1  20
ATOM     19  C   LIG    1       28.060 -33.170   6.485  0.00  0.00    +0.024 C 
ATOM     20  C   LIG    1       27.559 -33.506   7.875  0.00  0.00    +0.104 C 
ENDBRANCH   1  20
BRANCH   5  21
ATOM     21  C   LIG    1       25.732 -31.657  11.234  0.00  0.00    +0.022 C 
BRANCH  21  22
ATOM     22  C   LIG    1       25.664 -30.795  12.510  0.00  0.00    +0.085 C 
BRANCH  22  23
ATOM     23  N   LIG    1       25.860 -29.365  12.251  0.00  0.00    -0.298 NA
ATOM     24  C   LIG    1       24.796 -28.511  12.813  0.00  0.00    +0.112 C 
ATOM     25  C   LIG    1       24.909 -28.230  14.315  0.00  0.00    +0.175 C 
ATOM     26  O   LIG    1       26.177 -27.659  14.642  0.00  0.00    -0.377 OA
ATOM     27  C   LIG    1       27.227 -28.558  14.266  0.00  0.00    +0.175 C 
ATOM     28  C   LIG    1       27.173 -28.892  12.761  0.00  0.00    +0.112 C 
ENDBRANCH  22  23
ENDBRANCH  21  22
ENDBRANCH   5  21
TORSDOF 6
ENDMDL
