MODEL 1
REMARK VINA RESULT:      -8.6      0.000      0.000
REMARK  Name = *****
REMARK                            x       y       z     vdW  Elec       q    Type
REMARK                         _______ _______ _______ _____ _____    ______ ____
ROOT
ATOM      1  C   LIG    1       29.276 -20.234   7.735  0.00  0.00    +0.341 C 
ATOM      2  O   LIG    1       29.451 -21.328   8.259  0.00  0.00    -0.247 OA
ENDROOT
BRANCH   1   3
ATOM      3  O   LIG    1       28.065 -19.679   7.440  0.00  0.00    -0.459 OA
BRANCH   3  11
ATOM      4  C   LIG    1       25.180 -19.750   3.451  0.00  0.00    +0.007 C 
ATOM      5  C   LIG    1       25.591 -20.533   4.699  0.00  0.00    -0.010 C 
ATOM      6  C   LIG    1       24.386 -20.730   5.631  0.00  0.00    +0.010 C 
ATOM      7  C   LIG    1       24.740 -21.455   6.950  0.00  0.00    -0.031 C 
ATOM      8  C   LIG    1       23.516 -21.412   7.886  0.00  0.00    +0.011 C 
ATOM      9  C   LIG    1       25.075 -22.935   6.684  0.00  0.00    +0.011 C 
ATOM     10  C   LIG    1       25.922 -20.737   7.637  0.00  0.00    +0.051 C 
ATOM     11  C   LIG    1       27.134 -20.517   6.722  0.00  0.00    +0.177 C 
ATOM     12  C   LIG    1       26.731 -19.812   5.425  0.00  0.00    +0.048 C 
ENDBRANCH   3  11
ENDBRANCH   1   3
BRANCH   1  13
ATOM     13  C   LIG    1       30.425 -19.285   7.367  0.00  0.00    +0.253 C 
BRANCH  13  14
ATOM     14  C   LIG    1       30.810 -18.371   8.514  0.00  0.00    -0.008 A 
ATOM     15  C   LIG    1       29.932 -18.120   9.582  0.00  0.00    +0.007 A 
ATOM     16  C   LIG    1       30.297 -17.265  10.623  0.00  0.00    +0.000 A 
ATOM     17  C   LIG    1       31.551 -16.659  10.620  0.00  0.00    +0.000 A 
ATOM     18  C   LIG    1       32.442 -16.913   9.580  0.00  0.00    +0.000 A 
ATOM     19  C   LIG    1       32.076 -17.765   8.535  0.00  0.00    +0.007 A 
ENDBRANCH  13  14
BRANCH  13  20
ATOM     20  O   LIG    1       30.087 -18.495   6.220  0.00  0.00    -0.376 OA
ATOM     21  H   LIG    1       30.626 -18.848   5.486  0.00  0.00    +0.211 HD
ENDBRANCH  13  20
ENDBRANCH   1  13
TORSDOF 5
ENDMDL
MODEL 2
REMARK VINA RESULT:      -8.5      4.351      8.506
REMARK  Name = *****
REMARK                            x       y       z     vdW  Elec       q    Type
REMARK                         _______ _______ _______ _____ _____    ______ ____
ROOT
ATOM      1  C   LIG    1       24.311 -25.097   6.204  0.00  0.00    +0.341 C 
ATOM      2  O   LIG    1       23.220 -24.820   6.689  0.00  0.00    -0.247 OA
ENDROOT
BRANCH   1   3
ATOM      3  O   LIG    1       25.475 -24.424   6.435  0.00  0.00    -0.459 OA
BRANCH   3  11
ATOM      4  C   LIG    1       24.696 -20.108   4.199  0.00  0.00    +0.007 C 
ATOM      5  C   LIG    1       25.021 -20.770   5.538  0.00  0.00    -0.010 C 
ATOM      6  C   LIG    1       26.398 -20.312   6.043  0.00  0.00    +0.010 C 
ATOM      7  C   LIG    1       26.829 -20.994   7.363  0.00  0.00    -0.031 C 
ATOM      8  C   LIG    1       28.294 -20.622   7.662  0.00  0.00    +0.011 C 
ATOM      9  C   LIG    1       25.968 -20.494   8.539  0.00  0.00    +0.011 C 
ATOM     10  C   LIG    1       26.720 -22.528   7.214  0.00  0.00    +0.051 C 
ATOM     11  C   LIG    1       25.357 -23.009   6.698  0.00  0.00    +0.177 C 
ATOM     12  C   LIG    1       24.969 -22.294   5.402  0.00  0.00    +0.048 C 
ENDBRANCH   3  11
ENDBRANCH   1   3
BRANCH   1  13
ATOM     13  C   LIG    1       24.540 -26.300   5.279  0.00  0.00    +0.253 C 
BRANCH  13  14
ATOM     14  C   LIG    1       24.676 -27.601   6.046  0.00  0.00    -0.008 A 
ATOM     15  C   LIG    1       24.075 -28.787   5.595  0.00  0.00    +0.007 A 
ATOM     16  C   LIG    1       24.199 -29.974   6.320  0.00  0.00    +0.000 A 
ATOM     17  C   LIG    1       24.938 -29.994   7.500  0.00  0.00    +0.000 A 
ATOM     18  C   LIG    1       25.559 -28.832   7.951  0.00  0.00    +0.000 A 
ATOM     19  C   LIG    1       25.432 -27.643   7.228  0.00  0.00    +0.007 A 
ENDBRANCH  13  14
BRANCH  13  20
ATOM     20  O   LIG    1       25.702 -26.102   4.464  0.00  0.00    -0.376 OA
ATOM     21  H   LIG    1       26.414 -26.621   4.885  0.00  0.00    +0.211 HD
ENDBRANCH  13  20
ENDBRANCH   1  13
TORSDOF 5
ENDMDL
MODEL 3
REMARK VINA RESULT:      -8.3      2.028      6.717
REMARK  Name = *****
REMARK                            x       y       z     vdW  Elec       q    Type
REMARK                         _______ _______ _______ _____ _____    ______ ____
ROOT
ATOM      1  C   LIG    1       25.617 -21.308   7.738  0.00  0.00    +0.341 C 
ATOM      2  O   LIG    1       25.229 -20.702   8.730  0.00  0.00    -0.247 OA
ENDROOT
BRANCH   1   3
ATOM      3  O   LIG    1       26.917 -21.599   7.444  0.00  0.00    -0.459 OA
BRANCH   3  11
ATOM      4  C   LIG    1       29.514 -18.220   4.979  0.00  0.00    +0.007 C 
ATOM      5  C   LIG    1       29.266 -18.829   6.359  0.00  0.00    -0.010 C 
ATOM      6  C   LIG    1       30.546 -19.492   6.892  0.00  0.00    +0.010 C 
ATOM      7  C   LIG    1       30.355 -20.193   8.257  0.00  0.00    -0.031 C 
ATOM      8  C   LIG    1       31.630 -20.991   8.591  0.00  0.00    +0.011 C 
ATOM      9  C   LIG    1       30.144 -19.156   9.376  0.00  0.00    +0.011 C 
ATOM     10  C   LIG    1       29.160 -21.168   8.177  0.00  0.00    +0.051 C 
ATOM     11  C   LIG    1       27.872 -20.533   7.635  0.00  0.00    +0.177 C 
ATOM     12  C   LIG    1       28.116 -19.838   6.294  0.00  0.00    +0.048 C 
ENDBRANCH   3  11
ENDBRANCH   1   3
BRANCH   1  13
ATOM     13  C   LIG    1       24.667 -21.883   6.678  0.00  0.00    +0.253 C 
BRANCH  13  14
ATOM     14  C   LIG    1       24.177 -20.826   5.708  0.00  0.00    -0.008 A 
ATOM     15  C   LIG    1       22.926 -20.205   5.865  0.00  0.00    +0.007 A 
ATOM     16  C   LIG    1       22.485 -19.243   4.954  0.00  0.00    +0.000 A 
ATOM     17  C   LIG    1       23.293 -18.877   3.881  0.00  0.00    +0.000 A 
ATOM     18  C   LIG    1       24.545 -19.467   3.722  0.00  0.00    +0.000 A 
ATOM     19  C   LIG    1       24.986 -20.432   4.629  0.00  0.00    +0.007 A 
ENDBRANCH  13  14
BRANCH  13  20
ATOM     20  O   LIG    1       23.544 -22.523   7.294  0.00  0.00    -0.376 OA
ATOM     21  H   LIG    1       22.755 -22.180   6.832  0.00  0.00    +0.211 HD
ENDBRANCH  13  20
ENDBRANCH   1  13
TORSDOF 5
ENDMDL
MODEL 4
REMARK VINA RESULT:      -8.1      4.656      8.823
REMARK  Name = *****
REMARK                            x       y       z     vdW  Elec       q    Type
REMARK                         _______ _______ _______ _____ _____    ______ ____
ROOT
ATOM      1  C   LIG    1       25.717 -25.745   6.398  0.00  0.00    +0.341 C 
ATOM      2  O   LIG    1       26.739 -26.017   5.779  0.00  0.00    -0.247 OA
ENDROOT
BRANCH   1   3
ATOM      3  O   LIG    1       25.529 -24.638   7.173  0.00  0.00    -0.459 OA
BRANCH   3  11
ATOM      4  C   LIG    1       27.718 -20.260   7.696  0.00  0.00    +0.007 C 
ATOM      5  C   LIG    1       26.770 -21.075   6.816  0.00  0.00    -0.010 C 
ATOM      6  C   LIG    1       25.377 -20.427   6.783  0.00  0.00    +0.010 C 
ATOM      7  C   LIG    1       24.341 -21.234   5.967  0.00  0.00    -0.031 C 
ATOM      8  C   LIG    1       22.947 -20.608   6.173  0.00  0.00    +0.011 C 
ATOM      9  C   LIG    1       24.665 -21.171   4.462  0.00  0.00    +0.011 C 
ATOM     10  C   LIG    1       24.313 -22.696   6.464  0.00  0.00    +0.051 C 
ATOM     11  C   LIG    1       25.695 -23.362   6.519  0.00  0.00    +0.177 C 
ATOM     12  C   LIG    1       26.688 -22.518   7.321  0.00  0.00    +0.048 C 
ENDBRANCH   3  11
ENDBRANCH   1   3
BRANCH   1  13
ATOM     13  C   LIG    1       24.451 -26.612   6.353  0.00  0.00    +0.253 C 
BRANCH  13  14
ATOM     14  C   LIG    1       24.765 -28.095   6.393  0.00  0.00    -0.008 A 
ATOM     15  C   LIG    1       24.848 -28.862   5.219  0.00  0.00    +0.007 A 
ATOM     16  C   LIG    1       25.126 -30.229   5.274  0.00  0.00    +0.000 A 
ATOM     17  C   LIG    1       25.337 -30.847   6.504  0.00  0.00    +0.000 A 
ATOM     18  C   LIG    1       25.279 -30.098   7.677  0.00  0.00    +0.000 A 
ATOM     19  C   LIG    1       24.998 -28.731   7.623  0.00  0.00    +0.007 A 
ENDBRANCH  13  14
BRANCH  13  20
ATOM     20  O   LIG    1       23.674 -26.320   5.186  0.00  0.00    -0.376 OA
ATOM     21  H   LIG    1       24.108 -25.554   4.763  0.00  0.00    +0.211 HD
ENDBRANCH  13  20
ENDBRANCH   1  13
TORSDOF 5
ENDMDL
MODEL 5
REMARK VINA RESULT:      -7.9      1.594      7.031
REMARK  Name = *****
REMARK                            x       y       z     vdW  Elec       q    Type
REMARK                         _______ _______ _______ _____ _____    ______ ____
ROOT
ATOM      1  C   LIG    1       27.123 -20.352   7.352  0.00  0.00    +0.341 C 
ATOM      2  O   LIG    1       26.921 -20.242   8.556  0.00  0.00    -0.247 OA
ENDROOT
BRANCH   1   3
ATOM      3  O   LIG    1       28.049 -19.652   6.635  0.00  0.00    -0.459 OA
BRANCH   3  11
ATOM      4  C   LIG    1       31.227 -22.292   9.312  0.00  0.00    +0.007 C 
ATOM      5  C   LIG    1       31.009 -20.948   8.615  0.00  0.00    -0.010 C 
ATOM      6  C   LIG    1       31.026 -19.803   9.639  0.00  0.00    +0.010 C 
ATOM      7  C   LIG    1       30.742 -18.416   9.017  0.00  0.00    -0.031 C 
ATOM      8  C   LIG    1       30.578 -17.385  10.150  0.00  0.00    +0.011 C 
ATOM      9  C   LIG    1       31.922 -17.962   8.137  0.00  0.00    +0.011 C 
ATOM     10  C   LIG    1       29.434 -18.472   8.198  0.00  0.00    +0.051 C 
ATOM     11  C   LIG    1       29.386 -19.617   7.176  0.00  0.00    +0.177 C 
ATOM     12  C   LIG    1       29.690 -20.963   7.836  0.00  0.00    +0.048 C 
ENDBRANCH   3  11
ENDBRANCH   1   3
BRANCH   1  13
ATOM     13  C   LIG    1       26.374 -21.354   6.462  0.00  0.00    +0.253 C 
BRANCH  13  14
ATOM     14  C   LIG    1       25.161 -20.738   5.793  0.00  0.00    -0.008 A 
ATOM     15  C   LIG    1       25.228 -20.204   4.495  0.00  0.00    +0.007 A 
ATOM     16  C   LIG    1       24.104 -19.628   3.899  0.00  0.00    +0.000 A 
ATOM     17  C   LIG    1       22.893 -19.590   4.587  0.00  0.00    +0.000 A 
ATOM     18  C   LIG    1       22.804 -20.134   5.866  0.00  0.00    +0.000 A 
ATOM     19  C   LIG    1       23.928 -20.706   6.465  0.00  0.00    +0.007 A 
ENDBRANCH  13  14
BRANCH  13  20
ATOM     20  O   LIG    1       25.971 -22.503   7.216  0.00  0.00    -0.376 OA
ATOM     21  H   LIG    1       26.005 -22.232   8.154  0.00  0.00    +0.211 HD
ENDBRANCH  13  20
ENDBRANCH   1  13
TORSDOF 5
ENDMDL
MODEL 6
REMARK VINA RESULT:      -7.9      1.925      7.280
REMARK  Name = *****
REMARK                            x       y       z     vdW  Elec       q    Type
REMARK                         _______ _______ _______ _____ _____    ______ ____
ROOT
ATOM      1  C   LIG    1       26.146 -20.585   6.963  0.00  0.00    +0.341 C 
ATOM      2  O   LIG    1       26.355 -20.318   5.786  0.00  0.00    -0.247 OA
ENDROOT
BRANCH   1   3
ATOM      3  O   LIG    1       26.986 -20.306   8.002  0.00  0.00    -0.459 OA
BRANCH   3  11
ATOM      4  C   LIG    1       31.222 -22.471   9.267  0.00  0.00    +0.007 C 
ATOM      5  C   LIG    1       30.599 -21.376   8.400  0.00  0.00    -0.010 C 
ATOM      6  C   LIG    1       31.126 -19.995   8.818  0.00  0.00    +0.010 C 
ATOM      7  C   LIG    1       30.488 -18.827   8.030  0.00  0.00    -0.031 C 
ATOM      8  C   LIG    1       30.930 -17.495   8.667  0.00  0.00    +0.011 C 
ATOM      9  C   LIG    1       30.971 -18.831   6.567  0.00  0.00    +0.011 C 
ATOM     10  C   LIG    1       28.949 -18.932   8.103  0.00  0.00    +0.051 C 
ATOM     11  C   LIG    1       28.398 -20.308   7.703  0.00  0.00    +0.177 C 
ATOM     12  C   LIG    1       29.072 -21.429   8.496  0.00  0.00    +0.048 C 
ENDBRANCH   3  11
ENDBRANCH   1   3
BRANCH   1  13
ATOM     13  C   LIG    1       24.854 -21.250   7.459  0.00  0.00    +0.253 C 
BRANCH  13  14
ATOM     14  C   LIG    1       24.779 -22.717   7.084  0.00  0.00    -0.008 A 
ATOM     15  C   LIG    1       23.555 -23.339   6.785  0.00  0.00    +0.007 A 
ATOM     16  C   LIG    1       23.503 -24.695   6.454  0.00  0.00    +0.000 A 
ATOM     17  C   LIG    1       24.675 -25.445   6.404  0.00  0.00    +0.000 A 
ATOM     18  C   LIG    1       25.899 -24.840   6.677  0.00  0.00    +0.000 A 
ATOM     19  C   LIG    1       25.953 -23.485   7.012  0.00  0.00    +0.007 A 
ENDBRANCH  13  14
BRANCH  13  20
ATOM     20  O   LIG    1       23.702 -20.568   6.950  0.00  0.00    -0.376 OA
ATOM     21  H   LIG    1       23.819 -19.629   7.194  0.00  0.00    +0.211 HD
ENDBRANCH  13  20
ENDBRANCH   1  13
TORSDOF 5
ENDMDL
MODEL 7
REMARK VINA RESULT:      -7.9      4.484      8.377
REMARK  Name = *****
REMARK                            x       y       z     vdW  Elec       q    Type
REMARK                         _______ _______ _______ _____ _____    ______ ____
ROOT
ATOM      1  C   LIG    1       24.740 -25.735   6.085  0.00  0.00    +0.341 C 
ATOM      2  O   LIG    1       23.640 -25.640   5.555  0.00  0.00    -0.247 OA
ENDROOT
BRANCH   1   3
ATOM      3  O   LIG    1       25.303 -24.812   6.917  0.00  0.00    -0.459 OA
BRANCH   3  11
ATOM      4  C   LIG    1       27.698 -20.594   7.757  0.00  0.00    +0.007 C 
ATOM      5  C   LIG    1       26.711 -21.295   6.823  0.00  0.00    -0.010 C 
ATOM      6  C   LIG    1       25.350 -20.581   6.846  0.00  0.00    +0.010 C 
ATOM      7  C   LIG    1       24.276 -21.275   5.977  0.00  0.00    -0.031 C 
ATOM      8  C   LIG    1       22.914 -20.602   6.237  0.00  0.00    +0.011 C 
ATOM      9  C   LIG    1       24.600 -21.114   4.480  0.00  0.00    +0.011 C 
ATOM     10  C   LIG    1       24.180 -22.767   6.363  0.00  0.00    +0.051 C 
ATOM     11  C   LIG    1       25.529 -23.500   6.360  0.00  0.00    +0.177 C 
ATOM     12  C   LIG    1       26.561 -22.767   7.218  0.00  0.00    +0.048 C 
ENDBRANCH   3  11
ENDBRANCH   1   3
BRANCH   1  13
ATOM     13  C   LIG    1       25.649 -26.962   5.921  0.00  0.00    +0.253 C 
BRANCH  13  14
ATOM     14  C   LIG    1       25.507 -27.943   7.067  0.00  0.00    -0.008 A 
ATOM     15  C   LIG    1       26.351 -27.892   8.189  0.00  0.00    +0.007 A 
ATOM     16  C   LIG    1       26.215 -28.812   9.231  0.00  0.00    +0.000 A 
ATOM     17  C   LIG    1       25.224 -29.789   9.171  0.00  0.00    +0.000 A 
ATOM     18  C   LIG    1       24.365 -29.841   8.076  0.00  0.00    +0.000 A 
ATOM     19  C   LIG    1       24.502 -28.924   7.032  0.00  0.00    +0.007 A 
ENDBRANCH  13  14
BRANCH  13  20
ATOM     20  O   LIG    1       27.020 -26.566   5.797  0.00  0.00    -0.376 OA
ATOM     21  H   LIG    1       27.426 -26.737   6.670  0.00  0.00    +0.211 HD
ENDBRANCH  13  20
ENDBRANCH   1  13
TORSDOF 5
ENDMDL
MODEL 8
REMARK VINA RESULT:      -7.7      1.182      2.688
REMARK  Name = *****
REMARK                            x       y       z     vdW  Elec       q    Type
REMARK                         _______ _______ _______ _____ _____    ______ ____
ROOT
ATOM      1  C   LIG    1       28.201 -20.160   7.557  0.00  0.00    +0.341 C 
ATOM      2  O   LIG    1       28.192 -19.967   6.347  0.00  0.00    -0.247 OA
ENDROOT
BRANCH   1   3
ATOM      3  O   LIG    1       27.101 -20.192   8.363  0.00  0.00    -0.459 OA
BRANCH   3  11
ATOM      4  C   LIG    1       25.838 -24.700   6.840  0.00  0.00    +0.007 C 
ATOM      5  C   LIG    1       25.334 -23.269   7.032  0.00  0.00    -0.010 C 
ATOM      6  C   LIG    1       24.941 -22.651   5.681  0.00  0.00    +0.010 C 
ATOM      7  C   LIG    1       24.486 -21.178   5.786  0.00  0.00    -0.031 C 
ATOM      8  C   LIG    1       24.319 -20.605   4.365  0.00  0.00    +0.011 C 
ATOM      9  C   LIG    1       23.122 -21.079   6.494  0.00  0.00    +0.011 C 
ATOM     10  C   LIG    1       25.557 -20.355   6.535  0.00  0.00    +0.051 C 
ATOM     11  C   LIG    1       25.976 -20.959   7.883  0.00  0.00    +0.177 C 
ATOM     12  C   LIG    1       26.401 -22.420   7.730  0.00  0.00    +0.048 C 
ENDBRANCH   3  11
ENDBRANCH   1   3
BRANCH   1  13
ATOM     13  C   LIG    1       29.481 -20.447   8.354  0.00  0.00    +0.253 C 
BRANCH  13  14
ATOM     14  C   LIG    1       30.262 -19.185   8.665  0.00  0.00    -0.008 A 
ATOM     15  C   LIG    1       31.529 -18.947   8.107  0.00  0.00    +0.007 A 
ATOM     16  C   LIG    1       32.241 -17.786   8.414  0.00  0.00    +0.000 A 
ATOM     17  C   LIG    1       31.691 -16.840   9.275  0.00  0.00    +0.000 A 
ATOM     18  C   LIG    1       30.427 -17.050   9.821  0.00  0.00    +0.000 A 
ATOM     19  C   LIG    1       29.715 -18.213   9.518  0.00  0.00    +0.007 A 
ENDBRANCH  13  14
BRANCH  13  20
ATOM     20  O   LIG    1       30.323 -21.369   7.651  0.00  0.00    -0.376 OA
ATOM     21  H   LIG    1       30.670 -21.981   8.329  0.00  0.00    +0.211 HD
ENDBRANCH  13  20
ENDBRANCH   1  13
TORSDOF 5
ENDMDL
MODEL 9
REMARK VINA RESULT:      -7.5      2.273      7.076
REMARK  Name = *****
REMARK                            x       y       z     vdW  Elec       q    Type
REMARK                         _______ _______ _______ _____ _____    ______ ____
ROOT
ATOM      1  C   LIG    1       25.973 -21.597   8.301  0.00  0.00    +0.341 C 
ATOM      2  O   LIG    1       25.811 -21.314   9.482  0.00  0.00    -0.247 OA
ENDROOT
BRANCH   1   3
ATOM      3  O   LIG    1       27.176 -21.696   7.666  0.00  0.00    -0.459 OA
BRANCH   3  11
ATOM      4  C   LIG    1       29.403 -18.198   5.013  0.00  0.00    +0.007 C 
ATOM      5  C   LIG    1       29.268 -18.794   6.414  0.00  0.00    -0.010 C 
ATOM      6  C   LIG    1       30.616 -19.356   6.892  0.00  0.00    +0.010 C 
ATOM      7  C   LIG    1       30.543 -20.040   8.276  0.00  0.00    -0.031 C 
ATOM      8  C   LIG    1       31.887 -20.741   8.558  0.00  0.00    +0.011 C 
ATOM      9  C   LIG    1       30.317 -18.997   9.387  0.00  0.00    +0.011 C 
ATOM     10  C   LIG    1       29.417 -21.097   8.275  0.00  0.00    +0.051 C 
ATOM     11  C   LIG    1       28.062 -20.563   7.789  0.00  0.00    +0.177 C 
ATOM     12  C   LIG    1       28.189 -19.881   6.426  0.00  0.00    +0.048 C 
ENDBRANCH   3  11
ENDBRANCH   1   3
BRANCH   1  13
ATOM     13  C   LIG    1       24.815 -21.933   7.351  0.00  0.00    +0.253 C 
BRANCH  13  14
ATOM     14  C   LIG    1       24.808 -23.393   6.942  0.00  0.00    -0.008 A 
ATOM     15  C   LIG    1       23.616 -24.060   6.612  0.00  0.00    +0.007 A 
ATOM     16  C   LIG    1       23.627 -25.409   6.251  0.00  0.00    +0.000 A 
ATOM     17  C   LIG    1       24.830 -26.107   6.202  0.00  0.00    +0.000 A 
ATOM     18  C   LIG    1       26.024 -25.456   6.505  0.00  0.00    +0.000 A 
ATOM     19  C   LIG    1       26.015 -24.108   6.871  0.00  0.00    +0.007 A 
ENDBRANCH  13  14
BRANCH  13  20
ATOM     20  O   LIG    1       24.861 -21.110   6.179  0.00  0.00    -0.376 OA
ATOM     21  H   LIG    1       24.821 -20.188   6.500  0.00  0.00    +0.211 HD
ENDBRANCH  13  20
ENDBRANCH   1  13
TORSDOF 5
ENDMDL
