MODEL 1
REMARK VINA RESULT:      -6.3      0.000      0.000
REMARK  Name = *****
REMARK                            x       y       z     vdW  Elec       q    Type
REMARK                         _______ _______ _______ _____ _____    ______ ____
ROOT
ATOM      1  C   LIG    1       24.229 -29.574   7.986  0.00  0.00    +0.011 C 
ATOM      2  C   LIG    1       24.040 -30.574   9.125  0.00  0.00    +0.026 C 
ATOM      3  C   LIG    1       25.317 -30.900   9.942  0.00  0.00    +0.133 C 
ATOM      4  C   LIG    1       24.724 -31.383  11.312  0.00  0.00    +0.009 C 
ATOM      5  C   LIG    1       23.580 -30.364  11.570  0.00  0.00    +0.003 C 
ATOM      6  C   LIG    1       23.985 -29.035  12.278  0.00  0.00    +0.018 C 
ATOM      7  C   LIG    1       24.939 -29.198  13.505  0.00  0.00    +0.086 C 
ATOM      8  C   LIG    1       26.143 -30.102  13.090  0.00  0.00    +0.137 C 
ATOM      9 CL   LIG    1       24.037 -30.123  14.825  0.00  0.00    -0.114 Cl
ATOM     10  C   LIG    1       25.363 -27.755  14.086  0.00  0.00    +0.029 C 
ATOM     11  C   LIG    1       24.118 -26.836  14.299  0.00  0.00    -0.054 C 
ATOM     12  C   LIG    1       24.335 -25.595  14.799  0.00  0.00    +0.051 C 
ATOM     13  C   LIG    1       25.283 -24.817  13.911  0.00  0.00    +0.179 C 
ATOM     14  C   LIG    1       26.231 -25.606  13.064  0.00  0.00    +0.047 C 
ATOM     15  O   LIG    1       25.319 -23.594  13.935  0.00  0.00    -0.288 OA
ATOM     16  C   LIG    1       23.055 -26.873  13.211  0.00  0.00    +0.032 C 
ATOM     17  C   LIG    1       26.156 -27.879  15.423  0.00  0.00    +0.022 C 
ATOM     18  C   LIG    1       26.286 -26.949  13.152  0.00  0.00    -0.011 C 
ATOM     19  C   LIG    1       22.716 -28.255  12.684  0.00  0.00    +0.010 C 
ATOM     20  C   LIG    1       24.103 -32.805  11.199  0.00  0.00    +0.015 C 
ATOM     21  C   LIG    1       25.730 -31.441  12.470  0.00  0.00    +0.043 C 
ATOM     22  C   LIG    1       23.008 -30.080  10.156  0.00  0.00    +0.011 C 
ENDROOT
BRANCH   3  23
ATOM     23  O   LIG    1       26.063 -29.704  10.151  0.00  0.00    -0.380 OA
ATOM     24  H   LIG    1       26.862 -29.732   9.590  0.00  0.00    +0.211 HD
ENDBRANCH   3  23
BRANCH   3  25
ATOM     25  C   LIG    1       26.181 -31.981   9.237  0.00  0.00    +0.180 C 
ATOM     26  O   LIG    1       27.309 -32.281   9.640  0.00  0.00    -0.293 OA
BRANCH  25  27
ATOM     27  C   LIG    1       25.591 -32.675   8.031  0.00  0.00    +0.186 C 
ATOM     28 CL   LIG    1       26.478 -32.142   6.589  0.00  0.00    -0.117 Cl
ENDBRANCH  25  27
ENDBRANCH   3  25
BRANCH   8  29
ATOM     29  O   LIG    1       26.997 -30.431  14.193  0.00  0.00    -0.390 OA
ATOM     30  H   LIG    1       26.432 -30.822  14.888  0.00  0.00    +0.210 HD
ENDBRANCH   8  29
TORSDOF 4
ENDMDL
MODEL 2
REMARK VINA RESULT:      -5.2      2.800      3.696
REMARK  Name = *****
REMARK                            x       y       z     vdW  Elec       q    Type
REMARK                         _______ _______ _______ _____ _____    ______ ____
ROOT
ATOM      1  C   LIG    1       21.414 -32.420   9.900  0.00  0.00    +0.011 C 
ATOM      2  C   LIG    1       22.588 -32.386  10.877  0.00  0.00    +0.026 C 
ATOM      3  C   LIG    1       23.529 -31.162  10.743  0.00  0.00    +0.133 C 
ATOM      4  C   LIG    1       24.176 -31.079  12.170  0.00  0.00    +0.009 C 
ATOM      5  C   LIG    1       22.968 -31.340  13.111  0.00  0.00    +0.003 C 
ATOM      6  C   LIG    1       22.107 -30.096  13.491  0.00  0.00    +0.018 C 
ATOM      7  C   LIG    1       22.918 -28.821  13.886  0.00  0.00    +0.086 C 
ATOM      8  C   LIG    1       23.996 -28.549  12.789  0.00  0.00    +0.137 C 
ATOM      9 CL   LIG    1       23.850 -29.181  15.440  0.00  0.00    -0.114 Cl
ATOM     10  C   LIG    1       21.923 -27.581  14.159  0.00  0.00    +0.029 C 
ATOM     11  C   LIG    1       20.759 -27.983  15.120  0.00  0.00    -0.054 C 
ATOM     12  C   LIG    1       19.857 -27.025  15.444  0.00  0.00    +0.051 C 
ATOM     13  C   LIG    1       19.198 -26.466  14.200  0.00  0.00    +0.179 C 
ATOM     14  C   LIG    1       19.964 -26.561  12.919  0.00  0.00    +0.047 C 
ATOM     15  O   LIG    1       18.115 -25.900  14.253  0.00  0.00    -0.288 OA
ATOM     16  C   LIG    1       20.134 -29.352  14.892  0.00  0.00    +0.032 C 
ATOM     17  C   LIG    1       22.679 -26.348  14.741  0.00  0.00    +0.022 C 
ATOM     18  C   LIG    1       21.217 -27.053  12.895  0.00  0.00    -0.011 C 
ATOM     19  C   LIG    1       21.117 -30.473  14.614  0.00  0.00    +0.010 C 
ATOM     20  C   LIG    1       25.226 -32.206  12.390  0.00  0.00    +0.015 C 
ATOM     21  C   LIG    1       24.889 -29.756  12.484  0.00  0.00    +0.043 C 
ATOM     22  C   LIG    1       22.115 -32.383  12.343  0.00  0.00    +0.011 C 
ENDROOT
BRANCH   3  23
ATOM     23  O   LIG    1       22.750 -29.990  10.514  0.00  0.00    -0.380 OA
ATOM     24  H   LIG    1       21.805 -30.233  10.543  0.00  0.00    +0.211 HD
ENDBRANCH   3  23
BRANCH   3  25
ATOM     25  C   LIG    1       24.573 -31.368   9.612  0.00  0.00    +0.180 C 
ATOM     26  O   LIG    1       24.799 -32.480   9.125  0.00  0.00    -0.293 OA
BRANCH  25  27
ATOM     27  C   LIG    1       25.311 -30.149   9.108  0.00  0.00    +0.186 C 
ATOM     28 CL   LIG    1       27.031 -30.333   9.504  0.00  0.00    -0.117 Cl
ENDBRANCH  25  27
ENDBRANCH   3  25
BRANCH   8  29
ATOM     29  O   LIG    1       24.887 -27.484  13.138  0.00  0.00    -0.390 OA
ATOM     30  H   LIG    1       24.765 -26.777  12.475  0.00  0.00    +0.210 HD
ENDBRANCH   8  29
TORSDOF 4
ENDMDL
MODEL 3
REMARK VINA RESULT:      -5.2      3.254      6.527
REMARK  Name = *****
REMARK                            x       y       z     vdW  Elec       q    Type
REMARK                         _______ _______ _______ _____ _____    ______ ____
ROOT
ATOM      1  C   LIG    1       20.588 -26.574  12.872  0.00  0.00    +0.011 C 
ATOM      2  C   LIG    1       21.129 -27.704  13.745  0.00  0.00    +0.026 C 
ATOM      3  C   LIG    1       20.673 -29.131  13.343  0.00  0.00    +0.133 C 
ATOM      4  C   LIG    1       21.810 -30.028  13.947  0.00  0.00    +0.009 C 
ATOM      5  C   LIG    1       23.098 -29.232  13.598  0.00  0.00    +0.003 C 
ATOM      6  C   LIG    1       23.714 -29.496  12.190  0.00  0.00    +0.018 C 
ATOM      7  C   LIG    1       23.800 -30.999  11.772  0.00  0.00    +0.086 C 
ATOM      8  C   LIG    1       22.407 -31.667  12.003  0.00  0.00    +0.137 C 
ATOM      9 CL   LIG    1       24.973 -31.855  12.914  0.00  0.00    -0.114 Cl
ATOM     10  C   LIG    1       24.358 -31.135  10.265  0.00  0.00    +0.029 C 
ATOM     11  C   LIG    1       25.653 -30.286  10.056  0.00  0.00    -0.054 C 
ATOM     12  C   LIG    1       26.235 -30.325   8.832  0.00  0.00    +0.051 C 
ATOM     13  C   LIG    1       25.262 -29.875   7.763  0.00  0.00    +0.179 C 
ATOM     14  C   LIG    1       23.803 -30.035   8.052  0.00  0.00    +0.047 C 
ATOM     15  O   LIG    1       25.654 -29.461   6.680  0.00  0.00    -0.288 OA
ATOM     16  C   LIG    1       25.666 -28.904  10.691  0.00  0.00    +0.032 C 
ATOM     17  C   LIG    1       24.639 -32.620   9.883  0.00  0.00    +0.022 C 
ATOM     18  C   LIG    1       23.383 -30.627   9.186  0.00  0.00    -0.011 C 
ATOM     19  C   LIG    1       25.105 -28.832  12.098  0.00  0.00    +0.010 C 
ATOM     20  C   LIG    1       21.698 -30.133  15.495  0.00  0.00    +0.015 C 
ATOM     21  C   LIG    1       21.851 -31.469  13.417  0.00  0.00    +0.043 C 
ATOM     22  C   LIG    1       22.668 -27.748  13.739  0.00  0.00    +0.011 C 
ENDROOT
BRANCH   3  23
ATOM     23  O   LIG    1       20.688 -29.249  11.923  0.00  0.00    -0.380 OA
ATOM     24  H   LIG    1       19.842 -28.909  11.573  0.00  0.00    +0.211 HD
ENDBRANCH   3  23
BRANCH   3  25
ATOM     25  C   LIG    1       19.268 -29.462  13.917  0.00  0.00    +0.180 C 
ATOM     26  O   LIG    1       18.613 -30.431  13.523  0.00  0.00    -0.293 OA
BRANCH  25  27
ATOM     27  C   LIG    1       18.720 -28.555  14.995  0.00  0.00    +0.186 C 
ATOM     28 CL   LIG    1       17.362 -27.635  14.315  0.00  0.00    -0.117 Cl
ENDBRANCH  25  27
ENDBRANCH   3  25
BRANCH   8  29
ATOM     29  O   LIG    1       22.427 -33.082  11.788  0.00  0.00    -0.390 OA
ATOM     30  H   LIG    1       21.678 -33.461  12.287  0.00  0.00    +0.210 HD
ENDBRANCH   8  29
TORSDOF 4
ENDMDL
MODEL 4
REMARK VINA RESULT:      -4.9      2.492      3.739
REMARK  Name = *****
REMARK                            x       y       z     vdW  Elec       q    Type
REMARK                         _______ _______ _______ _____ _____    ______ ____
ROOT
ATOM      1  C   LIG    1       22.179 -33.449   8.779  0.00  0.00    +0.011 C 
ATOM      2  C   LIG    1       23.683 -33.221   8.648  0.00  0.00    +0.026 C 
ATOM      3  C   LIG    1       24.103 -31.805   8.178  0.00  0.00    +0.133 C 
ATOM      4  C   LIG    1       25.566 -31.688   8.732  0.00  0.00    +0.009 C 
ATOM      5  C   LIG    1       25.444 -32.296  10.157  0.00  0.00    +0.003 C 
ATOM      6  C   LIG    1       24.997 -31.320  11.289  0.00  0.00    +0.018 C 
ATOM      7  C   LIG    1       25.703 -29.927  11.284  0.00  0.00    +0.086 C 
ATOM      8  C   LIG    1       25.622 -29.326   9.844  0.00  0.00    +0.137 C 
ATOM      9 CL   LIG    1       27.499 -30.183  11.631  0.00  0.00    -0.114 Cl
ATOM     10  C   LIG    1       25.087 -28.978  12.434  0.00  0.00    +0.029 C 
ATOM     11  C   LIG    1       25.025 -29.714  13.810  0.00  0.00    -0.054 C 
ATOM     12  C   LIG    1       24.539 -29.020  14.868  0.00  0.00    +0.051 C 
ATOM     13  C   LIG    1       23.133 -28.533  14.590  0.00  0.00    +0.179 C 
ATOM     14  C   LIG    1       22.744 -28.345  13.158  0.00  0.00    +0.047 C 
ATOM     15  O   LIG    1       22.369 -28.241  15.500  0.00  0.00    -0.288 OA
ATOM     16  C   LIG    1       24.577 -31.168  13.781  0.00  0.00    +0.032 C 
ATOM     17  C   LIG    1       25.895 -27.653  12.585  0.00  0.00    +0.022 C 
ATOM     18  C   LIG    1       23.638 -28.530  12.167  0.00  0.00    -0.011 C 
ATOM     19  C   LIG    1       25.168 -32.005  12.662  0.00  0.00    +0.010 C 
ATOM     20  C   LIG    1       26.562 -32.553   7.909  0.00  0.00    +0.015 C 
ATOM     21  C   LIG    1       26.141 -30.264   8.750  0.00  0.00    +0.043 C 
ATOM     22  C   LIG    1       24.415 -33.444   9.985  0.00  0.00    +0.011 C 
ENDROOT
BRANCH   3  23
ATOM     23  O   LIG    1       23.281 -30.832   8.818  0.00  0.00    -0.380 OA
ATOM     24  H   LIG    1       23.140 -31.104   9.746  0.00  0.00    +0.211 HD
ENDBRANCH   3  23
BRANCH   3  25
ATOM     25  C   LIG    1       24.025 -31.673   6.633  0.00  0.00    +0.180 C 
ATOM     26  O   LIG    1       23.957 -32.660   5.894  0.00  0.00    -0.293 OA
BRANCH  25  27
ATOM     27  C   LIG    1       24.024 -30.279   6.048  0.00  0.00    +0.186 C 
ATOM     28 CL   LIG    1       25.531 -30.054   5.137  0.00  0.00    -0.117 Cl
ENDBRANCH  25  27
ENDBRANCH   3  25
BRANCH   8  29
ATOM     29  O   LIG    1       26.372 -28.114   9.706  0.00  0.00    -0.390 OA
ATOM     30  H   LIG    1       26.012 -27.476  10.351  0.00  0.00    +0.210 HD
ENDBRANCH   8  29
TORSDOF 4
ENDMDL
MODEL 5
REMARK VINA RESULT:      -4.9      3.243      5.244
REMARK  Name = *****
REMARK                            x       y       z     vdW  Elec       q    Type
REMARK                         _______ _______ _______ _____ _____    ______ ____
ROOT
ATOM      1  C   LIG    1       23.135 -33.091   5.627  0.00  0.00    +0.011 C 
ATOM      2  C   LIG    1       24.420 -32.972   6.444  0.00  0.00    +0.026 C 
ATOM      3  C   LIG    1       24.783 -31.538   6.907  0.00  0.00    +0.133 C 
ATOM      4  C   LIG    1       25.691 -31.809   8.158  0.00  0.00    +0.009 C 
ATOM      5  C   LIG    1       24.939 -32.957   8.886  0.00  0.00    +0.003 C 
ATOM      6  C   LIG    1       23.808 -32.528   9.871  0.00  0.00    +0.018 C 
ATOM      7  C   LIG    1       24.168 -31.341  10.821  0.00  0.00    +0.086 C 
ATOM      8  C   LIG    1       24.761 -30.174   9.969  0.00  0.00    +0.137 C 
ATOM      9 CL   LIG    1       25.525 -31.890  11.949  0.00  0.00    -0.114 Cl
ATOM     10  C   LIG    1       22.892 -30.927  11.716  0.00  0.00    +0.029 C 
ATOM     11  C   LIG    1       22.236 -32.175  12.389  0.00  0.00    -0.054 C 
ATOM     12  C   LIG    1       21.158 -31.962  13.183  0.00  0.00    +0.051 C 
ATOM     13  C   LIG    1       20.053 -31.272  12.412  0.00  0.00    +0.179 C 
ATOM     14  C   LIG    1       20.452 -30.450  11.229  0.00  0.00    +0.047 C 
ATOM     15  O   LIG    1       18.888 -31.330  12.783  0.00  0.00    -0.288 OA
ATOM     16  C   LIG    1       22.119 -33.424  11.529  0.00  0.00    +0.032 C 
ATOM     17  C   LIG    1       23.266 -29.880  12.809  0.00  0.00    +0.022 C 
ATOM     18  C   LIG    1       21.750 -30.273  10.915  0.00  0.00    -0.011 C 
ATOM     19  C   LIG    1       23.340 -33.750  10.689  0.00  0.00    +0.010 C 
ATOM     20  C   LIG    1       27.099 -32.326   7.744  0.00  0.00    +0.015 C 
ATOM     21  C   LIG    1       25.925 -30.594   9.066  0.00  0.00    +0.043 C 
ATOM     22  C   LIG    1       24.362 -33.817   7.731  0.00  0.00    +0.011 C 
ENDROOT
BRANCH   3  23
ATOM     23  O   LIG    1       23.600 -30.862   7.326  0.00  0.00    -0.380 OA
ATOM     24  H   LIG    1       23.795 -30.372   8.148  0.00  0.00    +0.211 HD
ENDBRANCH   3  23
BRANCH   3  25
ATOM     25  C   LIG    1       25.511 -30.746   5.787  0.00  0.00    +0.180 C 
ATOM     26  O   LIG    1       26.017 -31.308   4.812  0.00  0.00    -0.293 OA
BRANCH  25  27
ATOM     27  C   LIG    1       25.577 -29.242   5.921  0.00  0.00    +0.186 C 
ATOM     28 CL   LIG    1       24.232 -28.539   5.000  0.00  0.00    -0.117 Cl
ENDBRANCH  25  27
ENDBRANCH   3  25
BRANCH   8  29
ATOM     29  O   LIG    1       25.259 -29.098  10.771  0.00  0.00    -0.390 OA
ATOM     30  H   LIG    1       25.075 -28.269  10.288  0.00  0.00    +0.210 HD
ENDBRANCH   8  29
TORSDOF 4
ENDMDL
MODEL 6
REMARK VINA RESULT:      -4.8      2.535      3.127
REMARK  Name = *****
REMARK                            x       y       z     vdW  Elec       q    Type
REMARK                         _______ _______ _______ _____ _____    ______ ____
ROOT
ATOM      1  C   LIG    1       24.025 -30.393   7.517  0.00  0.00    +0.011 C 
ATOM      2  C   LIG    1       24.258 -31.480   8.564  0.00  0.00    +0.026 C 
ATOM      3  C   LIG    1       25.194 -31.086   9.735  0.00  0.00    +0.133 C 
ATOM      4  C   LIG    1       24.746 -32.072  10.870  0.00  0.00    +0.009 C 
ATOM      5  C   LIG    1       23.197 -32.051  10.751  0.00  0.00    +0.003 C 
ATOM      6  C   LIG    1       22.459 -30.915  11.523  0.00  0.00    +0.018 C 
ATOM      7  C   LIG    1       22.957 -30.671  12.984  0.00  0.00    +0.086 C 
ATOM      8  C   LIG    1       24.513 -30.538  12.970  0.00  0.00    +0.137 C 
ATOM      9 CL   LIG    1       22.582 -32.177  13.986  0.00  0.00    -0.114 Cl
ATOM     10  C   LIG    1       22.190 -29.413  13.640  0.00  0.00    +0.029 C 
ATOM     11  C   LIG    1       20.643 -29.524  13.448  0.00  0.00    -0.054 C 
ATOM     12  C   LIG    1       19.877 -28.534  13.968  0.00  0.00    +0.051 C 
ATOM     13  C   LIG    1       20.276 -27.190  13.393  0.00  0.00    +0.179 C 
ATOM     14  C   LIG    1       21.676 -27.050  12.888  0.00  0.00    +0.047 C 
ATOM     15  O   LIG    1       19.505 -26.240  13.404  0.00  0.00    -0.288 OA
ATOM     16  C   LIG    1       20.163 -30.014  12.090  0.00  0.00    +0.032 C 
ATOM     17  C   LIG    1       22.519 -29.260  15.156  0.00  0.00    +0.022 C 
ATOM     18  C   LIG    1       22.563 -28.056  13.014  0.00  0.00    -0.011 C 
ATOM     19  C   LIG    1       20.939 -31.182  11.511  0.00  0.00    +0.010 C 
ATOM     20  C   LIG    1       25.243 -33.521  10.601  0.00  0.00    +0.015 C 
ATOM     21  C   LIG    1       25.230 -31.702  12.280  0.00  0.00    +0.043 C 
ATOM     22  C   LIG    1       22.942 -31.932   9.225  0.00  0.00    +0.011 C 
ENDROOT
BRANCH   3  23
ATOM     23  O   LIG    1       24.910 -29.748  10.138  0.00  0.00    -0.380 OA
ATOM     24  H   LIG    1       25.659 -29.417  10.670  0.00  0.00    +0.211 HD
ENDBRANCH   3  23
BRANCH   3  25
ATOM     25  C   LIG    1       26.690 -31.245   9.346  0.00  0.00    +0.180 C 
ATOM     26  O   LIG    1       27.601 -30.825  10.064  0.00  0.00    -0.293 OA
BRANCH  25  27
ATOM     27  C   LIG    1       27.004 -31.950   8.046  0.00  0.00    +0.186 C 
ATOM     28 CL   LIG    1       27.775 -33.504   8.424  0.00  0.00    -0.117 Cl
ENDBRANCH  25  27
ENDBRANCH   3  25
BRANCH   8  29
ATOM     29  O   LIG    1       25.076 -30.460  14.285  0.00  0.00    -0.390 OA
ATOM     30  H   LIG    1       24.716 -29.654  14.705  0.00  0.00    +0.210 HD
ENDBRANCH   8  29
TORSDOF 4
ENDMDL
MODEL 7
REMARK VINA RESULT:      -4.8      2.261      3.630
REMARK  Name = *****
REMARK                            x       y       z     vdW  Elec       q    Type
REMARK                         _______ _______ _______ _____ _____    ______ ____
ROOT
ATOM      1  C   LIG    1       25.487 -29.041   6.191  0.00  0.00    +0.011 C 
ATOM      2  C   LIG    1       24.837 -30.390   6.488  0.00  0.00    +0.026 C 
ATOM      3  C   LIG    1       25.768 -31.450   7.129  0.00  0.00    +0.133 C 
ATOM      4  C   LIG    1       24.749 -32.397   7.855  0.00  0.00    +0.009 C 
ATOM      5  C   LIG    1       23.747 -31.397   8.496  0.00  0.00    +0.003 C 
ATOM      6  C   LIG    1       24.135 -30.832   9.897  0.00  0.00    +0.018 C 
ATOM      7  C   LIG    1       24.670 -31.889  10.916  0.00  0.00    +0.086 C 
ATOM      8  C   LIG    1       25.790 -32.731  10.226  0.00  0.00    +0.137 C 
ATOM      9 CL   LIG    1       23.304 -33.073  11.299  0.00  0.00    -0.114 Cl
ATOM     10  C   LIG    1       25.128 -31.172  12.286  0.00  0.00    +0.029 C 
ATOM     11  C   LIG    1       24.028 -30.198  12.817  0.00  0.00    -0.054 C 
ATOM     12  C   LIG    1       24.283 -29.540  13.974  0.00  0.00    +0.051 C 
ATOM     13  C   LIG    1       25.548 -28.717  13.855  0.00  0.00    +0.179 C 
ATOM     14  C   LIG    1       26.564 -29.164  12.852  0.00  0.00    +0.047 C 
ATOM     15  O   LIG    1       25.761 -27.767  14.596  0.00  0.00    -0.288 OA
ATOM     16  C   LIG    1       23.320 -29.344  11.776  0.00  0.00    +0.032 C 
ATOM     17  C   LIG    1       25.486 -32.211  13.392  0.00  0.00    +0.022 C 
ATOM     18  C   LIG    1       26.387 -30.295  12.143  0.00  0.00    -0.011 C 
ATOM     19  C   LIG    1       22.937 -30.065  10.498  0.00  0.00    +0.010 C 
ATOM     20  C   LIG    1       23.976 -33.291   6.844  0.00  0.00    +0.015 C 
ATOM     21  C   LIG    1       25.369 -33.348   8.889  0.00  0.00    +0.043 C 
ATOM     22  C   LIG    1       23.644 -30.252   7.453  0.00  0.00    +0.011 C 
ENDROOT
BRANCH   3  23
ATOM     23  O   LIG    1       26.599 -30.822   8.103  0.00  0.00    -0.380 OA
ATOM     24  H   LIG    1       27.467 -30.633   7.698  0.00  0.00    +0.211 HD
ENDBRANCH   3  23
BRANCH   3  25
ATOM     25  C   LIG    1       26.621 -32.181   6.057  0.00  0.00    +0.180 C 
ATOM     26  O   LIG    1       26.381 -32.080   4.850  0.00  0.00    -0.293 OA
BRANCH  25  27
ATOM     27  C   LIG    1       27.777 -33.028   6.538  0.00  0.00    +0.186 C 
ATOM     28 CL   LIG    1       28.511 -33.823   5.131  0.00  0.00    -0.117 Cl
ENDBRANCH  25  27
ENDBRANCH   3  25
BRANCH   8  29
ATOM     29  O   LIG    1       26.240 -33.825  11.034  0.00  0.00    -0.390 OA
ATOM     30  H   LIG    1       25.837 -34.638  10.671  0.00  0.00    +0.210 HD
ENDBRANCH   8  29
TORSDOF 4
ENDMDL
MODEL 8
REMARK VINA RESULT:      -4.7      2.717      4.369
REMARK  Name = *****
REMARK                            x       y       z     vdW  Elec       q    Type
REMARK                         _______ _______ _______ _____ _____    ______ ____
ROOT
ATOM      1  C   LIG    1       22.900 -33.075   6.841  0.00  0.00    +0.011 C 
ATOM      2  C   LIG    1       24.256 -32.940   7.530  0.00  0.00    +0.026 C 
ATOM      3  C   LIG    1       24.747 -31.486   7.750  0.00  0.00    +0.133 C 
ATOM      4  C   LIG    1       25.741 -31.647   8.953  0.00  0.00    +0.009 C 
ATOM      5  C   LIG    1       24.984 -32.622   9.897  0.00  0.00    +0.003 C 
ATOM      6  C   LIG    1       23.973 -31.974  10.892  0.00  0.00    +0.018 C 
ATOM      7  C   LIG    1       24.488 -30.697  11.628  0.00  0.00    +0.086 C 
ATOM      8  C   LIG    1       25.077 -29.709  10.571  0.00  0.00    +0.137 C 
ATOM      9 CL   LIG    1       25.900 -31.182  12.716  0.00  0.00    -0.114 Cl
ATOM     10  C   LIG    1       23.323 -30.066  12.548  0.00  0.00    +0.029 C 
ATOM     11  C   LIG    1       22.651 -31.155  13.445  0.00  0.00    -0.054 C 
ATOM     12  C   LIG    1       21.662 -30.753  14.280  0.00  0.00    +0.051 C 
ATOM     13  C   LIG    1       20.539 -30.097  13.503  0.00  0.00    +0.179 C 
ATOM     14  C   LIG    1       20.886 -29.481  12.185  0.00  0.00    +0.047 C 
ATOM     15  O   LIG    1       19.409 -30.015  13.967  0.00  0.00    -0.288 OA
ATOM     16  C   LIG    1       22.380 -32.501  12.788  0.00  0.00    +0.032 C 
ATOM     17  C   LIG    1       23.856 -28.907  13.444  0.00  0.00    +0.022 C 
ATOM     18  C   LIG    1       22.160 -29.448  11.750  0.00  0.00    -0.011 C 
ATOM     19  C   LIG    1       23.501 -33.031  11.914  0.00  0.00    +0.010 C 
ATOM     20  C   LIG    1       27.073 -32.320   8.512  0.00  0.00    +0.015 C 
ATOM     21  C   LIG    1       26.130 -30.337   9.653  0.00  0.00    +0.043 C 
ATOM     22  C   LIG    1       24.257 -33.589   8.927  0.00  0.00    +0.011 C 
ENDROOT
BRANCH   3  23
ATOM     23  O   LIG    1       23.650 -30.672   8.155  0.00  0.00    -0.380 OA
ATOM     24  H   LIG    1       23.149 -31.146   8.846  0.00  0.00    +0.211 HD
ENDBRANCH   3  23
BRANCH   3  25
ATOM     25  C   LIG    1       25.424 -30.916   6.473  0.00  0.00    +0.180 C 
ATOM     26  O   LIG    1       25.917 -31.649   5.611  0.00  0.00    -0.293 OA
BRANCH  25  27
ATOM     27  C   LIG    1       25.455 -29.414   6.307  0.00  0.00    +0.186 C 
ATOM     28 CL   LIG    1       24.025 -28.925   5.375  0.00  0.00    -0.117 Cl
ENDBRANCH  25  27
ENDBRANCH   3  25
BRANCH   8  29
ATOM     29  O   LIG    1       25.709 -28.570  11.167  0.00  0.00    -0.390 OA
ATOM     30  H   LIG    1       25.001 -27.951  11.431  0.00  0.00    +0.210 HD
ENDBRANCH   8  29
TORSDOF 4
ENDMDL
MODEL 9
REMARK VINA RESULT:      -4.7      2.369      6.539
REMARK  Name = *****
REMARK                            x       y       z     vdW  Elec       q    Type
REMARK                         _______ _______ _______ _____ _____    ______ ____
ROOT
ATOM      1  C   LIG    1       26.769 -26.782  12.861  0.00  0.00    +0.011 C 
ATOM      2  C   LIG    1       26.397 -28.146  13.437  0.00  0.00    +0.026 C 
ATOM      3  C   LIG    1       24.901 -28.533  13.318  0.00  0.00    +0.133 C 
ATOM      4  C   LIG    1       24.953 -30.100  13.383  0.00  0.00    +0.009 C 
ATOM      5  C   LIG    1       26.171 -30.441  12.480  0.00  0.00    +0.003 C 
ATOM      6  C   LIG    1       25.883 -30.570  10.952  0.00  0.00    +0.018 C 
ATOM      7  C   LIG    1       24.606 -31.390  10.582  0.00  0.00    +0.086 C 
ATOM      8  C   LIG    1       23.403 -30.856  11.423  0.00  0.00    +0.137 C 
ATOM      9 CL   LIG    1       24.863 -33.140  11.113  0.00  0.00    -0.114 Cl
ATOM     10  C   LIG    1       24.362 -31.367   8.988  0.00  0.00    +0.029 C 
ATOM     11  C   LIG    1       25.665 -31.729   8.206  0.00  0.00    -0.054 C 
ATOM     12  C   LIG    1       25.592 -31.760   6.852  0.00  0.00    +0.051 C 
ATOM     13  C   LIG    1       25.136 -30.422   6.309  0.00  0.00    +0.179 C 
ATOM     14  C   LIG    1       24.322 -29.557   7.217  0.00  0.00    +0.047 C 
ATOM     15  O   LIG    1       25.366 -30.093   5.153  0.00  0.00    -0.288 OA
ATOM     16  C   LIG    1       26.960 -31.126   8.730  0.00  0.00    +0.032 C 
ATOM     17  C   LIG    1       23.212 -32.330   8.564  0.00  0.00    +0.022 C 
ATOM     18  C   LIG    1       23.949 -29.989   8.437  0.00  0.00    -0.011 C 
ATOM     19  C   LIG    1       27.122 -31.152  10.238  0.00  0.00    +0.010 C 
ATOM     20  C   LIG    1       25.250 -30.605  14.824  0.00  0.00    +0.015 C 
ATOM     21  C   LIG    1       23.670 -30.812  12.931  0.00  0.00    +0.043 C 
ATOM     22  C   LIG    1       27.173 -29.289  12.754  0.00  0.00    +0.011 C 
ENDROOT
BRANCH   3  23
ATOM     23  O   LIG    1       24.410 -28.134  12.041  0.00  0.00    -0.380 OA
ATOM     24  H   LIG    1       23.871 -28.861  11.673  0.00  0.00    +0.211 HD
ENDBRANCH   3  23
BRANCH   3  25
ATOM     25  C   LIG    1       24.059 -27.904  14.462  0.00  0.00    +0.180 C 
ATOM     26  O   LIG    1       24.577 -27.476  15.497  0.00  0.00    -0.293 OA
BRANCH  25  27
ATOM     27  C   LIG    1       22.562 -27.821  14.266  0.00  0.00    +0.186 C 
ATOM     28 CL   LIG    1       22.190 -26.292  13.444  0.00  0.00    -0.117 Cl
ENDBRANCH  25  27
ENDBRANCH   3  25
BRANCH   8  29
ATOM     29  O   LIG    1       22.218 -31.645  11.261  0.00  0.00    -0.390 OA
ATOM     30  H   LIG    1       21.637 -31.453  12.022  0.00  0.00    +0.210 HD
ENDBRANCH   8  29
TORSDOF 4
ENDMDL
