MODEL 1
REMARK VINA RESULT:      13.9      0.000      0.000
REMARK  Name = *****
REMARK                            x       y       z     vdW  Elec       q    Type
REMARK                         _______ _______ _______ _____ _____    ______ ____
ROOT
ATOM      1  C   LIG    1       23.855 -20.719   4.401  0.00  0.00    +0.080 A 
ATOM      2  C   LIG    1       25.111 -20.924   5.017  0.00  0.00    +0.045 A 
ATOM      3  C   LIG    1       25.111 -21.309   6.370  0.00  0.00    +0.024 A 
ATOM      4  C   LIG    1       23.923 -21.570   7.061  0.00  0.00    +0.002 A 
ATOM      5  C   LIG    1       22.698 -21.397   6.430  0.00  0.00    +0.001 A 
ATOM      6  C   LIG    1       22.662 -20.957   5.110  0.00  0.00    +0.017 A 
ENDROOT
BRANCH   1   8
ATOM      7  O   LIG    1       24.305 -20.775   2.055  0.00  0.00    -0.245 OA
ATOM      8  C   LIG    1       23.676 -20.303   2.987  0.00  0.00    +0.341 C 
BRANCH   8   9
ATOM      9  O   LIG    1       22.847 -19.231   2.930  0.00  0.00    -0.460 OA
BRANCH   9  10
ATOM     10  C   LIG    1       21.794 -19.210   3.915  0.00  0.00    +0.247 C 
BRANCH  10  11
ATOM     11  C   LIG    1       21.810 -17.845   4.630  0.00  0.00    +0.125 C 
BRANCH  11  12
ATOM     12  N   LIG    1       21.448 -16.684   3.801  0.00  0.00    -0.296 NA
ATOM     13  C   LIG    1       20.944 -15.532   4.569  0.00  0.00    +0.103 C 
ATOM     14  C   LIG    1       21.985 -14.829   5.463  0.00  0.00    +0.120 C 
ATOM     15  N   LIG    1       23.192 -14.425   4.705  0.00  0.00    -0.327 N 
ATOM     16  C   LIG    1       23.731 -15.490   3.823  0.00  0.00    +0.120 C 
ATOM     17  C   LIG    1       22.613 -16.208   3.017  0.00  0.00    +0.103 C 
BRANCH  15  18
ATOM     18  C   LIG    1       24.093 -13.549   5.334  0.00  0.00    +0.030 A 
ATOM     19  C   LIG    1       25.482 -13.764   5.319  0.00  0.00    +0.035 A 
ATOM     20  C   LIG    1       26.404 -12.863   5.898  0.00  0.00    +0.057 A 
ATOM     21  C   LIG    1       25.929 -11.697   6.508  0.00  0.00    +0.012 A 
ATOM     22  C   LIG    1       24.566 -11.447   6.534  0.00  0.00    +0.002 A 
ATOM     23  C   LIG    1       23.674 -12.362   5.962  0.00  0.00    +0.023 A 
BRANCH  20  24
ATOM     24  C   LIG    1       27.879 -13.163   5.849  0.00  0.00    +0.417 C 
ATOM     25  F   LIG    1       28.336 -13.341   4.580  0.00  0.00    -0.166 F 
ATOM     26  F   LIG    1       28.200 -14.302   6.525  0.00  0.00    -0.166 F 
ATOM     27  F   LIG    1       28.657 -12.182   6.391  0.00  0.00    -0.166 F 
ENDBRANCH  20  24
ENDBRANCH  15  18
ENDBRANCH  11  12
ENDBRANCH  10  11
ENDBRANCH   9  10
ENDBRANCH   8   9
ENDBRANCH   1   8
BRANCH   2  28
ATOM     28  N   LIG    1       26.334 -20.612   4.361  0.00  0.00    -0.313 N 
ATOM     29  H   LIG    1       26.843 -21.467   4.123  0.00  0.00    +0.152 HD
BRANCH  28  30
ATOM     30  C   LIG    1       27.279 -19.594   4.679  0.00  0.00    +0.042 A 
ATOM     31  C   LIG    1       27.107 -18.281   4.166  0.00  0.00    +0.021 A 
ATOM     32  C   LIG    1       28.104 -17.326   4.463  0.00  0.00    +0.073 A 
ATOM     33  C   LIG    1       27.970 -16.035   3.973  0.00  0.00    +0.040 A 
ATOM     34  C   LIG    1       26.879 -15.640   3.184  0.00  0.00    +0.057 A 
ATOM     35  C   LIG    1       25.883 -16.579   2.904  0.00  0.00    +0.013 A 
ATOM     36  N   LIG    1       29.193 -17.611   5.192  0.00  0.00    -0.255 NA
ATOM     37  C   LIG    1       29.344 -18.872   5.639  0.00  0.00    +0.113 A 
ATOM     38  C   LIG    1       25.993 -17.883   3.392  0.00  0.00    +0.012 A 
ATOM     39  C   LIG    1       28.440 -19.887   5.397  0.00  0.00    +0.043 A 
BRANCH  34  40
ATOM     40  C   LIG    1       26.782 -14.237   2.641  0.00  0.00    +0.417 C 
ATOM     41  F   LIG    1       25.711 -14.069   1.817  0.00  0.00    -0.166 F 
ATOM     42  F   LIG    1       27.875 -13.892   1.905  0.00  0.00    -0.166 F 
ATOM     43  F   LIG    1       26.666 -13.282   3.604  0.00  0.00    -0.166 F 
ENDBRANCH  34  40
ENDBRANCH  28  30
ENDBRANCH   2  28
TORSDOF 10
ENDMDL
