MODEL 1
REMARK VINA RESULT:      -8.7      0.000      0.000
REMARK  Name = *****
REMARK                            x       y       z     vdW  Elec       q    Type
REMARK                         _______ _______ _______ _____ _____    ______ ____
ROOT
ATOM      1  C   LIG    1       23.889 -22.735   6.524  0.00  0.00    +0.131 A 
ATOM      2  C   LIG    1       25.273 -22.908   6.271  0.00  0.00    +0.061 A 
ATOM      3  C   LIG    1       25.813 -24.203   6.180  0.00  0.00    +0.043 A 
ATOM      4  C   LIG    1       24.989 -25.312   6.369  0.00  0.00    +0.106 A 
ATOM      5  C   LIG    1       23.637 -25.150   6.663  0.00  0.00    +0.032 A 
ATOM      6  C   LIG    1       23.091 -23.870   6.729  0.00  0.00    +0.048 A 
ENDROOT
BRANCH   2   7
ATOM      7  C   LIG    1       26.227 -21.764   6.095  0.00  0.00    +0.145 C 
ATOM      8  N   LIG    1       25.886 -20.845   5.109  0.00  0.00    -0.305 N 
ATOM      9  H   LIG    1       25.072 -21.005   4.532  0.00  0.00    +0.170 HD
ATOM     10  C   LIG    1       26.622 -19.724   4.810  0.00  0.00    +0.278 C 
ATOM     11  O   LIG    1       26.291 -18.923   3.943  0.00  0.00    -0.266 OA
ATOM     12  C   LIG    1       27.780 -19.636   5.621  0.00  0.00    +0.151 A 
ATOM     13  C   LIG    1       28.081 -20.551   6.588  0.00  0.00    +0.119 A 
ATOM     14  C   LIG    1       29.296 -20.131   7.168  0.00  0.00    +0.089 A 
ATOM     15  N   LIG    1       29.740 -19.015   6.558  0.00  0.00    -0.174 NA
ATOM     16  N   LIG    1       28.785 -18.724   5.649  0.00  0.00    -0.260 N 
ATOM     17  C   LIG    1       28.910 -17.525   4.856  0.00  0.00    +0.173 C 
ATOM     18  N   LIG    1       27.275 -21.659   6.871  0.00  0.00    -0.225 NA
BRANCH  14  19
ATOM     19  C   LIG    1       30.061 -20.747   8.300  0.00  0.00    +0.059 C 
BRANCH  19  20
ATOM     20  C   LIG    1       31.330 -19.971   8.682  0.00  0.00    +0.003 C 
ATOM     21  C   LIG    1       31.046 -18.757   9.552  0.00  0.00    +0.004 C 
ENDBRANCH  19  20
ENDBRANCH  14  19
ENDBRANCH   2   7
BRANCH   4  22
ATOM     22  S   LIG    1       25.622 -26.957   6.170  0.00  0.00    +0.058 S 
ATOM     23  O   LIG    1       25.950 -27.488   7.478  0.00  0.00    -0.153 OA
ATOM     24  O   LIG    1       26.586 -26.927   5.098  0.00  0.00    -0.153 OA
BRANCH  22  25
ATOM     25  N   LIG    1       24.274 -27.736   5.589  0.00  0.00    -0.190 NA
ATOM     26  H   LIG    1       24.063 -27.492   4.606  0.00  0.00    +0.148 HD
BRANCH  25  27
ATOM     27  C   LIG    1       24.021 -29.135   5.930  0.00  0.00    +0.107 C 
BRANCH  27  28
ATOM     28  C   LIG    1       25.128 -30.015   5.340  0.00  0.00    +0.036 C 
BRANCH  28  29
ATOM     29  C   LIG    1       25.067 -31.479   5.836  0.00  0.00    +0.058 C 
ATOM     30  N   LIG    1       24.719 -31.523   7.277  0.00  0.00    -0.302 NA
ATOM     31  C   LIG    1       23.929 -32.708   7.611  0.00  0.00    +0.105 C 
ATOM     32  C   LIG    1       26.002 -31.498   7.991  0.00  0.00    +0.084 C 
ATOM     33  C   LIG    1       26.955 -32.310   7.137  0.00  0.00    +0.017 C 
ATOM     34  C   LIG    1       26.428 -32.169   5.715  0.00  0.00    +0.020 C 
ENDBRANCH  28  29
ENDBRANCH  27  28
ENDBRANCH  25  27
ENDBRANCH  22  25
ENDBRANCH   4  22
BRANCH   1  35
ATOM     35  O   LIG    1       23.390 -21.453   6.554  0.00  0.00    -0.491 OA
BRANCH  35  36
ATOM     36  C   LIG    1       22.539 -21.053   5.469  0.00  0.00    +0.229 C 
BRANCH  36  38
ATOM     37  C   LIG    1       22.899 -19.018   4.025  0.00  0.00    +0.007 C 
ATOM     38  C   LIG    1       22.497 -19.528   5.400  0.00  0.00    +0.037 C 
ENDBRANCH  36  38
ENDBRANCH  35  36
ENDBRANCH   1  35
TORSDOF 11
ENDMDL
MODEL 2
REMARK VINA RESULT:      -8.6      1.560      2.750
REMARK  Name = *****
REMARK                            x       y       z     vdW  Elec       q    Type
REMARK                         _______ _______ _______ _____ _____    ______ ____
ROOT
ATOM      1  C   LIG    1       24.506 -22.208   6.748  0.00  0.00    +0.131 A 
ATOM      2  C   LIG    1       25.874 -22.572   6.678  0.00  0.00    +0.061 A 
ATOM      3  C   LIG    1       26.234 -23.926   6.551  0.00  0.00    +0.043 A 
ATOM      4  C   LIG    1       25.243 -24.907   6.525  0.00  0.00    +0.106 A 
ATOM      5  C   LIG    1       23.898 -24.561   6.640  0.00  0.00    +0.032 A 
ATOM      6  C   LIG    1       23.534 -23.219   6.739  0.00  0.00    +0.048 A 
ENDROOT
BRANCH   2   7
ATOM      7  C   LIG    1       26.995 -21.578   6.738  0.00  0.00    +0.145 C 
ATOM      8  N   LIG    1       27.974 -21.836   7.692  0.00  0.00    -0.305 N 
ATOM      9  H   LIG    1       27.869 -22.619   8.322  0.00  0.00    +0.170 HD
ATOM     10  C   LIG    1       29.087 -21.053   7.888  0.00  0.00    +0.278 C 
ATOM     11  O   LIG    1       29.940 -21.310   8.728  0.00  0.00    -0.266 OA
ATOM     12  C   LIG    1       29.098 -19.943   7.007  0.00  0.00    +0.151 A 
ATOM     13  C   LIG    1       28.125 -19.725   6.075  0.00  0.00    +0.119 A 
ATOM     14  C   LIG    1       28.477 -18.535   5.405  0.00  0.00    +0.089 A 
ATOM     15  N   LIG    1       29.610 -18.026   5.927  0.00  0.00    -0.174 NA
ATOM     16  N   LIG    1       29.976 -18.917   6.874  0.00  0.00    -0.260 N 
ATOM     17  C   LIG    1       31.210 -18.713   7.593  0.00  0.00    +0.173 C 
ATOM     18  N   LIG    1       27.029 -20.576   5.898  0.00  0.00    -0.225 NA
BRANCH  14  19
ATOM     19  C   LIG    1       27.781 -17.855   4.265  0.00  0.00    +0.059 C 
BRANCH  19  20
ATOM     20  C   LIG    1       27.824 -16.322   4.341  0.00  0.00    +0.003 C 
ATOM     21  C   LIG    1       26.764 -15.653   3.480  0.00  0.00    +0.004 C 
ENDBRANCH  19  20
ENDBRANCH  14  19
ENDBRANCH   2   7
BRANCH   4  22
ATOM     22  S   LIG    1       25.660 -26.612   6.275  0.00  0.00    +0.058 S 
ATOM     23  O   LIG    1       26.125 -27.164   7.531  0.00  0.00    -0.153 OA
ATOM     24  O   LIG    1       26.448 -26.696   5.069  0.00  0.00    -0.153 OA
BRANCH  22  25
ATOM     25  N   LIG    1       24.165 -27.245   5.922  0.00  0.00    -0.190 NA
ATOM     26  H   LIG    1       23.535 -26.559   5.473  0.00  0.00    +0.148 HD
BRANCH  25  27
ATOM     27  C   LIG    1       24.039 -28.606   5.403  0.00  0.00    +0.107 C 
BRANCH  27  28
ATOM     28  C   LIG    1       24.149 -29.608   6.557  0.00  0.00    +0.036 C 
BRANCH  28  29
ATOM     29  C   LIG    1       24.475 -31.043   6.084  0.00  0.00    +0.058 C 
ATOM     30  N   LIG    1       23.420 -31.986   6.527  0.00  0.00    -0.302 NA
ATOM     31  C   LIG    1       23.222 -33.073   5.567  0.00  0.00    +0.105 C 
ATOM     32  C   LIG    1       23.861 -32.484   7.837  0.00  0.00    +0.084 C 
ATOM     33  C   LIG    1       25.369 -32.600   7.736  0.00  0.00    +0.017 C 
ATOM     34  C   LIG    1       25.778 -31.555   6.706  0.00  0.00    +0.020 C 
ENDBRANCH  28  29
ENDBRANCH  27  28
ENDBRANCH  25  27
ENDBRANCH  22  25
ENDBRANCH   4  22
BRANCH   1  35
ATOM     35  O   LIG    1       24.194 -20.869   6.819  0.00  0.00    -0.491 OA
BRANCH  35  36
ATOM     36  C   LIG    1       22.941 -20.455   6.255  0.00  0.00    +0.229 C 
BRANCH  36  38
ATOM     37  C   LIG    1       22.317 -18.647   4.612  0.00  0.00    +0.007 C 
ATOM     38  C   LIG    1       23.185 -19.870   4.865  0.00  0.00    +0.037 C 
ENDBRANCH  36  38
ENDBRANCH  35  36
ENDBRANCH   1  35
TORSDOF 11
ENDMDL
MODEL 3
REMARK VINA RESULT:      -8.4      2.110      3.357
REMARK  Name = *****
REMARK                            x       y       z     vdW  Elec       q    Type
REMARK                         _______ _______ _______ _____ _____    ______ ____
ROOT
ATOM      1  C   LIG    1       24.313 -22.248   6.848  0.00  0.00    +0.131 A 
ATOM      2  C   LIG    1       25.666 -22.619   6.650  0.00  0.00    +0.061 A 
ATOM      3  C   LIG    1       25.996 -23.963   6.402  0.00  0.00    +0.043 A 
ATOM      4  C   LIG    1       24.992 -24.930   6.380  0.00  0.00    +0.106 A 
ATOM      5  C   LIG    1       23.665 -24.581   6.619  0.00  0.00    +0.032 A 
ATOM      6  C   LIG    1       23.328 -23.246   6.840  0.00  0.00    +0.048 A 
ENDROOT
BRANCH   2   7
ATOM      7  C   LIG    1       26.804 -21.642   6.697  0.00  0.00    +0.145 C 
ATOM      8  N   LIG    1       27.788 -21.913   7.641  0.00  0.00    -0.305 N 
ATOM      9  H   LIG    1       27.678 -22.693   8.274  0.00  0.00    +0.170 HD
ATOM     10  C   LIG    1       28.915 -21.147   7.824  0.00  0.00    +0.278 C 
ATOM     11  O   LIG    1       29.773 -21.416   8.656  0.00  0.00    -0.266 OA
ATOM     12  C   LIG    1       28.934 -20.039   6.941  0.00  0.00    +0.151 A 
ATOM     13  C   LIG    1       27.955 -19.808   6.018  0.00  0.00    +0.119 A 
ATOM     14  C   LIG    1       28.319 -18.625   5.342  0.00  0.00    +0.089 A 
ATOM     15  N   LIG    1       29.464 -18.132   5.852  0.00  0.00    -0.174 NA
ATOM     16  N   LIG    1       29.827 -19.027   6.796  0.00  0.00    -0.260 N 
ATOM     17  C   LIG    1       31.071 -18.840   7.503  0.00  0.00    +0.173 C 
ATOM     18  N   LIG    1       26.844 -20.642   5.855  0.00  0.00    -0.225 NA
BRANCH  14  19
ATOM     19  C   LIG    1       27.622 -17.936   4.208  0.00  0.00    +0.059 C 
BRANCH  19  20
ATOM     20  C   LIG    1       27.759 -16.407   4.236  0.00  0.00    +0.003 C 
ATOM     21  C   LIG    1       26.643 -15.695   3.488  0.00  0.00    +0.004 C 
ENDBRANCH  19  20
ENDBRANCH  14  19
ENDBRANCH   2   7
BRANCH   4  22
ATOM     22  S   LIG    1       25.365 -26.617   5.981  0.00  0.00    +0.058 S 
ATOM     23  O   LIG    1       26.350 -26.635   4.918  0.00  0.00    -0.153 OA
ATOM     24  O   LIG    1       24.113 -27.326   5.869  0.00  0.00    -0.153 OA
BRANCH  22  25
ATOM     25  N   LIG    1       26.081 -27.116   7.395  0.00  0.00    -0.190 NA
ATOM     26  H   LIG    1       26.035 -26.402   8.141  0.00  0.00    +0.148 HD
BRANCH  25  27
ATOM     27  C   LIG    1       25.914 -28.490   7.866  0.00  0.00    +0.107 C 
BRANCH  27  28
ATOM     28  C   LIG    1       26.326 -28.581   9.339  0.00  0.00    +0.036 C 
BRANCH  28  29
ATOM     29  C   LIG    1       25.895 -29.907  10.008  0.00  0.00    +0.058 C 
ATOM     30  N   LIG    1       24.907 -30.617   9.160  0.00  0.00    -0.302 NA
ATOM     31  C   LIG    1       25.034 -32.070   9.275  0.00  0.00    +0.105 C 
ATOM     32  C   LIG    1       23.591 -30.142   9.609  0.00  0.00    +0.084 C 
ATOM     33  C   LIG    1       23.719 -29.961  11.108  0.00  0.00    +0.017 C 
ATOM     34  C   LIG    1       25.192 -29.657  11.346  0.00  0.00    +0.020 C 
ENDBRANCH  28  29
ENDBRANCH  27  28
ENDBRANCH  25  27
ENDBRANCH  22  25
ENDBRANCH   4  22
BRANCH   1  35
ATOM     35  O   LIG    1       24.027 -20.914   7.035  0.00  0.00    -0.491 OA
BRANCH  35  36
ATOM     36  C   LIG    1       22.926 -20.367   6.295  0.00  0.00    +0.229 C 
BRANCH  36  38
ATOM     37  C   LIG    1       22.526 -18.771   4.385  0.00  0.00    +0.007 C 
ATOM     38  C   LIG    1       23.431 -19.857   4.947  0.00  0.00    +0.037 C 
ENDBRANCH  36  38
ENDBRANCH  35  36
ENDBRANCH   1  35
TORSDOF 11
ENDMDL
MODEL 4
REMARK VINA RESULT:      -8.2      1.765      2.283
REMARK  Name = *****
REMARK                            x       y       z     vdW  Elec       q    Type
REMARK                         _______ _______ _______ _____ _____    ______ ____
ROOT
ATOM      1  C   LIG    1       23.845 -22.849   6.555  0.00  0.00    +0.131 A 
ATOM      2  C   LIG    1       25.214 -23.021   6.231  0.00  0.00    +0.061 A 
ATOM      3  C   LIG    1       25.732 -24.314   6.039  0.00  0.00    +0.043 A 
ATOM      4  C   LIG    1       24.903 -25.424   6.197  0.00  0.00    +0.106 A 
ATOM      5  C   LIG    1       23.567 -25.266   6.560  0.00  0.00    +0.032 A 
ATOM      6  C   LIG    1       23.041 -23.986   6.727  0.00  0.00    +0.048 A 
ENDROOT
BRANCH   2   7
ATOM      7  C   LIG    1       26.174 -21.879   6.082  0.00  0.00    +0.145 C 
ATOM      8  N   LIG    1       25.837 -20.934   5.119  0.00  0.00    -0.305 N 
ATOM      9  H   LIG    1       25.021 -21.074   4.539  0.00  0.00    +0.170 HD
ATOM     10  C   LIG    1       26.580 -19.810   4.847  0.00  0.00    +0.278 C 
ATOM     11  O   LIG    1       26.253 -18.986   4.000  0.00  0.00    -0.266 OA
ATOM     12  C   LIG    1       27.739 -19.749   5.659  0.00  0.00    +0.151 A 
ATOM     13  C   LIG    1       28.036 -20.690   6.602  0.00  0.00    +0.119 A 
ATOM     14  C   LIG    1       29.254 -20.291   7.190  0.00  0.00    +0.089 A 
ATOM     15  N   LIG    1       29.704 -19.163   6.608  0.00  0.00    -0.174 NA
ATOM     16  N   LIG    1       28.750 -18.843   5.707  0.00  0.00    -0.260 N 
ATOM     17  C   LIG    1       28.881 -17.626   4.944  0.00  0.00    +0.173 C 
ATOM     18  N   LIG    1       27.224 -21.799   6.858  0.00  0.00    -0.225 NA
BRANCH  14  19
ATOM     19  C   LIG    1       30.017 -20.939   8.305  0.00  0.00    +0.059 C 
BRANCH  19  20
ATOM     20  C   LIG    1       31.339 -20.232   8.643  0.00  0.00    +0.003 C 
ATOM     21  C   LIG    1       31.145 -18.973   9.473  0.00  0.00    +0.004 C 
ENDBRANCH  19  20
ENDBRANCH  14  19
ENDBRANCH   2   7
BRANCH   4  22
ATOM     22  S   LIG    1       25.504 -27.060   5.873  0.00  0.00    +0.058 S 
ATOM     23  O   LIG    1       26.510 -26.987   4.832  0.00  0.00    -0.153 OA
ATOM     24  O   LIG    1       24.360 -27.932   5.765  0.00  0.00    -0.153 OA
BRANCH  22  25
ATOM     25  N   LIG    1       26.243 -27.407   7.320  0.00  0.00    -0.190 NA
ATOM     26  H   LIG    1       26.499 -26.559   7.853  0.00  0.00    +0.148 HD
BRANCH  25  27
ATOM     27  C   LIG    1       25.771 -28.518   8.147  0.00  0.00    +0.107 C 
BRANCH  27  28
ATOM     28  C   LIG    1       26.565 -28.556   9.457  0.00  0.00    +0.036 C 
BRANCH  28  29
ATOM     29  C   LIG    1       26.386 -29.880  10.236  0.00  0.00    +0.058 C 
ATOM     30  N   LIG    1       25.007 -30.397  10.065  0.00  0.00    -0.302 NA
ATOM     31  C   LIG    1       24.968 -31.860  10.073  0.00  0.00    +0.105 C 
ATOM     32  C   LIG    1       24.231 -29.821  11.172  0.00  0.00    +0.084 C 
ATOM     33  C   LIG    1       25.180 -29.788  12.354  0.00  0.00    +0.017 C 
ATOM     34  C   LIG    1       26.570 -29.673  11.742  0.00  0.00    +0.020 C 
ENDBRANCH  28  29
ENDBRANCH  27  28
ENDBRANCH  25  27
ENDBRANCH  22  25
ENDBRANCH   4  22
BRANCH   1  35
ATOM     35  O   LIG    1       23.365 -21.566   6.683  0.00  0.00    -0.491 OA
BRANCH  35  36
ATOM     36  C   LIG    1       22.594 -21.039   5.592  0.00  0.00    +0.229 C 
BRANCH  36  38
ATOM     37  C   LIG    1       22.384 -18.907   4.264  0.00  0.00    +0.007 C 
ATOM     38  C   LIG    1       22.641 -19.513   5.635  0.00  0.00    +0.037 C 
ENDBRANCH  36  38
ENDBRANCH  35  36
ENDBRANCH   1  35
TORSDOF 11
ENDMDL
MODEL 5
REMARK VINA RESULT:      -8.0      3.660     10.255
REMARK  Name = *****
REMARK                            x       y       z     vdW  Elec       q    Type
REMARK                         _______ _______ _______ _____ _____    ______ ____
ROOT
ATOM      1  C   LIG    1       24.925 -30.147   7.008  0.00  0.00    +0.131 A 
ATOM      2  C   LIG    1       25.344 -29.119   7.890  0.00  0.00    +0.061 A 
ATOM      3  C   LIG    1       25.479 -27.801   7.418  0.00  0.00    +0.043 A 
ATOM      4  C   LIG    1       25.229 -27.517   6.076  0.00  0.00    +0.106 A 
ATOM      5  C   LIG    1       24.862 -28.530   5.193  0.00  0.00    +0.032 A 
ATOM      6  C   LIG    1       24.701 -29.833   5.660  0.00  0.00    +0.048 A 
ENDROOT
BRANCH   2   7
ATOM      7  C   LIG    1       25.667 -29.355   9.336  0.00  0.00    +0.145 C 
ATOM      8  N   LIG    1       27.020 -29.482   9.634  0.00  0.00    -0.305 N 
ATOM      9  H   LIG    1       27.703 -29.469   8.890  0.00  0.00    +0.170 HD
ATOM     10  C   LIG    1       27.516 -29.684  10.900  0.00  0.00    +0.278 C 
ATOM     11  O   LIG    1       28.714 -29.780  11.137  0.00  0.00    -0.266 OA
ATOM     12  C   LIG    1       26.472 -29.763  11.856  0.00  0.00    +0.151 A 
ATOM     13  C   LIG    1       25.154 -29.625  11.530  0.00  0.00    +0.119 A 
ATOM     14  C   LIG    1       24.431 -29.770  12.732  0.00  0.00    +0.089 A 
ATOM     15  N   LIG    1       25.273 -30.019  13.753  0.00  0.00    -0.174 NA
ATOM     16  N   LIG    1       26.503 -29.978  13.196  0.00  0.00    -0.260 N 
ATOM     17  C   LIG    1       27.664 -30.134  14.039  0.00  0.00    +0.173 C 
ATOM     18  N   LIG    1       24.709 -29.388  10.225  0.00  0.00    -0.225 NA
BRANCH  14  19
ATOM     19  C   LIG    1       22.953 -29.671  12.959  0.00  0.00    +0.059 C 
BRANCH  19  20
ATOM     20  C   LIG    1       22.544 -28.500  13.865  0.00  0.00    +0.003 C 
ATOM     21  C   LIG    1       22.650 -27.149  13.175  0.00  0.00    +0.004 C 
ENDBRANCH  19  20
ENDBRANCH  14  19
ENDBRANCH   2   7
BRANCH   4  22
ATOM     22  S   LIG    1       25.303 -25.852   5.472  0.00  0.00    +0.058 S 
ATOM     23  O   LIG    1       25.239 -25.880   4.025  0.00  0.00    -0.153 OA
ATOM     24  O   LIG    1       26.370 -25.180   6.173  0.00  0.00    -0.153 OA
BRANCH  22  25
ATOM     25  N   LIG    1       23.875 -25.246   6.068  0.00  0.00    -0.190 NA
ATOM     26  H   LIG    1       23.234 -25.985   6.402  0.00  0.00    +0.148 HD
BRANCH  25  27
ATOM     27  C   LIG    1       23.866 -24.031   6.881  0.00  0.00    +0.107 C 
BRANCH  27  28
ATOM     28  C   LIG    1       22.699 -23.135   6.454  0.00  0.00    +0.036 C 
BRANCH  28  29
ATOM     29  C   LIG    1       23.022 -21.626   6.561  0.00  0.00    +0.058 C 
ATOM     30  N   LIG    1       23.048 -21.006   5.214  0.00  0.00    -0.302 NA
ATOM     31  C   LIG    1       22.588 -19.617   5.245  0.00  0.00    +0.105 C 
ATOM     32  C   LIG    1       24.441 -21.113   4.759  0.00  0.00    +0.084 C 
ATOM     33  C   LIG    1       25.286 -20.914   6.001  0.00  0.00    +0.017 C 
ATOM     34  C   LIG    1       24.414 -21.392   7.154  0.00  0.00    +0.020 C 
ENDBRANCH  28  29
ENDBRANCH  27  28
ENDBRANCH  25  27
ENDBRANCH  22  25
ENDBRANCH   4  22
BRANCH   1  35
ATOM     35  O   LIG    1       24.755 -31.412   7.522  0.00  0.00    -0.491 OA
BRANCH  35  36
ATOM     36  C   LIG    1       25.494 -32.477   6.906  0.00  0.00    +0.229 C 
BRANCH  36  38
ATOM     37  C   LIG    1       27.892 -33.039   6.368  0.00  0.00    +0.007 C 
ATOM     38  C   LIG    1       26.944 -32.423   7.385  0.00  0.00    +0.037 C 
ENDBRANCH  36  38
ENDBRANCH  35  36
ENDBRANCH   1  35
TORSDOF 11
ENDMDL
MODEL 6
REMARK VINA RESULT:      -7.8      3.324     10.179
REMARK  Name = *****
REMARK                            x       y       z     vdW  Elec       q    Type
REMARK                         _______ _______ _______ _____ _____    ______ ____
ROOT
ATOM      1  C   LIG    1       25.140 -29.670   6.025  0.00  0.00    +0.131 A 
ATOM      2  C   LIG    1       25.028 -28.933   7.230  0.00  0.00    +0.061 A 
ATOM      3  C   LIG    1       24.999 -27.527   7.192  0.00  0.00    +0.043 A 
ATOM      4  C   LIG    1       25.110 -26.865   5.970  0.00  0.00    +0.106 A 
ATOM      5  C   LIG    1       25.266 -27.581   4.786  0.00  0.00    +0.032 A 
ATOM      6  C   LIG    1       25.270 -28.975   4.814  0.00  0.00    +0.048 A 
ENDROOT
BRANCH   2   7
ATOM      7  C   LIG    1       24.942 -29.573   8.583  0.00  0.00    +0.145 C 
ATOM      8  N   LIG    1       24.013 -30.602   8.702  0.00  0.00    -0.305 N 
ATOM      9  H   LIG    1       23.414 -30.832   7.922  0.00  0.00    +0.170 HD
ATOM     10  C   LIG    1       23.800 -31.321   9.854  0.00  0.00    +0.278 C 
ATOM     11  O   LIG    1       22.983 -32.231   9.928  0.00  0.00    -0.266 OA
ATOM     12  C   LIG    1       24.635 -30.869  10.906  0.00  0.00    +0.151 A 
ATOM     13  C   LIG    1       25.544 -29.862  10.753  0.00  0.00    +0.119 A 
ATOM     14  C   LIG    1       26.169 -29.698  12.006  0.00  0.00    +0.089 A 
ATOM     15  N   LIG    1       25.641 -30.553  12.904  0.00  0.00    -0.174 NA
ATOM     16  N   LIG    1       24.738 -31.268  12.200  0.00  0.00    -0.260 N 
ATOM     17  C   LIG    1       24.027 -32.342  12.851  0.00  0.00    +0.173 C 
ATOM     18  N   LIG    1       25.740 -29.185   9.544  0.00  0.00    -0.225 NA
BRANCH  14  19
ATOM     19  C   LIG    1       27.270 -28.758  12.393  0.00  0.00    +0.059 C 
BRANCH  19  20
ATOM     20  C   LIG    1       26.912 -27.276  12.204  0.00  0.00    +0.003 C 
ATOM     21  C   LIG    1       25.782 -26.817  13.111  0.00  0.00    +0.004 C 
ENDBRANCH  19  20
ENDBRANCH  14  19
ENDBRANCH   2   7
BRANCH   4  22
ATOM     22  S   LIG    1       24.985 -25.098   5.881  0.00  0.00    +0.058 S 
ATOM     23  O   LIG    1       24.955 -24.705   4.487  0.00  0.00    -0.153 OA
ATOM     24  O   LIG    1       25.944 -24.546   6.806  0.00  0.00    -0.153 OA
BRANCH  22  25
ATOM     25  N   LIG    1       23.480 -24.863   6.545  0.00  0.00    -0.190 NA
ATOM     26  H   LIG    1       23.341 -25.393   7.422  0.00  0.00    +0.148 HD
BRANCH  25  27
ATOM     27  C   LIG    1       22.867 -23.536   6.542  0.00  0.00    +0.107 C 
BRANCH  27  28
ATOM     28  C   LIG    1       23.699 -22.583   7.407  0.00  0.00    +0.036 C 
BRANCH  28  29
ATOM     29  C   LIG    1       23.732 -21.138   6.859  0.00  0.00    +0.058 C 
ATOM     30  N   LIG    1       23.287 -21.112   5.444  0.00  0.00    -0.302 NA
ATOM     31  C   LIG    1       22.583 -19.872   5.117  0.00  0.00    +0.105 C 
ATOM     32  C   LIG    1       24.509 -21.277   4.646  0.00  0.00    +0.084 C 
ATOM     33  C   LIG    1       25.588 -20.526   5.400  0.00  0.00    +0.017 C 
ATOM     34  C   LIG    1       25.154 -20.570   6.859  0.00  0.00    +0.020 C 
ENDBRANCH  28  29
ENDBRANCH  27  28
ENDBRANCH  25  27
ENDBRANCH  22  25
ENDBRANCH   4  22
BRANCH   1  35
ATOM     35  O   LIG    1       25.112 -31.044   6.101  0.00  0.00    -0.491 OA
BRANCH  35  36
ATOM     36  C   LIG    1       25.877 -31.772   5.129  0.00  0.00    +0.229 C 
BRANCH  36  38
ATOM     37  C   LIG    1       26.843 -32.450   7.357  0.00  0.00    +0.007 C 
ATOM     38  C   LIG    1       26.927 -32.618   5.848  0.00  0.00    +0.037 C 
ENDBRANCH  36  38
ENDBRANCH  35  36
ENDBRANCH   1  35
TORSDOF 11
ENDMDL
MODEL 7
REMARK VINA RESULT:      -7.6      3.396      9.995
REMARK  Name = *****
REMARK                            x       y       z     vdW  Elec       q    Type
REMARK                         _______ _______ _______ _____ _____    ______ ____
ROOT
ATOM      1  C   LIG    1       28.120 -19.818   6.333  0.00  0.00    +0.131 A 
ATOM      2  C   LIG    1       27.848 -21.000   7.066  0.00  0.00    +0.061 A 
ATOM      3  C   LIG    1       28.836 -21.550   7.902  0.00  0.00    +0.043 A 
ATOM      4  C   LIG    1       30.090 -20.947   7.983  0.00  0.00    +0.106 A 
ATOM      5  C   LIG    1       30.381 -19.811   7.230  0.00  0.00    +0.032 A 
ATOM      6  C   LIG    1       29.398 -19.246   6.420  0.00  0.00    +0.048 A 
ENDROOT
BRANCH   2   7
ATOM      7  C   LIG    1       26.537 -21.725   7.001  0.00  0.00    +0.145 C 
ATOM      8  N   LIG    1       25.420 -20.978   7.359  0.00  0.00    -0.305 N 
ATOM      9  H   LIG    1       25.533 -20.031   7.691  0.00  0.00    +0.170 HD
ATOM     10  C   LIG    1       24.132 -21.460   7.347  0.00  0.00    +0.278 C 
ATOM     11  O   LIG    1       23.164 -20.776   7.656  0.00  0.00    -0.266 OA
ATOM     12  C   LIG    1       24.093 -22.817   6.942  0.00  0.00    +0.151 A 
ATOM     13  C   LIG    1       25.209 -23.519   6.588  0.00  0.00    +0.119 A 
ATOM     14  C   LIG    1       24.772 -24.818   6.256  0.00  0.00    +0.089 A 
ATOM     15  N   LIG    1       23.440 -24.918   6.430  0.00  0.00    -0.174 NA
ATOM     16  N   LIG    1       23.055 -23.682   6.816  0.00  0.00    -0.260 N 
ATOM     17  C   LIG    1       21.652 -23.414   7.021  0.00  0.00    +0.173 C 
ATOM     18  N   LIG    1       26.494 -22.966   6.588  0.00  0.00    -0.225 NA
BRANCH  14  19
ATOM     19  C   LIG    1       25.574 -25.984   5.764  0.00  0.00    +0.059 C 
BRANCH  19  20
ATOM     20  C   LIG    1       25.512 -27.211   6.687  0.00  0.00    +0.003 C 
ATOM     21  C   LIG    1       24.494 -28.245   6.235  0.00  0.00    +0.004 C 
ENDBRANCH  19  20
ENDBRANCH  14  19
ENDBRANCH   2   7
BRANCH   4  22
ATOM     22  S   LIG    1       31.325 -21.564   9.096  0.00  0.00    +0.058 S 
ATOM     23  O   LIG    1       32.152 -22.520   8.386  0.00  0.00    -0.153 OA
ATOM     24  O   LIG    1       30.666 -21.901  10.334  0.00  0.00    -0.153 OA
BRANCH  22  25
ATOM     25  N   LIG    1       32.205 -20.183   9.374  0.00  0.00    -0.190 NA
ATOM     26  H   LIG    1       32.983 -20.062   8.704  0.00  0.00    +0.148 HD
BRANCH  25  27
ATOM     27  C   LIG    1       31.535 -18.939   9.749  0.00  0.00    +0.107 C 
BRANCH  27  28
ATOM     28  C   LIG    1       32.226 -17.756   9.062  0.00  0.00    +0.036 C 
BRANCH  28  29
ATOM     29  C   LIG    1       31.843 -16.390   9.677  0.00  0.00    +0.058 C 
ATOM     30  N   LIG    1       33.016 -15.777  10.346  0.00  0.00    -0.302 NA
ATOM     31  C   LIG    1       32.993 -14.317  10.257  0.00  0.00    +0.105 C 
ATOM     32  C   LIG    1       32.963 -16.244  11.738  0.00  0.00    +0.084 C 
ATOM     33  C   LIG    1       31.489 -16.297  12.089  0.00  0.00    +0.017 C 
ATOM     34  C   LIG    1       30.777 -16.544  10.766  0.00  0.00    +0.020 C 
ENDBRANCH  28  29
ENDBRANCH  27  28
ENDBRANCH  25  27
ENDBRANCH  22  25
ENDBRANCH   4  22
BRANCH   1  35
ATOM     35  O   LIG    1       27.110 -19.282   5.567  0.00  0.00    -0.491 OA
BRANCH  35  36
ATOM     36  C   LIG    1       26.575 -20.101   4.517  0.00  0.00    +0.229 C 
BRANCH  36  38
ATOM     37  C   LIG    1       24.281 -20.556   3.577  0.00  0.00    +0.007 C 
ATOM     38  C   LIG    1       25.268 -19.487   4.018  0.00  0.00    +0.037 C 
ENDBRANCH  36  38
ENDBRANCH  35  36
ENDBRANCH   1  35
TORSDOF 11
ENDMDL
MODEL 8
REMARK VINA RESULT:      -7.5      2.984      9.934
REMARK  Name = *****
REMARK                            x       y       z     vdW  Elec       q    Type
REMARK                         _______ _______ _______ _____ _____    ______ ____
ROOT
ATOM      1  C   LIG    1       25.261 -21.829   7.657  0.00  0.00    +0.131 A 
ATOM      2  C   LIG    1       26.264 -22.743   7.248  0.00  0.00    +0.061 A 
ATOM      3  C   LIG    1       27.609 -22.333   7.200  0.00  0.00    +0.043 A 
ATOM      4  C   LIG    1       27.945 -21.020   7.526  0.00  0.00    +0.106 A 
ATOM      5  C   LIG    1       26.959 -20.103   7.884  0.00  0.00    +0.032 A 
ATOM      6  C   LIG    1       25.627 -20.510   7.959  0.00  0.00    +0.048 A 
ENDROOT
BRANCH   2   7
ATOM      7  C   LIG    1       25.975 -24.159   6.846  0.00  0.00    +0.145 C 
ATOM      8  N   LIG    1       25.487 -24.327   5.555  0.00  0.00    -0.305 N 
ATOM      9  H   LIG    1       25.298 -23.520   4.978  0.00  0.00    +0.170 HD
ATOM     10  C   LIG    1       25.180 -25.546   4.998  0.00  0.00    +0.278 C 
ATOM     11  O   LIG    1       24.763 -25.668   3.853  0.00  0.00    -0.266 OA
ATOM     12  C   LIG    1       25.408 -26.603   5.914  0.00  0.00    +0.151 A 
ATOM     13  C   LIG    1       25.897 -26.403   7.173  0.00  0.00    +0.119 A 
ATOM     14  C   LIG    1       25.979 -27.676   7.774  0.00  0.00    +0.089 A 
ATOM     15  N   LIG    1       25.527 -28.620   6.925  0.00  0.00    -0.174 NA
ATOM     16  N   LIG    1       25.218 -27.943   5.798  0.00  0.00    -0.260 N 
ATOM     17  C   LIG    1       24.765 -28.672   4.639  0.00  0.00    +0.173 C 
ATOM     18  N   LIG    1       26.223 -25.139   7.676  0.00  0.00    -0.225 NA
BRANCH  14  19
ATOM     19  C   LIG    1       26.484 -28.044   9.136  0.00  0.00    +0.059 C 
BRANCH  19  20
ATOM     20  C   LIG    1       26.428 -29.551   9.430  0.00  0.00    +0.003 C 
ATOM     21  C   LIG    1       27.387 -29.978  10.530  0.00  0.00    +0.004 C 
ENDBRANCH  19  20
ENDBRANCH  14  19
ENDBRANCH   2   7
BRANCH   4  22
ATOM     22  S   LIG    1       29.639 -20.498   7.562  0.00  0.00    +0.058 S 
ATOM     23  O   LIG    1       29.948 -19.840   6.309  0.00  0.00    -0.153 OA
ATOM     24  O   LIG    1       30.425 -21.603   8.055  0.00  0.00    -0.153 OA
BRANCH  22  25
ATOM     25  N   LIG    1       29.585 -19.363   8.774  0.00  0.00    -0.190 NA
ATOM     26  H   LIG    1       28.636 -19.240   9.166  0.00  0.00    +0.148 HD
BRANCH  25  27
ATOM     27  C   LIG    1       30.660 -19.280   9.762  0.00  0.00    +0.107 C 
BRANCH  27  28
ATOM     28  C   LIG    1       31.770 -18.363   9.237  0.00  0.00    +0.036 C 
BRANCH  28  29
ATOM     29  C   LIG    1       31.609 -16.895   9.693  0.00  0.00    +0.058 C 
ATOM     30  N   LIG    1       32.916 -16.340  10.122  0.00  0.00    -0.302 NA
ATOM     31  C   LIG    1       33.024 -14.911   9.830  0.00  0.00    +0.105 C 
ATOM     32  C   LIG    1       33.005 -16.615  11.563  0.00  0.00    +0.084 C 
ATOM     33  C   LIG    1       31.594 -16.452  12.091  0.00  0.00    +0.017 C 
ATOM     34  C   LIG    1       30.689 -16.784  10.912  0.00  0.00    +0.020 C 
ENDBRANCH  28  29
ENDBRANCH  27  28
ENDBRANCH  25  27
ENDBRANCH  22  25
ENDBRANCH   4  22
BRANCH   1  35
ATOM     35  O   LIG    1       23.965 -22.285   7.741  0.00  0.00    -0.491 OA
BRANCH  35  36
ATOM     36  C   LIG    1       22.949 -21.501   7.097  0.00  0.00    +0.229 C 
BRANCH  36  38
ATOM     37  C   LIG    1       22.482 -20.235   4.968  0.00  0.00    +0.007 C 
ATOM     38  C   LIG    1       23.302 -21.337   5.621  0.00  0.00    +0.037 C 
ENDBRANCH  36  38
ENDBRANCH  35  36
ENDBRANCH   1  35
TORSDOF 11
ENDMDL
MODEL 9
REMARK VINA RESULT:      -7.4      4.931     10.886
REMARK  Name = *****
REMARK                            x       y       z     vdW  Elec       q    Type
REMARK                         _______ _______ _______ _____ _____    ______ ____
ROOT
ATOM      1  C   LIG    1       25.203 -30.163  10.597  0.00  0.00    +0.131 A 
ATOM      2  C   LIG    1       23.938 -30.170   9.959  0.00  0.00    +0.061 A 
ATOM      3  C   LIG    1       23.851 -29.960   8.571  0.00  0.00    +0.043 A 
ATOM      4  C   LIG    1       25.008 -29.715   7.833  0.00  0.00    +0.106 A 
ATOM      5  C   LIG    1       26.251 -29.660   8.460  0.00  0.00    +0.032 A 
ATOM      6  C   LIG    1       26.347 -29.894   9.831  0.00  0.00    +0.048 A 
ENDROOT
BRANCH   2   7
ATOM      7  C   LIG    1       22.647 -30.389  10.691  0.00  0.00    +0.145 C 
ATOM      8  N   LIG    1       21.903 -31.488  10.277  0.00  0.00    -0.305 N 
ATOM      9  H   LIG    1       22.216 -32.043   9.493  0.00  0.00    +0.170 HD
ATOM     10  C   LIG    1       20.703 -31.863  10.835  0.00  0.00    +0.278 C 
ATOM     11  O   LIG    1       20.073 -32.844  10.459  0.00  0.00    -0.266 OA
ATOM     12  C   LIG    1       20.318 -30.977  11.871  0.00  0.00    +0.151 A 
ATOM     13  C   LIG    1       21.078 -29.912  12.259  0.00  0.00    +0.119 A 
ATOM     14  C   LIG    1       20.368 -29.276  13.299  0.00  0.00    +0.089 A 
ATOM     15  N   LIG    1       19.201 -29.910  13.519  0.00  0.00    -0.174 NA
ATOM     16  N   LIG    1       19.214 -30.952  12.661  0.00  0.00    -0.260 N 
ATOM     17  C   LIG    1       18.124 -31.898  12.685  0.00  0.00    +0.173 C 
ATOM     18  N   LIG    1       22.309 -29.597  11.675  0.00  0.00    -0.225 NA
BRANCH  14  19
ATOM     19  C   LIG    1       20.761 -28.079  14.111  0.00  0.00    +0.059 C 
BRANCH  19  20
ATOM     20  C   LIG    1       20.989 -26.811  13.274  0.00  0.00    +0.003 C 
ATOM     21  C   LIG    1       22.436 -26.344  13.284  0.00  0.00    +0.004 C 
ENDBRANCH  19  20
ENDBRANCH  14  19
ENDBRANCH   2   7
BRANCH   4  22
ATOM     22  S   LIG    1       24.940 -29.536   6.070  0.00  0.00    +0.058 S 
ATOM     23  O   LIG    1       23.553 -29.409   5.671  0.00  0.00    -0.153 OA
ATOM     24  O   LIG    1       25.808 -30.535   5.497  0.00  0.00    -0.153 OA
BRANCH  22  25
ATOM     25  N   LIG    1       25.698 -28.069   5.882  0.00  0.00    -0.190 NA
ATOM     26  H   LIG    1       26.439 -28.091   5.161  0.00  0.00    +0.148 HD
BRANCH  25  27
ATOM     27  C   LIG    1       24.928 -26.827   5.915  0.00  0.00    +0.107 C 
BRANCH  27  28
ATOM     28  C   LIG    1       25.842 -25.667   6.325  0.00  0.00    +0.036 C 
BRANCH  28  29
ATOM     29  C   LIG    1       25.081 -24.509   7.011  0.00  0.00    +0.058 C 
ATOM     30  N   LIG    1       24.076 -23.932   6.087  0.00  0.00    -0.302 NA
ATOM     31  C   LIG    1       22.893 -23.448   6.800  0.00  0.00    +0.105 C 
ATOM     32  C   LIG    1       24.770 -22.849   5.376  0.00  0.00    +0.084 C 
ATOM     33  C   LIG    1       25.703 -22.231   6.398  0.00  0.00    +0.017 C 
ATOM     34  C   LIG    1       26.023 -23.357   7.373  0.00  0.00    +0.020 C 
ENDBRANCH  28  29
ENDBRANCH  27  28
ENDBRANCH  25  27
ENDBRANCH  22  25
ENDBRANCH   4  22
BRANCH   1  35
ATOM     35  O   LIG    1       25.250 -30.425  11.947  0.00  0.00    -0.491 OA
BRANCH  35  36
ATOM     36  C   LIG    1       26.067 -29.565  12.756  0.00  0.00    +0.229 C 
BRANCH  36  38
ATOM     37  C   LIG    1       26.574 -27.115  12.451  0.00  0.00    +0.007 C 
ATOM     38  C   LIG    1       25.493 -28.150  12.721  0.00  0.00    +0.037 C 
ENDBRANCH  36  38
ENDBRANCH  35  36
ENDBRANCH   1  35
TORSDOF 11
ENDMDL
