MODEL 1
REMARK VINA RESULT:       0.6      0.000      0.000
REMARK  Name = *****
REMARK                            x       y       z     vdW  Elec       q    Type
REMARK                         _______ _______ _______ _____ _____    ______ ____
ROOT
ATOM      1  C   LIG    1       22.739 -12.109   5.648  0.00  0.00    +0.105 C 
ATOM      2  N   LIG    1       24.083 -12.251   5.054  0.00  0.00    -0.304 NA
ATOM      3  C   LIG    1       24.356 -13.687   5.186  0.00  0.00    +0.093 C 
ATOM      4  C   LIG    1       23.762 -14.187   3.847  0.00  0.00    +0.045 C 
ATOM      5  C   LIG    1       24.613 -13.420   2.871  0.00  0.00    +0.045 C 
ATOM      6  C   LIG    1       26.064 -13.899   2.990  0.00  0.00    +0.001 A 
ATOM      7  C   LIG    1       26.405 -15.244   3.310  0.00  0.00    +0.132 A 
ATOM      8  O   LIG    1       25.647 -16.367   3.062  0.00  0.00    -0.456 OA
ATOM      9  C   LIG    1       24.446 -16.591   3.710  0.00  0.00    +0.132 A 
ATOM     10  C   LIG    1       24.143 -17.891   4.109  0.00  0.00    +0.046 A 
ATOM     11  C   LIG    1       22.871 -18.205   4.650  0.00  0.00    +0.004 A 
ATOM     12  C   LIG    1       21.889 -17.258   4.718  0.00  0.00    +0.001 A 
ATOM     13  C   LIG    1       22.184 -15.973   4.332  0.00  0.00    +0.007 A 
ATOM     14  C   LIG    1       27.656 -15.530   3.875  0.00  0.00    +0.048 A 
ATOM     15  C   LIG    1       28.578 -14.513   4.116  0.00  0.00    +0.023 A 
ATOM     16  C   LIG    1       28.299 -13.222   3.687  0.00  0.00    +0.042 A 
ATOM     17 CL   LIG    1       29.429 -11.960   3.995  0.00  0.00    -0.084 Cl
ATOM     18  C   LIG    1       27.075 -12.921   3.087  0.00  0.00    +0.027 A 
ATOM     19  C   LIG    1       23.490 -15.633   3.887  0.00  0.00    -0.000 A 
ATOM     20  C   LIG    1       24.215 -12.024   3.559  0.00  0.00    +0.093 C 
ENDROOT
TORSDOF 0
ENDMDL
MODEL 2
REMARK VINA RESULT:       1.5      3.641      5.420
REMARK  Name = *****
REMARK                            x       y       z     vdW  Elec       q    Type
REMARK                         _______ _______ _______ _____ _____    ______ ____
ROOT
ATOM      1  C   LIG    1       22.993 -20.083   5.441  0.00  0.00    +0.105 C 
ATOM      2  N   LIG    1       23.578 -18.907   4.768  0.00  0.00    -0.304 NA
ATOM      3  C   LIG    1       24.871 -18.745   5.443  0.00  0.00    +0.093 C 
ATOM      4  C   LIG    1       25.749 -19.642   4.538  0.00  0.00    +0.045 C 
ATOM      5  C   LIG    1       25.579 -18.941   3.218  0.00  0.00    +0.045 C 
ATOM      6  C   LIG    1       26.207 -17.546   3.308  0.00  0.00    +0.001 A 
ATOM      7  C   LIG    1       27.356 -17.271   4.103  0.00  0.00    +0.132 A 
ATOM      8  O   LIG    1       28.343 -18.163   4.461  0.00  0.00    -0.456 OA
ATOM      9  C   LIG    1       28.092 -19.222   5.314  0.00  0.00    +0.132 A 
ATOM     10  C   LIG    1       29.061 -19.555   6.257  0.00  0.00    +0.046 A 
ATOM     11  C   LIG    1       28.922 -20.714   7.062  0.00  0.00    +0.004 A 
ATOM     12  C   LIG    1       27.875 -21.571   6.875  0.00  0.00    +0.001 A 
ATOM     13  C   LIG    1       26.912 -21.245   5.950  0.00  0.00    +0.007 A 
ATOM     14  C   LIG    1       27.601 -15.963   4.544  0.00  0.00    +0.048 A 
ATOM     15  C   LIG    1       26.741 -14.922   4.200  0.00  0.00    +0.023 A 
ATOM     16  C   LIG    1       25.694 -15.164   3.320  0.00  0.00    +0.042 A 
ATOM     17 CL   LIG    1       24.619 -13.884   2.904  0.00  0.00    -0.084 Cl
ATOM     18  C   LIG    1       25.453 -16.452   2.838  0.00  0.00    +0.027 A 
ATOM     19  C   LIG    1       26.996 -20.031   5.216  0.00  0.00    -0.000 A 
ATOM     20  C   LIG    1       23.980 -19.062   3.313  0.00  0.00    +0.093 C 
ENDROOT
TORSDOF 0
ENDMDL
MODEL 3
REMARK VINA RESULT:       2.2      3.523      5.182
REMARK  Name = *****
REMARK                            x       y       z     vdW  Elec       q    Type
REMARK                         _______ _______ _______ _____ _____    ______ ____
ROOT
ATOM      1  C   LIG    1       24.805 -15.480   3.401  0.00  0.00    +0.105 C 
ATOM      2  N   LIG    1       25.704 -16.501   3.973  0.00  0.00    -0.304 NA
ATOM      3  C   LIG    1       24.779 -17.431   4.631  0.00  0.00    +0.093 C 
ATOM      4  C   LIG    1       24.504 -18.398   3.453  0.00  0.00    +0.045 C 
ATOM      5  C   LIG    1       25.897 -18.901   3.187  0.00  0.00    +0.045 C 
ATOM      6  C   LIG    1       26.379 -19.705   4.400  0.00  0.00    +0.001 A 
ATOM      7  C   LIG    1       25.498 -20.480   5.206  0.00  0.00    +0.132 A 
ATOM      8  O   LIG    1       24.309 -21.051   4.812  0.00  0.00    -0.456 OA
ATOM      9  C   LIG    1       23.209 -20.283   4.473  0.00  0.00    +0.132 A 
ATOM     10  C   LIG    1       21.949 -20.719   4.873  0.00  0.00    +0.046 A 
ATOM     11  C   LIG    1       20.778 -20.051   4.436  0.00  0.00    +0.004 A 
ATOM     12  C   LIG    1       20.856 -19.015   3.550  0.00  0.00    +0.001 A 
ATOM     13  C   LIG    1       22.097 -18.575   3.157  0.00  0.00    +0.007 A 
ATOM     14  C   LIG    1       25.851 -20.785   6.528  0.00  0.00    +0.048 A 
ATOM     15  C   LIG    1       27.064 -20.352   7.060  0.00  0.00    +0.023 A 
ATOM     16  C   LIG    1       27.980 -19.708   6.238  0.00  0.00    +0.042 A 
ATOM     17 CL   LIG    1       29.473 -19.156   6.894  0.00  0.00    -0.084 Cl
ATOM     18  C   LIG    1       27.664 -19.426   4.907  0.00  0.00    +0.027 A 
ATOM     19  C   LIG    1       23.275 -19.177   3.674  0.00  0.00    -0.000 A 
ATOM     20  C   LIG    1       26.446 -17.402   3.003  0.00  0.00    +0.093 C 
ENDROOT
TORSDOF 0
ENDMDL
MODEL 4
REMARK VINA RESULT:       2.7      3.753      6.558
REMARK  Name = *****
REMARK                            x       y       z     vdW  Elec       q    Type
REMARK                         _______ _______ _______ _____ _____    ______ ____
ROOT
ATOM      1  C   LIG    1       28.453 -19.385   5.204  0.00  0.00    +0.105 C 
ATOM      2  N   LIG    1       27.025 -19.683   4.981  0.00  0.00    -0.304 NA
ATOM      3  C   LIG    1       26.380 -18.377   5.156  0.00  0.00    +0.093 C 
ATOM      4  C   LIG    1       26.451 -17.857   3.699  0.00  0.00    +0.045 C 
ATOM      5  C   LIG    1       25.653 -18.920   2.994  0.00  0.00    +0.045 C 
ATOM      6  C   LIG    1       24.201 -18.861   3.482  0.00  0.00    +0.001 A 
ATOM      7  C   LIG    1       23.566 -17.643   3.856  0.00  0.00    +0.132 A 
ATOM      8  O   LIG    1       23.872 -16.380   3.399  0.00  0.00    -0.456 OA
ATOM      9  C   LIG    1       25.073 -15.767   3.706  0.00  0.00    +0.132 A 
ATOM     10  C   LIG    1       25.065 -14.403   3.989  0.00  0.00    +0.046 A 
ATOM     11  C   LIG    1       26.279 -13.694   4.171  0.00  0.00    +0.004 A 
ATOM     12  C   LIG    1       27.483 -14.315   3.996  0.00  0.00    +0.001 A 
ATOM     13  C   LIG    1       27.497 -15.662   3.723  0.00  0.00    +0.007 A 
ATOM     14  C   LIG    1       22.466 -17.670   4.725  0.00  0.00    +0.048 A 
ATOM     15  C   LIG    1       21.975 -18.878   5.216  0.00  0.00    +0.023 A 
ATOM     16  C   LIG    1       22.510 -20.073   4.751  0.00  0.00    +0.042 A 
ATOM     17 CL   LIG    1       21.918 -21.568   5.367  0.00  0.00    -0.084 Cl
ATOM     18  C   LIG    1       23.582 -20.071   3.857  0.00  0.00    +0.027 A 
ATOM     19  C   LIG    1       26.283 -16.396   3.642  0.00  0.00    -0.000 A 
ATOM     20  C   LIG    1       26.603 -20.077   3.577  0.00  0.00    +0.093 C 
ENDROOT
TORSDOF 0
ENDMDL
MODEL 5
REMARK VINA RESULT:       3.2      1.078      1.308
REMARK  Name = *****
REMARK                            x       y       z     vdW  Elec       q    Type
REMARK                         _______ _______ _______ _____ _____    ______ ____
ROOT
ATOM      1  C   LIG    1       22.127 -13.953   6.062  0.00  0.00    +0.105 C 
ATOM      2  N   LIG    1       23.459 -13.748   5.460  0.00  0.00    -0.304 NA
ATOM      3  C   LIG    1       24.023 -15.102   5.429  0.00  0.00    +0.093 C 
ATOM      4  C   LIG    1       23.517 -15.560   4.039  0.00  0.00    +0.045 C 
ATOM      5  C   LIG    1       24.173 -14.530   3.160  0.00  0.00    +0.045 C 
ATOM      6  C   LIG    1       25.694 -14.711   3.229  0.00  0.00    +0.001 A 
ATOM      7  C   LIG    1       26.309 -15.984   3.394  0.00  0.00    +0.132 A 
ATOM      8  O   LIG    1       25.793 -17.204   3.017  0.00  0.00    -0.456 OA
ATOM      9  C   LIG    1       24.676 -17.742   3.632  0.00  0.00    +0.132 A 
ATOM     10  C   LIG    1       24.654 -19.112   3.879  0.00  0.00    +0.046 A 
ATOM     11  C   LIG    1       23.484 -19.740   4.375  0.00  0.00    +0.004 A 
ATOM     12  C   LIG    1       22.331 -19.030   4.547  0.00  0.00    +0.001 A 
ATOM     13  C   LIG    1       22.348 -17.676   4.312  0.00  0.00    +0.007 A 
ATOM     14  C   LIG    1       27.603 -16.068   3.928  0.00  0.00    +0.048 A 
ATOM     15  C   LIG    1       28.302 -14.917   4.286  0.00  0.00    +0.023 A 
ATOM     16  C   LIG    1       27.756 -13.671   4.006  0.00  0.00    +0.042 A 
ATOM     17 CL   LIG    1       28.610 -12.246   4.460  0.00  0.00    -0.084 Cl
ATOM     18  C   LIG    1       26.485 -13.563   3.440  0.00  0.00    +0.027 A 
ATOM     19  C   LIG    1       23.548 -17.027   3.913  0.00  0.00    -0.000 A 
ATOM     20  C   LIG    1       23.512 -13.332   4.001  0.00  0.00    +0.093 C 
ENDROOT
TORSDOF 0
ENDMDL
