MODEL 1
REMARK VINA RESULT:      -8.2      0.000      0.000
REMARK  Name = *****
REMARK                            x       y       z     vdW  Elec       q    Type
REMARK                         _______ _______ _______ _____ _____    ______ ____
ROOT
ATOM      1  O   LIG    1       26.843 -21.673   8.817  0.00  0.00    -0.245 OA
ATOM      2  C   LIG    1       27.145 -21.410   7.668  0.00  0.00    +0.340 C 
ENDROOT
BRANCH   2   3
ATOM      3  C   LIG    1       28.361 -20.637   7.295  0.00  0.00    +0.059 A 
ATOM      4  C   LIG    1       29.542 -20.866   8.017  0.00  0.00    +0.015 A 
ATOM      5  C   LIG    1       30.699 -20.141   7.719  0.00  0.00    +0.001 A 
ATOM      6  C   LIG    1       30.683 -19.191   6.699  0.00  0.00    +0.000 A 
ATOM      7  C   LIG    1       29.520 -18.974   5.963  0.00  0.00    +0.001 A 
ATOM      8  C   LIG    1       28.361 -19.697   6.259  0.00  0.00    +0.015 A 
ENDBRANCH   2   3
BRANCH   2   9
ATOM      9  O   LIG    1       26.433 -21.720   6.554  0.00  0.00    -0.456 OA
BRANCH   9  10
ATOM     10  C   LIG    1       25.010 -21.741   6.706  0.00  0.00    +0.268 C 
BRANCH  10  11
ATOM     11  C   LIG    1       24.377 -20.753   5.760  0.00  0.00    -0.010 A 
ATOM     12  C   LIG    1       23.074 -20.284   5.986  0.00  0.00    +0.007 A 
ATOM     13  C   LIG    1       22.480 -19.387   5.098  0.00  0.00    +0.000 A 
ATOM     14  C   LIG    1       23.178 -18.951   3.974  0.00  0.00    +0.000 A 
ATOM     15  C   LIG    1       24.470 -19.414   3.736  0.00  0.00    +0.000 A 
ATOM     16  C   LIG    1       25.065 -20.315   4.621  0.00  0.00    +0.007 A 
ENDBRANCH  10  11
ENDBRANCH   9  10
ENDBRANCH   2   9
TORSDOF 4
ENDMDL
MODEL 2
REMARK VINA RESULT:      -8.2      0.131      1.213
REMARK  Name = *****
REMARK                            x       y       z     vdW  Elec       q    Type
REMARK                         _______ _______ _______ _____ _____    ______ ____
ROOT
ATOM      1  O   LIG    1       26.919 -21.772   8.814  0.00  0.00    -0.245 OA
ATOM      2  C   LIG    1       27.135 -21.459   7.658  0.00  0.00    +0.340 C 
ENDROOT
BRANCH   2   3
ATOM      3  C   LIG    1       28.295 -20.629   7.235  0.00  0.00    +0.059 A 
ATOM      4  C   LIG    1       29.512 -20.789   7.916  0.00  0.00    +0.015 A 
ATOM      5  C   LIG    1       30.618 -20.009   7.570  0.00  0.00    +0.001 A 
ATOM      6  C   LIG    1       30.517 -19.072   6.543  0.00  0.00    +0.000 A 
ATOM      7  C   LIG    1       29.318 -18.924   5.847  0.00  0.00    +0.001 A 
ATOM      8  C   LIG    1       28.210 -19.702   6.190  0.00  0.00    +0.015 A 
ENDBRANCH   2   3
BRANCH   2   9
ATOM      9  O   LIG    1       26.362 -21.758   6.582  0.00  0.00    -0.456 OA
BRANCH   9  10
ATOM     10  C   LIG    1       24.947 -21.682   6.787  0.00  0.00    +0.268 C 
BRANCH  10  11
ATOM     11  C   LIG    1       24.331 -20.744   5.781  0.00  0.00    -0.010 A 
ATOM     12  C   LIG    1       25.056 -20.332   4.653  0.00  0.00    +0.007 A 
ATOM     13  C   LIG    1       24.495 -19.445   3.734  0.00  0.00    +0.000 A 
ATOM     14  C   LIG    1       23.205 -18.957   3.934  0.00  0.00    +0.000 A 
ATOM     15  C   LIG    1       22.477 -19.354   5.054  0.00  0.00    +0.000 A 
ATOM     16  C   LIG    1       23.039 -20.238   5.976  0.00  0.00    +0.007 A 
ENDBRANCH  10  11
ENDBRANCH   9  10
ENDBRANCH   2   9
TORSDOF 4
ENDMDL
MODEL 3
REMARK VINA RESULT:      -8.1      2.219      5.851
REMARK  Name = *****
REMARK                            x       y       z     vdW  Elec       q    Type
REMARK                         _______ _______ _______ _____ _____    ______ ____
ROOT
ATOM      1  O   LIG    1       25.886 -21.043   9.403  0.00  0.00    -0.245 OA
ATOM      2  C   LIG    1       25.653 -21.144   8.213  0.00  0.00    +0.340 C 
ENDROOT
BRANCH   2   3
ATOM      3  C   LIG    1       25.019 -22.341   7.598  0.00  0.00    +0.059 A 
ATOM      4  C   LIG    1       23.647 -22.290   7.304  0.00  0.00    +0.015 A 
ATOM      5  C   LIG    1       23.004 -23.403   6.754  0.00  0.00    +0.001 A 
ATOM      6  C   LIG    1       23.727 -24.565   6.491  0.00  0.00    +0.000 A 
ATOM      7  C   LIG    1       25.094 -24.616   6.759  0.00  0.00    +0.001 A 
ATOM      8  C   LIG    1       25.739 -23.506   7.310  0.00  0.00    +0.015 A 
ENDBRANCH   2   3
BRANCH   2   9
ATOM      9  O   LIG    1       25.958 -20.236   7.249  0.00  0.00    -0.456 OA
BRANCH   9  10
ATOM     10  C   LIG    1       26.882 -20.673   6.247  0.00  0.00    +0.268 C 
BRANCH  10  11
ATOM     11  C   LIG    1       28.281 -20.257   6.622  0.00  0.00    -0.010 A 
ATOM     12  C   LIG    1       28.905 -19.184   5.967  0.00  0.00    +0.007 A 
ATOM     13  C   LIG    1       30.209 -18.814   6.297  0.00  0.00    +0.000 A 
ATOM     14  C   LIG    1       30.905 -19.512   7.282  0.00  0.00    +0.000 A 
ATOM     15  C   LIG    1       30.298 -20.583   7.935  0.00  0.00    +0.000 A 
ATOM     16  C   LIG    1       28.995 -20.958   7.603  0.00  0.00    +0.007 A 
ENDBRANCH  10  11
ENDBRANCH   9  10
ENDBRANCH   2   9
TORSDOF 4
ENDMDL
MODEL 4
REMARK VINA RESULT:      -8.1      0.646      5.613
REMARK  Name = *****
REMARK                            x       y       z     vdW  Elec       q    Type
REMARK                         _______ _______ _______ _____ _____    ______ ____
ROOT
ATOM      1  O   LIG    1       24.449 -21.786   7.979  0.00  0.00    -0.245 OA
ATOM      2  C   LIG    1       24.998 -21.438   6.950  0.00  0.00    +0.340 C 
ENDROOT
BRANCH   2   3
ATOM      3  C   LIG    1       24.335 -20.615   5.903  0.00  0.00    +0.059 A 
ATOM      4  C   LIG    1       25.069 -20.284   4.753  0.00  0.00    +0.015 A 
ATOM      5  C   LIG    1       24.494 -19.487   3.758  0.00  0.00    +0.001 A 
ATOM      6  C   LIG    1       23.188 -19.024   3.904  0.00  0.00    +0.000 A 
ATOM      7  C   LIG    1       22.445 -19.368   5.032  0.00  0.00    +0.001 A 
ATOM      8  C   LIG    1       23.016 -20.164   6.029  0.00  0.00    +0.015 A 
ENDBRANCH   2   3
BRANCH   2   9
ATOM      9  O   LIG    1       26.257 -21.760   6.557  0.00  0.00    -0.456 OA
BRANCH   9  10
ATOM     10  C   LIG    1       27.242 -21.816   7.594  0.00  0.00    +0.268 C 
BRANCH  10  11
ATOM     11  C   LIG    1       28.371 -20.867   7.284  0.00  0.00    -0.010 A 
ATOM     12  C   LIG    1       28.225 -19.885   6.293  0.00  0.00    +0.007 A 
ATOM     13  C   LIG    1       29.278 -19.022   5.989  0.00  0.00    +0.000 A 
ATOM     14  C   LIG    1       30.488 -19.132   6.669  0.00  0.00    +0.000 A 
ATOM     15  C   LIG    1       30.648 -20.107   7.652  0.00  0.00    +0.000 A 
ATOM     16  C   LIG    1       29.597 -20.974   7.954  0.00  0.00    +0.007 A 
ENDBRANCH  10  11
ENDBRANCH   9  10
ENDBRANCH   2   9
TORSDOF 4
ENDMDL
MODEL 5
REMARK VINA RESULT:      -8.0      3.505      5.295
REMARK  Name = *****
REMARK                            x       y       z     vdW  Elec       q    Type
REMARK                         _______ _______ _______ _____ _____    ______ ____
ROOT
ATOM      1  O   LIG    1       22.467 -23.933   6.887  0.00  0.00    -0.245 OA
ATOM      2  C   LIG    1       23.657 -23.899   6.638  0.00  0.00    +0.340 C 
ENDROOT
BRANCH   2   3
ATOM      3  C   LIG    1       24.455 -25.101   6.272  0.00  0.00    +0.059 A 
ATOM      4  C   LIG    1       25.841 -25.071   6.490  0.00  0.00    +0.015 A 
ATOM      5  C   LIG    1       26.632 -26.167   6.132  0.00  0.00    +0.001 A 
ATOM      6  C   LIG    1       26.043 -27.295   5.564  0.00  0.00    +0.000 A 
ATOM      7  C   LIG    1       24.664 -27.341   5.366  0.00  0.00    +0.001 A 
ATOM      8  C   LIG    1       23.871 -26.247   5.721  0.00  0.00    +0.015 A 
ENDBRANCH   2   3
BRANCH   2   9
ATOM      9  O   LIG    1       24.464 -22.807   6.690  0.00  0.00    -0.456 OA
BRANCH   9  10
ATOM     10  C   LIG    1       23.826 -21.575   7.042  0.00  0.00    +0.268 C 
BRANCH  10  11
ATOM     11  C   LIG    1       23.802 -20.650   5.852  0.00  0.00    -0.010 A 
ATOM     12  C   LIG    1       24.922 -20.534   5.016  0.00  0.00    +0.007 A 
ATOM     13  C   LIG    1       24.908 -19.661   3.929  0.00  0.00    +0.000 A 
ATOM     14  C   LIG    1       23.777 -18.892   3.666  0.00  0.00    +0.000 A 
ATOM     15  C   LIG    1       22.659 -18.994   4.492  0.00  0.00    +0.000 A 
ATOM     16  C   LIG    1       22.673 -19.864   5.583  0.00  0.00    +0.007 A 
ENDBRANCH  10  11
ENDBRANCH   9  10
ENDBRANCH   2   9
TORSDOF 4
ENDMDL
MODEL 6
REMARK VINA RESULT:      -7.9      3.570      6.041
REMARK  Name = *****
REMARK                            x       y       z     vdW  Elec       q    Type
REMARK                         _______ _______ _______ _____ _____    ______ ____
ROOT
ATOM      1  O   LIG    1       23.276 -21.396   8.035  0.00  0.00    -0.245 OA
ATOM      2  C   LIG    1       23.777 -21.629   6.952  0.00  0.00    +0.340 C 
ENDROOT
BRANCH   2   3
ATOM      3  C   LIG    1       23.728 -20.684   5.803  0.00  0.00    +0.059 A 
ATOM      4  C   LIG    1       24.848 -20.601   4.961  0.00  0.00    +0.015 A 
ATOM      5  C   LIG    1       24.855 -19.705   3.889  0.00  0.00    +0.001 A 
ATOM      6  C   LIG    1       23.747 -18.895   3.649  0.00  0.00    +0.000 A 
ATOM      7  C   LIG    1       22.622 -18.988   4.467  0.00  0.00    +0.001 A 
ATOM      8  C   LIG    1       22.611 -19.882   5.541  0.00  0.00    +0.015 A 
ENDBRANCH   2   3
BRANCH   2   9
ATOM      9  O   LIG    1       24.413 -22.771   6.584  0.00  0.00    -0.456 OA
BRANCH   9  10
ATOM     10  C   LIG    1       23.655 -23.979   6.711  0.00  0.00    +0.268 C 
BRANCH  10  11
ATOM     11  C   LIG    1       24.498 -25.160   6.307  0.00  0.00    -0.010 A 
ATOM     12  C   LIG    1       25.880 -25.166   6.546  0.00  0.00    +0.007 A 
ATOM     13  C   LIG    1       26.665 -26.249   6.151  0.00  0.00    +0.000 A 
ATOM     14  C   LIG    1       26.078 -27.338   5.510  0.00  0.00    +0.000 A 
ATOM     15  C   LIG    1       24.707 -27.343   5.261  0.00  0.00    +0.000 A 
ATOM     16  C   LIG    1       23.921 -26.257   5.652  0.00  0.00    +0.007 A 
ENDBRANCH  10  11
ENDBRANCH   9  10
ENDBRANCH   2   9
TORSDOF 4
ENDMDL
MODEL 7
REMARK VINA RESULT:      -7.9      3.001      5.817
REMARK  Name = *****
REMARK                            x       y       z     vdW  Elec       q    Type
REMARK                         _______ _______ _______ _____ _____    ______ ____
ROOT
ATOM      1  O   LIG    1       25.114 -20.800   8.463  0.00  0.00    -0.245 OA
ATOM      2  C   LIG    1       25.028 -21.318   7.365  0.00  0.00    +0.340 C 
ENDROOT
BRANCH   2   3
ATOM      3  C   LIG    1       24.490 -20.619   6.167  0.00  0.00    +0.059 A 
ATOM      4  C   LIG    1       23.147 -20.211   6.182  0.00  0.00    +0.015 A 
ATOM      5  C   LIG    1       22.592 -19.578   5.066  0.00  0.00    +0.001 A 
ATOM      6  C   LIG    1       23.374 -19.346   3.936  0.00  0.00    +0.000 A 
ATOM      7  C   LIG    1       24.715 -19.728   3.922  0.00  0.00    +0.001 A 
ATOM      8  C   LIG    1       25.272 -20.362   5.036  0.00  0.00    +0.015 A 
ENDBRANCH   2   3
BRANCH   2   9
ATOM      9  O   LIG    1       25.353 -22.598   7.048  0.00  0.00    -0.456 OA
BRANCH   9  10
ATOM     10  C   LIG    1       24.253 -23.496   6.869  0.00  0.00    +0.268 C 
BRANCH  10  11
ATOM     11  C   LIG    1       24.758 -24.849   6.440  0.00  0.00    -0.010 A 
ATOM     12  C   LIG    1       26.132 -25.135   6.454  0.00  0.00    +0.007 A 
ATOM     13  C   LIG    1       26.602 -26.379   6.034  0.00  0.00    +0.000 A 
ATOM     14  C   LIG    1       25.706 -27.351   5.593  0.00  0.00    +0.000 A 
ATOM     15  C   LIG    1       24.340 -27.078   5.569  0.00  0.00    +0.000 A 
ATOM     16  C   LIG    1       23.868 -25.831   5.984  0.00  0.00    +0.007 A 
ENDBRANCH  10  11
ENDBRANCH   9  10
ENDBRANCH   2   9
TORSDOF 4
ENDMDL
MODEL 8
REMARK VINA RESULT:      -7.8      1.367      5.496
REMARK  Name = *****
REMARK                            x       y       z     vdW  Elec       q    Type
REMARK                         _______ _______ _______ _____ _____    ______ ____
ROOT
ATOM      1  O   LIG    1       22.742 -23.027   6.651  0.00  0.00    -0.245 OA
ATOM      2  C   LIG    1       23.693 -22.341   6.325  0.00  0.00    +0.340 C 
ENDROOT
BRANCH   2   3
ATOM      3  C   LIG    1       23.585 -21.166   5.418  0.00  0.00    +0.059 A 
ATOM      4  C   LIG    1       22.710 -20.128   5.775  0.00  0.00    +0.015 A 
ATOM      5  C   LIG    1       22.556 -19.020   4.937  0.00  0.00    +0.001 A 
ATOM      6  C   LIG    1       23.276 -18.941   3.746  0.00  0.00    +0.000 A 
ATOM      7  C   LIG    1       24.164 -19.958   3.396  0.00  0.00    +0.001 A 
ATOM      8  C   LIG    1       24.320 -21.067   4.231  0.00  0.00    +0.015 A 
ENDBRANCH   2   3
BRANCH   2   9
ATOM      9  O   LIG    1       24.990 -22.536   6.678  0.00  0.00    -0.456 OA
BRANCH   9  10
ATOM     10  C   LIG    1       25.492 -21.681   7.711  0.00  0.00    +0.268 C 
BRANCH  10  11
ATOM     11  C   LIG    1       26.836 -21.127   7.311  0.00  0.00    -0.010 A 
ATOM     12  C   LIG    1       26.954 -20.269   6.208  0.00  0.00    +0.007 A 
ATOM     13  C   LIG    1       28.201 -19.775   5.824  0.00  0.00    +0.000 A 
ATOM     14  C   LIG    1       29.343 -20.135   6.536  0.00  0.00    +0.000 A 
ATOM     15  C   LIG    1       29.240 -20.992   7.630  0.00  0.00    +0.000 A 
ATOM     16  C   LIG    1       27.994 -21.490   8.013  0.00  0.00    +0.007 A 
ENDBRANCH  10  11
ENDBRANCH   9  10
ENDBRANCH   2   9
TORSDOF 4
ENDMDL
MODEL 9
REMARK VINA RESULT:      -7.7      2.423      5.401
REMARK  Name = *****
REMARK                            x       y       z     vdW  Elec       q    Type
REMARK                         _______ _______ _______ _____ _____    ______ ____
ROOT
ATOM      1  O   LIG    1       27.378 -20.343   5.877  0.00  0.00    -0.245 OA
ATOM      2  C   LIG    1       26.251 -20.659   6.207  0.00  0.00    +0.340 C 
ENDROOT
BRANCH   2   3
ATOM      3  C   LIG    1       25.027 -20.188   5.503  0.00  0.00    +0.059 A 
ATOM      4  C   LIG    1       23.790 -20.334   6.150  0.00  0.00    +0.015 A 
ATOM      5  C   LIG    1       22.612 -19.933   5.513  0.00  0.00    +0.001 A 
ATOM      6  C   LIG    1       22.665 -19.380   4.235  0.00  0.00    +0.000 A 
ATOM      7  C   LIG    1       23.892 -19.210   3.595  0.00  0.00    +0.001 A 
ATOM      8  C   LIG    1       25.071 -19.612   4.229  0.00  0.00    +0.015 A 
ENDBRANCH   2   3
BRANCH   2   9
ATOM      9  O   LIG    1       25.905 -21.435   7.266  0.00  0.00    -0.456 OA
BRANCH   9  10
ATOM     10  C   LIG    1       26.585 -22.691   7.369  0.00  0.00    +0.268 C 
BRANCH  10  11
ATOM     11  C   LIG    1       25.680 -23.804   6.906  0.00  0.00    -0.010 A 
ATOM     12  C   LIG    1       26.218 -25.010   6.432  0.00  0.00    +0.007 A 
ATOM     13  C   LIG    1       25.381 -26.031   5.981  0.00  0.00    +0.000 A 
ATOM     14  C   LIG    1       23.999 -25.859   5.996  0.00  0.00    +0.000 A 
ATOM     15  C   LIG    1       23.452 -24.664   6.460  0.00  0.00    +0.000 A 
ATOM     16  C   LIG    1       24.288 -23.639   6.907  0.00  0.00    +0.007 A 
ENDBRANCH  10  11
ENDBRANCH   9  10
ENDBRANCH   2   9
TORSDOF 4
ENDMDL
