MODEL 1
REMARK VINA RESULT:      -6.6      0.000      0.000
REMARK  Name = *****
REMARK                            x       y       z     vdW  Elec       q    Type
REMARK                         _______ _______ _______ _____ _____    ______ ____
ROOT
ATOM      1  N   LIG    1       31.813 -18.527   7.811  0.00  0.00    -0.078 NA
ATOM      2  C   LIG    1       31.291 -19.425   7.032  0.00  0.00    +0.163 C 
ENDROOT
BRANCH   2   3
ATOM      3  C   LIG    1       29.922 -19.959   7.093  0.00  0.00    +0.033 A 
ATOM      4  C   LIG    1       28.908 -19.438   6.279  0.00  0.00    +0.051 A 
ATOM      5 CL   LIG    1       29.188 -18.189   5.117  0.00  0.00    -0.083 Cl
ATOM      6  C   LIG    1       27.618 -19.974   6.344  0.00  0.00    +0.021 A 
ATOM      7  C   LIG    1       27.338 -21.035   7.206  0.00  0.00    +0.003 A 
ATOM      8  C   LIG    1       28.354 -21.571   7.998  0.00  0.00    +0.021 A 
ATOM      9  C   LIG    1       29.646 -21.038   7.940  0.00  0.00    +0.051 A 
ATOM     10 CL   LIG    1       30.857 -21.764   8.936  0.00  0.00    -0.083 Cl
ENDBRANCH   2   3
BRANCH   1  12
ATOM     11  C   LIG    1       31.427 -17.093   9.483  0.00  0.00    +0.404 C 
ATOM     12  N   LIG    1       30.948 -18.101   8.828  0.00  0.00    +0.044 NA
BRANCH  11  13
ATOM     13  N   LIG    1       30.789 -16.511  10.524  0.00  0.00    -0.287 N 
ATOM     14  H   LIG    1       30.627 -17.181  11.268  0.00  0.00    +0.255 HD
ATOM     15  H   LIG    1       29.928 -16.065  10.233  0.00  0.00    +0.255 HD
ENDBRANCH  11  13
BRANCH  11  16
ATOM     16  N   LIG    1       32.604 -16.472   9.228  0.00  0.00    -0.287 N 
ATOM     17  H   LIG    1       32.924 -16.813   8.321  0.00  0.00    +0.255 HD
ATOM     18  H   LIG    1       33.293 -16.671   9.942  0.00  0.00    +0.255 HD
ENDBRANCH  11  16
ENDBRANCH   1  12
TORSDOF 4
ENDMDL
MODEL 2
REMARK VINA RESULT:      -6.6      0.093      2.446
REMARK  Name = *****
REMARK                            x       y       z     vdW  Elec       q    Type
REMARK                         _______ _______ _______ _____ _____    ______ ____
ROOT
ATOM      1  N   LIG    1       31.764 -18.558   7.743  0.00  0.00    -0.078 NA
ATOM      2  C   LIG    1       31.264 -19.472   6.967  0.00  0.00    +0.163 C 
ENDROOT
BRANCH   2   3
ATOM      3  C   LIG    1       29.904 -20.029   7.023  0.00  0.00    +0.033 A 
ATOM      4  C   LIG    1       29.590 -21.077   7.897  0.00  0.00    +0.051 A 
ATOM      5 CL   LIG    1       30.736 -21.752   9.002  0.00  0.00    -0.083 Cl
ATOM      6  C   LIG    1       28.285 -21.579   7.942  0.00  0.00    +0.021 A 
ATOM      7  C   LIG    1       27.291 -21.031   7.132  0.00  0.00    +0.003 A 
ATOM      8  C   LIG    1       27.598 -19.970   6.280  0.00  0.00    +0.021 A 
ATOM      9  C   LIG    1       28.901 -19.465   6.227  0.00  0.00    +0.051 A 
ATOM     10 CL   LIG    1       29.204 -18.138   5.162  0.00  0.00    -0.083 Cl
ENDBRANCH   2   3
BRANCH   1  12
ATOM     11  C   LIG    1       31.365 -17.152   9.435  0.00  0.00    +0.404 C 
ATOM     12  N   LIG    1       30.885 -18.138   8.750  0.00  0.00    +0.044 NA
BRANCH  11  13
ATOM     13  N   LIG    1       30.714 -16.580  10.474  0.00  0.00    -0.287 N 
ATOM     14  H   LIG    1       31.149 -16.832  11.355  0.00  0.00    +0.255 HD
ATOM     15  H   LIG    1       29.728 -16.809  10.468  0.00  0.00    +0.255 HD
ENDBRANCH  11  13
BRANCH  11  16
ATOM     16  N   LIG    1       32.557 -16.544   9.217  0.00  0.00    -0.287 N 
ATOM     17  H   LIG    1       33.275 -17.259   9.336  0.00  0.00    +0.255 HD
ATOM     18  H   LIG    1       32.710 -15.781   9.864  0.00  0.00    +0.255 HD
ENDBRANCH  11  16
ENDBRANCH   1  12
TORSDOF 4
ENDMDL
MODEL 3
REMARK VINA RESULT:      -6.3      5.920      7.699
REMARK  Name = *****
REMARK                            x       y       z     vdW  Elec       q    Type
REMARK                         _______ _______ _______ _____ _____    ______ ____
ROOT
ATOM      1  N   LIG    1       24.973 -22.802   7.370  0.00  0.00    -0.078 NA
ATOM      2  C   LIG    1       24.752 -21.531   7.211  0.00  0.00    +0.163 C 
ENDROOT
BRANCH   2   3
ATOM      3  C   LIG    1       24.916 -20.755   5.972  0.00  0.00    +0.033 A 
ATOM      4  C   LIG    1       26.165 -20.239   5.606  0.00  0.00    +0.051 A 
ATOM      5 CL   LIG    1       27.601 -20.513   6.530  0.00  0.00    -0.083 Cl
ATOM      6  C   LIG    1       26.299 -19.518   4.415  0.00  0.00    +0.021 A 
ATOM      7  C   LIG    1       25.197 -19.323   3.582  0.00  0.00    +0.003 A 
ATOM      8  C   LIG    1       23.959 -19.859   3.934  0.00  0.00    +0.021 A 
ATOM      9  C   LIG    1       23.817 -20.579   5.125  0.00  0.00    +0.051 A 
ATOM     10 CL   LIG    1       22.257 -21.229   5.488  0.00  0.00    -0.083 Cl
ENDBRANCH   2   3
BRANCH   1  12
ATOM     11  C   LIG    1       24.658 -24.336   5.774  0.00  0.00    +0.404 C 
ATOM     12  N   LIG    1       25.468 -23.430   6.220  0.00  0.00    +0.044 NA
BRANCH  11  13
ATOM     13  N   LIG    1       24.919 -25.095   4.685  0.00  0.00    -0.287 N 
ATOM     14  H   LIG    1       24.599 -24.635   3.840  0.00  0.00    +0.255 HD
ATOM     15  H   LIG    1       24.525 -26.024   4.774  0.00  0.00    +0.255 HD
ENDBRANCH  11  13
BRANCH  11  16
ATOM     16  N   LIG    1       23.451 -24.648   6.305  0.00  0.00    -0.287 N 
ATOM     17  H   LIG    1       22.896 -23.792   6.292  0.00  0.00    +0.255 HD
ATOM     18  H   LIG    1       23.539 -24.995   7.252  0.00  0.00    +0.255 HD
ENDBRANCH  11  16
ENDBRANCH   1  12
TORSDOF 4
ENDMDL
MODEL 4
REMARK VINA RESULT:      -6.3      5.905      7.548
REMARK  Name = *****
REMARK                            x       y       z     vdW  Elec       q    Type
REMARK                         _______ _______ _______ _____ _____    ______ ____
ROOT
ATOM      1  N   LIG    1       24.997 -22.827   7.384  0.00  0.00    -0.078 NA
ATOM      2  C   LIG    1       24.768 -21.562   7.201  0.00  0.00    +0.163 C 
ENDROOT
BRANCH   2   3
ATOM      3  C   LIG    1       24.936 -20.806   5.950  0.00  0.00    +0.033 A 
ATOM      4  C   LIG    1       23.855 -20.595   5.086  0.00  0.00    +0.051 A 
ATOM      5 CL   LIG    1       22.253 -21.142   5.437  0.00  0.00    -0.083 Cl
ATOM      6  C   LIG    1       24.037 -19.859   3.909  0.00  0.00    +0.021 A 
ATOM      7  C   LIG    1       25.286 -19.323   3.600  0.00  0.00    +0.003 A 
ATOM      8  C   LIG    1       26.357 -19.512   4.474  0.00  0.00    +0.021 A 
ATOM      9  C   LIG    1       26.184 -20.249   5.650  0.00  0.00    +0.051 A 
ATOM     10 CL   LIG    1       27.550 -20.428   6.693  0.00  0.00    -0.083 Cl
ENDBRANCH   2   3
BRANCH   1  12
ATOM     11  C   LIG    1       24.675 -24.340   5.770  0.00  0.00    +0.404 C 
ATOM     12  N   LIG    1       25.506 -23.472   6.248  0.00  0.00    +0.044 NA
BRANCH  11  13
ATOM     13  N   LIG    1       24.942 -25.106   4.687  0.00  0.00    -0.287 N 
ATOM     14  H   LIG    1       25.864 -25.523   4.758  0.00  0.00    +0.255 HD
ATOM     15  H   LIG    1       24.836 -24.585   3.825  0.00  0.00    +0.255 HD
ENDBRANCH  11  13
BRANCH  11  16
ATOM     16  N   LIG    1       23.438 -24.603   6.256  0.00  0.00    -0.287 N 
ATOM     17  H   LIG    1       23.524 -25.439   6.835  0.00  0.00    +0.255 HD
ATOM     18  H   LIG    1       22.770 -24.758   5.512  0.00  0.00    +0.255 HD
ENDBRANCH  11  16
ENDBRANCH   1  12
TORSDOF 4
ENDMDL
MODEL 5
REMARK VINA RESULT:      -6.1      6.293      7.860
REMARK  Name = *****
REMARK                            x       y       z     vdW  Elec       q    Type
REMARK                         _______ _______ _______ _____ _____    ______ ____
ROOT
ATOM      1  N   LIG    1       25.771 -23.778   7.243  0.00  0.00    -0.078 NA
ATOM      2  C   LIG    1       25.303 -22.584   7.448  0.00  0.00    +0.163 C 
ENDROOT
BRANCH   2   3
ATOM      3  C   LIG    1       24.580 -21.741   6.484  0.00  0.00    +0.033 A 
ATOM      4  C   LIG    1       25.225 -20.692   5.818  0.00  0.00    +0.051 A 
ATOM      5 CL   LIG    1       26.906 -20.344   6.023  0.00  0.00    -0.083 Cl
ATOM      6  C   LIG    1       24.519 -19.915   4.893  0.00  0.00    +0.021 A 
ATOM      7  C   LIG    1       23.178 -20.188   4.621  0.00  0.00    +0.003 A 
ATOM      8  C   LIG    1       22.543 -21.249   5.267  0.00  0.00    +0.021 A 
ATOM      9  C   LIG    1       23.241 -22.028   6.194  0.00  0.00    +0.051 A 
ATOM     10 CL   LIG    1       22.395 -23.337   6.942  0.00  0.00    -0.083 Cl
ENDBRANCH   2   3
BRANCH   1  12
ATOM     11  C   LIG    1       25.683 -25.520   5.843  0.00  0.00    +0.404 C 
ATOM     12  N   LIG    1       25.580 -24.233   5.931  0.00  0.00    +0.044 NA
BRANCH  11  13
ATOM     13  N   LIG    1       25.558 -26.198   4.679  0.00  0.00    -0.287 N 
ATOM     14  H   LIG    1       25.251 -25.583   3.934  0.00  0.00    +0.255 HD
ATOM     15  H   LIG    1       24.945 -26.998   4.777  0.00  0.00    +0.255 HD
ENDBRANCH  11  13
BRANCH  11  16
ATOM     16  N   LIG    1       25.913 -26.367   6.875  0.00  0.00    -0.287 N 
ATOM     17  H   LIG    1       26.622 -25.927   7.462  0.00  0.00    +0.255 HD
ATOM     18  H   LIG    1       26.235 -27.270   6.552  0.00  0.00    +0.255 HD
ENDBRANCH  11  16
ENDBRANCH   1  12
TORSDOF 4
ENDMDL
MODEL 6
REMARK VINA RESULT:      -6.1      5.686      7.379
REMARK  Name = *****
REMARK                            x       y       z     vdW  Elec       q    Type
REMARK                         _______ _______ _______ _____ _____    ______ ____
ROOT
ATOM      1  N   LIG    1       23.878 -22.099   5.723  0.00  0.00    -0.078 NA
ATOM      2  C   LIG    1       24.358 -21.015   6.254  0.00  0.00    +0.163 C 
ENDROOT
BRANCH   2   3
ATOM      3  C   LIG    1       25.777 -20.646   6.376  0.00  0.00    +0.033 A 
ATOM      4  C   LIG    1       26.512 -20.980   7.520  0.00  0.00    +0.051 A 
ATOM      5 CL   LIG    1       25.845 -21.886   8.833  0.00  0.00    -0.083 Cl
ATOM      6  C   LIG    1       27.864 -20.631   7.606  0.00  0.00    +0.021 A 
ATOM      7  C   LIG    1       28.488 -19.965   6.550  0.00  0.00    +0.003 A 
ATOM      8  C   LIG    1       27.762 -19.655   5.400  0.00  0.00    +0.021 A 
ATOM      9  C   LIG    1       26.409 -19.998   5.309  0.00  0.00    +0.051 A 
ATOM     10 CL   LIG    1       25.578 -19.599   3.848  0.00  0.00    -0.083 Cl
ENDBRANCH   2   3
BRANCH   1  12
ATOM     11  C   LIG    1       24.632 -24.203   5.678  0.00  0.00    +0.404 C 
ATOM     12  N   LIG    1       24.867 -22.993   5.288  0.00  0.00    +0.044 NA
BRANCH  11  13
ATOM     13  N   LIG    1       25.450 -25.245   5.401  0.00  0.00    -0.287 N 
ATOM     14  H   LIG    1       25.789 -25.194   4.446  0.00  0.00    +0.255 HD
ATOM     15  H   LIG    1       25.001 -26.133   5.588  0.00  0.00    +0.255 HD
ENDBRANCH  11  13
BRANCH  11  16
ATOM     16  N   LIG    1       23.556 -24.610   6.394  0.00  0.00    -0.287 N 
ATOM     17  H   LIG    1       23.087 -23.764   6.721  0.00  0.00    +0.255 HD
ATOM     18  H   LIG    1       23.827 -25.187   7.179  0.00  0.00    +0.255 HD
ENDBRANCH  11  16
ENDBRANCH   1  12
TORSDOF 4
ENDMDL
MODEL 7
REMARK VINA RESULT:      -6.1      5.682      7.007
REMARK  Name = *****
REMARK                            x       y       z     vdW  Elec       q    Type
REMARK                         _______ _______ _______ _____ _____    ______ ____
ROOT
ATOM      1  N   LIG    1       23.920 -22.168   5.748  0.00  0.00    -0.078 NA
ATOM      2  C   LIG    1       24.401 -21.074   6.256  0.00  0.00    +0.163 C 
ENDROOT
BRANCH   2   3
ATOM      3  C   LIG    1       25.818 -20.687   6.339  0.00  0.00    +0.033 A 
ATOM      4  C   LIG    1       26.437 -19.992   5.293  0.00  0.00    +0.051 A 
ATOM      5 CL   LIG    1       25.591 -19.489   3.871  0.00  0.00    -0.083 Cl
ATOM      6  C   LIG    1       27.781 -19.621   5.402  0.00  0.00    +0.021 A 
ATOM      7  C   LIG    1       28.505 -19.928   6.554  0.00  0.00    +0.003 A 
ATOM      8  C   LIG    1       27.882 -20.598   7.607  0.00  0.00    +0.021 A 
ATOM      9  C   LIG    1       26.539 -20.974   7.503  0.00  0.00    +0.051 A 
ATOM     10 CL   LIG    1       25.827 -21.786   8.853  0.00  0.00    -0.083 Cl
ENDBRANCH   2   3
BRANCH   1  12
ATOM     11  C   LIG    1       24.668 -24.273   5.658  0.00  0.00    +0.404 C 
ATOM     12  N   LIG    1       24.908 -23.055   5.296  0.00  0.00    +0.044 NA
BRANCH  11  13
ATOM     13  N   LIG    1       25.483 -25.311   5.360  0.00  0.00    -0.287 N 
ATOM     14  H   LIG    1       26.202 -25.420   6.068  0.00  0.00    +0.255 HD
ATOM     15  H   LIG    1       25.885 -25.218   4.435  0.00  0.00    +0.255 HD
ENDBRANCH  11  13
BRANCH  11  16
ATOM     16  N   LIG    1       23.587 -24.692   6.360  0.00  0.00    -0.287 N 
ATOM     17  H   LIG    1       23.368 -23.952   7.027  0.00  0.00    +0.255 HD
ATOM     18  H   LIG    1       23.772 -25.560   6.846  0.00  0.00    +0.255 HD
ENDBRANCH  11  16
ENDBRANCH   1  12
TORSDOF 4
ENDMDL
MODEL 8
REMARK VINA RESULT:      -5.9      7.084      8.461
REMARK  Name = *****
REMARK                            x       y       z     vdW  Elec       q    Type
REMARK                         _______ _______ _______ _____ _____    ______ ____
ROOT
ATOM      1  N   LIG    1       23.345 -24.607   6.518  0.00  0.00    -0.078 NA
ATOM      2  C   LIG    1       23.274 -23.357   6.867  0.00  0.00    +0.163 C 
ENDROOT
BRANCH   2   3
ATOM      3  C   LIG    1       24.015 -22.233   6.276  0.00  0.00    +0.033 A 
ATOM      4  C   LIG    1       23.395 -21.354   5.379  0.00  0.00    +0.051 A 
ATOM      5 CL   LIG    1       21.726 -21.480   4.945  0.00  0.00    -0.083 Cl
ATOM      6  C   LIG    1       24.117 -20.283   4.842  0.00  0.00    +0.021 A 
ATOM      7  C   LIG    1       25.447 -20.076   5.207  0.00  0.00    +0.003 A 
ATOM      8  C   LIG    1       26.057 -20.936   6.120  0.00  0.00    +0.021 A 
ATOM      9  C   LIG    1       25.343 -22.011   6.659  0.00  0.00    +0.051 A 
ATOM     10 CL   LIG    1       26.157 -23.025   7.797  0.00  0.00    -0.083 Cl
ENDBRANCH   2   3
BRANCH   1  12
ATOM     11  C   LIG    1       24.722 -26.067   5.532  0.00  0.00    +0.404 C 
ATOM     12  N   LIG    1       24.281 -24.851   5.504  0.00  0.00    +0.044 NA
BRANCH  11  13
ATOM     13  N   LIG    1       25.647 -26.542   4.667  0.00  0.00    -0.287 N 
ATOM     14  H   LIG    1       26.524 -26.044   4.768  0.00  0.00    +0.255 HD
ATOM     15  H   LIG    1       25.313 -26.517   3.712  0.00  0.00    +0.255 HD
ENDBRANCH  11  13
BRANCH  11  16
ATOM     16  N   LIG    1       24.328 -27.031   6.399  0.00  0.00    -0.287 N 
ATOM     17  H   LIG    1       24.105 -26.561   7.277  0.00  0.00    +0.255 HD
ATOM     18  H   LIG    1       25.054 -27.721   6.545  0.00  0.00    +0.255 HD
ENDBRANCH  11  16
ENDBRANCH   1  12
TORSDOF 4
ENDMDL
MODEL 9
REMARK VINA RESULT:      -5.7      6.296      7.590
REMARK  Name = *****
REMARK                            x       y       z     vdW  Elec       q    Type
REMARK                         _______ _______ _______ _____ _____    ______ ____
ROOT
ATOM      1  N   LIG    1       23.020 -20.037   6.497  0.00  0.00    -0.078 NA
ATOM      2  C   LIG    1       23.318 -20.951   7.371  0.00  0.00    +0.163 C 
ENDROOT
BRANCH   2   3
ATOM      3  C   LIG    1       24.273 -22.057   7.200  0.00  0.00    +0.033 A 
ATOM      4  C   LIG    1       25.641 -21.870   7.435  0.00  0.00    +0.051 A 
ATOM      5 CL   LIG    1       26.301 -20.371   7.990  0.00  0.00    -0.083 Cl
ATOM      6  C   LIG    1       26.527 -22.942   7.281  0.00  0.00    +0.021 A 
ATOM      7  C   LIG    1       26.053 -24.200   6.909  0.00  0.00    +0.003 A 
ATOM      8  C   LIG    1       24.688 -24.392   6.700  0.00  0.00    +0.021 A 
ATOM      9  C   LIG    1       23.796 -23.324   6.849  0.00  0.00    +0.051 A 
ATOM     10 CL   LIG    1       22.117 -23.640   6.591  0.00  0.00    -0.083 Cl
ENDBRANCH   2   3
BRANCH   1  12
ATOM     11  C   LIG    1       23.256 -19.363   4.379  0.00  0.00    +0.404 C 
ATOM     12  N   LIG    1       23.669 -20.208   5.267  0.00  0.00    +0.044 NA
BRANCH  11  13
ATOM     13  N   LIG    1       23.717 -19.337   3.107  0.00  0.00    -0.287 N 
ATOM     14  H   LIG    1       24.136 -18.439   2.893  0.00  0.00    +0.255 HD
ATOM     15  H   LIG    1       22.991 -19.575   2.442  0.00  0.00    +0.255 HD
ENDBRANCH  11  13
BRANCH  11  16
ATOM     16  N   LIG    1       22.334 -18.391   4.580  0.00  0.00    -0.287 N 
ATOM     17  H   LIG    1       22.397 -18.128   5.564  0.00  0.00    +0.255 HD
ATOM     18  H   LIG    1       21.400 -18.711   4.360  0.00  0.00    +0.255 HD
ENDBRANCH  11  16
ENDBRANCH   1  12
TORSDOF 4
ENDMDL
