MODEL 1
REMARK VINA RESULT:      -9.0      0.000      0.000
REMARK  Name = *****
REMARK                            x       y       z     vdW  Elec       q    Type
REMARK                         _______ _______ _______ _____ _____    ______ ____
ROOT
ATOM      1  N   LIG    1       25.450 -22.741   6.930  0.00  0.00    -0.327 N 
ATOM      2  C   LIG    1       25.705 -21.834   5.787  0.00  0.00    +0.120 C 
ATOM      3  C   LIG    1       25.846 -20.359   6.270  0.00  0.00    +0.103 C 
ATOM      4  N   LIG    1       26.787 -20.103   7.398  0.00  0.00    -0.299 NA
ATOM      5  C   LIG    1       26.469 -21.080   8.470  0.00  0.00    +0.103 C 
ATOM      6  C   LIG    1       26.434 -22.556   8.019  0.00  0.00    +0.120 C 
ENDROOT
BRANCH   1   9
ATOM      7  C   LIG    1       22.669 -23.698   6.676  0.00  0.00    +0.045 C 
ATOM      8  C   LIG    1       23.874 -24.573   6.463  0.00  0.00    -0.029 A 
ATOM      9  C   LIG    1       25.198 -24.082   6.559  0.00  0.00    +0.033 A 
ATOM     10  C   LIG    1       26.245 -24.997   6.326  0.00  0.00    +0.023 A 
ATOM     11  C   LIG    1       26.005 -26.345   6.041  0.00  0.00    +0.002 A 
ATOM     12  C   LIG    1       24.704 -26.814   5.961  0.00  0.00    +0.000 A 
ATOM     13  C   LIG    1       23.645 -25.931   6.156  0.00  0.00    +0.005 A 
ENDBRANCH   1   9
BRANCH   4  14
ATOM     14  C   LIG    1       28.193 -20.147   6.941  0.00  0.00    +0.092 C 
BRANCH  14  15
ATOM     15  C   LIG    1       29.215 -20.444   8.059  0.00  0.00    +0.091 C 
BRANCH  15  16
ATOM     16  C   LIG    1       30.370 -19.496   8.024  0.00  0.00    +0.135 A 
ATOM     17  N   LIG    1       30.609 -18.486   8.916  0.00  0.00    -0.315 N 
ATOM     18  C   LIG    1       29.843 -18.113  10.086  0.00  0.00    +0.125 C 
ATOM     19  C   LIG    1       30.434 -16.932  10.871  0.00  0.00    +0.022 C 
ATOM     20  C   LIG    1       31.963 -16.887  10.806  0.00  0.00    +0.009 C 
ATOM     21  C   LIG    1       32.435 -16.838   9.352  0.00  0.00    +0.076 C 
ATOM     22  C   LIG    1       31.814 -17.937   8.577  0.00  0.00    +0.134 A 
ATOM     23  N   LIG    1       32.278 -18.554   7.509  0.00  0.00    -0.134 NA
ATOM     24  N   LIG    1       31.375 -19.534   7.168  0.00  0.00    -0.134 NA
ENDBRANCH  15  16
ENDBRANCH  14  15
ENDBRANCH   4  14
TORSDOF 4
ENDMDL
MODEL 2
REMARK VINA RESULT:      -8.3      2.595      3.647
REMARK  Name = *****
REMARK                            x       y       z     vdW  Elec       q    Type
REMARK                         _______ _______ _______ _____ _____    ______ ____
ROOT
ATOM      1  N   LIG    1       26.438 -20.622   5.941  0.00  0.00    -0.327 N 
ATOM      2  C   LIG    1       26.526 -20.905   7.392  0.00  0.00    +0.120 C 
ATOM      3  C   LIG    1       27.956 -21.393   7.777  0.00  0.00    +0.103 C 
ATOM      4  N   LIG    1       29.103 -20.565   7.305  0.00  0.00    -0.299 NA
ATOM      5  C   LIG    1       28.901 -20.314   5.856  0.00  0.00    +0.103 C 
ATOM      6  C   LIG    1       27.523 -19.728   5.480  0.00  0.00    +0.120 C 
ENDROOT
BRANCH   1   9
ATOM      7  C   LIG    1       24.078 -21.528   7.467  0.00  0.00    +0.045 C 
ATOM      8  C   LIG    1       23.992 -20.733   6.191  0.00  0.00    -0.029 A 
ATOM      9  C   LIG    1       25.140 -20.283   5.496  0.00  0.00    +0.033 A 
ATOM     10  C   LIG    1       24.930 -19.538   4.318  0.00  0.00    +0.023 A 
ATOM     11  C   LIG    1       23.649 -19.269   3.826  0.00  0.00    +0.002 A 
ATOM     12  C   LIG    1       22.535 -19.725   4.511  0.00  0.00    +0.000 A 
ATOM     13  C   LIG    1       22.704 -20.440   5.693  0.00  0.00    +0.005 A 
ENDBRANCH   1   9
BRANCH   4  14
ATOM     14  C   LIG    1       29.244 -19.335   8.116  0.00  0.00    +0.092 C 
BRANCH  14  15
ATOM     15  C   LIG    1       30.368 -19.395   9.171  0.00  0.00    +0.091 C 
BRANCH  15  16
ATOM     16  C   LIG    1       31.222 -18.169   9.145  0.00  0.00    +0.135 A 
ATOM     17  N   LIG    1       31.512 -17.369  10.218  0.00  0.00    -0.315 N 
ATOM     18  C   LIG    1       31.098 -17.520  11.596  0.00  0.00    +0.125 C 
ATOM     19  C   LIG    1       31.643 -16.433  12.535  0.00  0.00    +0.022 C 
ATOM     20  C   LIG    1       33.025 -15.926  12.113  0.00  0.00    +0.009 C 
ATOM     21  C   LIG    1       32.986 -15.405  10.676  0.00  0.00    +0.076 C 
ATOM     22  C   LIG    1       32.399 -16.427   9.778  0.00  0.00    +0.134 A 
ATOM     23  N   LIG    1       32.618 -16.615   8.492  0.00  0.00    -0.134 NA
ATOM     24  N   LIG    1       31.885 -17.710   8.099  0.00  0.00    -0.134 NA
ENDBRANCH  15  16
ENDBRANCH  14  15
ENDBRANCH   4  14
TORSDOF 4
ENDMDL
MODEL 3
REMARK VINA RESULT:      -8.2      1.884      2.545
REMARK  Name = *****
REMARK                            x       y       z     vdW  Elec       q    Type
REMARK                         _______ _______ _______ _____ _____    ______ ____
ROOT
ATOM      1  N   LIG    1       25.392 -20.674   6.772  0.00  0.00    -0.327 N 
ATOM      2  C   LIG    1       26.479 -20.826   5.778  0.00  0.00    +0.120 C 
ATOM      3  C   LIG    1       27.718 -19.967   6.174  0.00  0.00    +0.103 C 
ATOM      4  N   LIG    1       28.222 -20.110   7.569  0.00  0.00    -0.299 NA
ATOM      5  C   LIG    1       27.056 -19.974   8.478  0.00  0.00    +0.103 C 
ATOM      6  C   LIG    1       25.865 -20.901   8.155  0.00  0.00    +0.120 C 
ENDROOT
BRANCH   1   9
ATOM      7  C   LIG    1       23.584 -19.474   4.769  0.00  0.00    +0.045 C 
ATOM      8  C   LIG    1       23.292 -20.763   5.490  0.00  0.00    -0.029 A 
ATOM      9  C   LIG    1       24.192 -21.334   6.422  0.00  0.00    +0.033 A 
ATOM     10  C   LIG    1       23.812 -22.551   7.024  0.00  0.00    +0.023 A 
ATOM     11  C   LIG    1       22.588 -23.168   6.746  0.00  0.00    +0.002 A 
ATOM     12  C   LIG    1       21.713 -22.593   5.839  0.00  0.00    +0.000 A 
ATOM     13  C   LIG    1       22.069 -21.406   5.205  0.00  0.00    +0.005 A 
ENDBRANCH   1   9
BRANCH   4  14
ATOM     14  C   LIG    1       28.974 -21.373   7.739  0.00  0.00    +0.092 C 
BRANCH  14  15
ATOM     15  C   LIG    1       30.257 -21.239   8.585  0.00  0.00    +0.091 C 
BRANCH  15  16
ATOM     16  C   LIG    1       30.944 -19.932   8.352  0.00  0.00    +0.135 A 
ATOM     17  N   LIG    1       30.918 -18.850   9.190  0.00  0.00    -0.315 N 
ATOM     18  C   LIG    1       30.263 -18.716  10.474  0.00  0.00    +0.125 C 
ATOM     19  C   LIG    1       30.476 -17.351  11.144  0.00  0.00    +0.022 C 
ATOM     20  C   LIG    1       31.842 -16.739  10.819  0.00  0.00    +0.009 C 
ATOM     21  C   LIG    1       32.023 -16.613   9.306  0.00  0.00    +0.076 C 
ATOM     22  C   LIG    1       31.753 -17.913   8.649  0.00  0.00    +0.134 A 
ATOM     23  N   LIG    1       32.241 -18.380   7.518  0.00  0.00    -0.134 NA
ATOM     24  N   LIG    1       31.739 -19.647   7.336  0.00  0.00    -0.134 NA
ENDBRANCH  15  16
ENDBRANCH  14  15
ENDBRANCH   4  14
TORSDOF 4
ENDMDL
MODEL 4
REMARK VINA RESULT:      -8.2      2.652      8.960
REMARK  Name = *****
REMARK                            x       y       z     vdW  Elec       q    Type
REMARK                         _______ _______ _______ _____ _____    ______ ____
ROOT
ATOM      1  N   LIG    1       31.291 -17.765   9.330  0.00  0.00    -0.327 N 
ATOM      2  C   LIG    1       29.840 -17.762   9.037  0.00  0.00    +0.120 C 
ATOM      3  C   LIG    1       29.562 -18.293   7.599  0.00  0.00    +0.103 C 
ATOM      4  N   LIG    1       30.198 -19.587   7.221  0.00  0.00    -0.299 NA
ATOM      5  C   LIG    1       31.635 -19.497   7.583  0.00  0.00    +0.103 C 
ATOM      6  C   LIG    1       31.916 -19.074   9.042  0.00  0.00    +0.120 C 
ENDROOT
BRANCH   1   9
ATOM      7  C   LIG    1       33.024 -15.376   9.421  0.00  0.00    +0.045 C 
ATOM      8  C   LIG    1       32.488 -16.065  10.648  0.00  0.00    -0.029 A 
ATOM      9  C   LIG    1       31.632 -17.189  10.575  0.00  0.00    +0.033 A 
ATOM     10  C   LIG    1       31.185 -17.739  11.794  0.00  0.00    +0.023 A 
ATOM     11  C   LIG    1       31.584 -17.227  13.033  0.00  0.00    +0.002 A 
ATOM     12  C   LIG    1       32.431 -16.132  13.088  0.00  0.00    +0.000 A 
ATOM     13  C   LIG    1       32.868 -15.545  11.904  0.00  0.00    +0.005 A 
ENDBRANCH   1   9
BRANCH   4  14
ATOM     14  C   LIG    1       29.492 -20.731   7.840  0.00  0.00    +0.092 C 
BRANCH  14  15
ATOM     15  C   LIG    1       28.393 -21.354   6.955  0.00  0.00    +0.091 C 
BRANCH  15  16
ATOM     16  C   LIG    1       27.033 -21.178   7.549  0.00  0.00    +0.135 A 
ATOM     17  N   LIG    1       25.891 -20.859   6.865  0.00  0.00    -0.315 N 
ATOM     18  C   LIG    1       25.719 -20.646   5.443  0.00  0.00    +0.125 C 
ATOM     19  C   LIG    1       24.274 -20.329   5.030  0.00  0.00    +0.022 C 
ATOM     20  C   LIG    1       23.238 -21.027   5.916  0.00  0.00    +0.009 C 
ATOM     21  C   LIG    1       23.456 -20.656   7.383  0.00  0.00    +0.076 C 
ATOM     22  C   LIG    1       24.866 -20.900   7.768  0.00  0.00    +0.134 A 
ATOM     23  N   LIG    1       25.355 -21.192   8.956  0.00  0.00    -0.134 NA
ATOM     24  N   LIG    1       26.712 -21.372   8.816  0.00  0.00    -0.134 NA
ENDBRANCH  15  16
ENDBRANCH  14  15
ENDBRANCH   4  14
TORSDOF 4
ENDMDL
MODEL 5
REMARK VINA RESULT:      -8.0      1.690      3.057
REMARK  Name = *****
REMARK                            x       y       z     vdW  Elec       q    Type
REMARK                         _______ _______ _______ _____ _____    ______ ____
ROOT
ATOM      1  N   LIG    1       24.729 -21.529   6.984  0.00  0.00    -0.327 N 
ATOM      2  C   LIG    1       25.253 -20.459   7.865  0.00  0.00    +0.120 C 
ATOM      3  C   LIG    1       26.348 -21.016   8.824  0.00  0.00    +0.103 C 
ATOM      4  N   LIG    1       27.449 -21.810   8.206  0.00  0.00    -0.299 NA
ATOM      5  C   LIG    1       26.820 -22.825   7.324  0.00  0.00    +0.103 C 
ATOM      6  C   LIG    1       25.812 -22.265   6.297  0.00  0.00    +0.120 C 
ENDROOT
BRANCH   1   9
ATOM      7  C   LIG    1       22.435 -23.343   6.576  0.00  0.00    +0.045 C 
ATOM      8  C   LIG    1       22.556 -21.990   5.926  0.00  0.00    -0.029 A 
ATOM      9  C   LIG    1       23.651 -21.126   6.164  0.00  0.00    +0.033 A 
ATOM     10  C   LIG    1       23.645 -19.880   5.505  0.00  0.00    +0.023 A 
ATOM     11  C   LIG    1       22.623 -19.508   4.626  0.00  0.00    +0.002 A 
ATOM     12  C   LIG    1       21.562 -20.369   4.395  0.00  0.00    +0.000 A 
ATOM     13  C   LIG    1       21.521 -21.595   5.051  0.00  0.00    +0.005 A 
ENDBRANCH   1   9
BRANCH   4  14
ATOM     14  C   LIG    1       28.419 -20.931   7.516  0.00  0.00    +0.092 C 
BRANCH  14  15
ATOM     15  C   LIG    1       28.478 -19.492   8.069  0.00  0.00    +0.091 C 
BRANCH  15  16
ATOM     16  C   LIG    1       29.867 -18.943   8.046  0.00  0.00    +0.135 A 
ATOM     17  N   LIG    1       30.414 -18.098   8.975  0.00  0.00    -0.315 N 
ATOM     18  C   LIG    1       29.811 -17.566  10.178  0.00  0.00    +0.125 C 
ATOM     19  C   LIG    1       30.744 -16.662  10.997  0.00  0.00    +0.022 C 
ATOM     20  C   LIG    1       32.213 -17.082  10.897  0.00  0.00    +0.009 C 
ATOM     21  C   LIG    1       32.661 -17.110   9.436  0.00  0.00    +0.076 C 
ATOM     22  C   LIG    1       31.725 -17.929   8.630  0.00  0.00    +0.134 A 
ATOM     23  N   LIG    1       31.967 -18.605   7.525  0.00  0.00    -0.134 NA
ATOM     24  N   LIG    1       30.804 -19.245   7.165  0.00  0.00    -0.134 NA
ENDBRANCH  15  16
ENDBRANCH  14  15
ENDBRANCH   4  14
TORSDOF 4
ENDMDL
MODEL 6
REMARK VINA RESULT:      -8.0      5.447      7.364
REMARK  Name = *****
REMARK                            x       y       z     vdW  Elec       q    Type
REMARK                         _______ _______ _______ _____ _____    ______ ____
ROOT
ATOM      1  N   LIG    1       25.338 -28.443   6.380  0.00  0.00    -0.327 N 
ATOM      2  C   LIG    1       26.079 -27.457   7.200  0.00  0.00    +0.120 C 
ATOM      3  C   LIG    1       26.709 -26.350   6.301  0.00  0.00    +0.103 C 
ATOM      4  N   LIG    1       25.809 -25.683   5.318  0.00  0.00    -0.299 NA
ATOM      5  C   LIG    1       25.094 -26.753   4.576  0.00  0.00    +0.103 C 
ATOM      6  C   LIG    1       24.376 -27.794   5.462  0.00  0.00    +0.120 C 
ENDROOT
BRANCH   1   9
ATOM      7  C   LIG    1       25.511 -31.166   5.252  0.00  0.00    +0.045 C 
ATOM      8  C   LIG    1       24.874 -30.852   6.580  0.00  0.00    -0.029 A 
ATOM      9  C   LIG    1       24.833 -29.542   7.113  0.00  0.00    +0.033 A 
ATOM     10  C   LIG    1       24.220 -29.376   8.371  0.00  0.00    +0.023 A 
ATOM     11  C   LIG    1       23.644 -30.445   9.065  0.00  0.00    +0.002 A 
ATOM     12  C   LIG    1       23.683 -31.720   8.526  0.00  0.00    +0.000 A 
ATOM     13  C   LIG    1       24.306 -31.925   7.299  0.00  0.00    +0.005 A 
ENDBRANCH   1   9
BRANCH   4  14
ATOM     14  C   LIG    1       24.913 -24.712   5.985  0.00  0.00    +0.092 C 
BRANCH  14  15
ATOM     15  C   LIG    1       25.645 -23.526   6.647  0.00  0.00    +0.091 C 
BRANCH  15  16
ATOM     16  C   LIG    1       24.735 -22.359   6.858  0.00  0.00    +0.135 A 
ATOM     17  N   LIG    1       24.337 -21.466   5.899  0.00  0.00    -0.315 N 
ATOM     18  C   LIG    1       24.667 -21.446   4.490  0.00  0.00    +0.125 C 
ATOM     19  C   LIG    1       24.009 -20.298   3.710  0.00  0.00    +0.022 C 
ATOM     20  C   LIG    1       22.635 -19.916   4.267  0.00  0.00    +0.009 C 
ATOM     21  C   LIG    1       22.742 -19.549   5.748  0.00  0.00    +0.076 C 
ATOM     22  C   LIG    1       23.435 -20.628   6.492  0.00  0.00    +0.134 A 
ATOM     23  N   LIG    1       23.310 -20.963   7.759  0.00  0.00    -0.134 NA
ATOM     24  N   LIG    1       24.120 -22.051   7.986  0.00  0.00    -0.134 NA
ENDBRANCH  15  16
ENDBRANCH  14  15
ENDBRANCH   4  14
TORSDOF 4
ENDMDL
MODEL 7
REMARK VINA RESULT:      -7.8      4.722      9.280
REMARK  Name = *****
REMARK                            x       y       z     vdW  Elec       q    Type
REMARK                         _______ _______ _______ _____ _____    ______ ____
ROOT
ATOM      1  N   LIG    1       25.466 -24.324   6.101  0.00  0.00    -0.327 N 
ATOM      2  C   LIG    1       24.735 -24.979   4.991  0.00  0.00    +0.120 C 
ATOM      3  C   LIG    1       25.499 -26.242   4.491  0.00  0.00    +0.103 C 
ATOM      4  N   LIG    1       25.929 -27.226   5.525  0.00  0.00    -0.299 NA
ATOM      5  C   LIG    1       26.619 -26.467   6.599  0.00  0.00    +0.103 C 
ATOM      6  C   LIG    1       25.820 -25.278   7.174  0.00  0.00    +0.120 C 
ENDROOT
BRANCH   1   9
ATOM      7  C   LIG    1       27.195 -22.179   7.162  0.00  0.00    +0.045 C 
ATOM      8  C   LIG    1       25.696 -22.076   7.076  0.00  0.00    -0.029 A 
ATOM      9  C   LIG    1       24.892 -23.107   6.532  0.00  0.00    +0.033 A 
ATOM     10  C   LIG    1       23.500 -22.888   6.495  0.00  0.00    +0.023 A 
ATOM     11  C   LIG    1       22.917 -21.720   6.997  0.00  0.00    +0.002 A 
ATOM     12  C   LIG    1       23.715 -20.725   7.536  0.00  0.00    +0.000 A 
ATOM     13  C   LIG    1       25.097 -20.895   7.562  0.00  0.00    +0.005 A 
ENDBRANCH   1   9
BRANCH   4  14
ATOM     14  C   LIG    1       24.786 -28.037   6.000  0.00  0.00    +0.092 C 
BRANCH  14  15
ATOM     15  C   LIG    1       25.153 -29.485   6.387  0.00  0.00    +0.091 C 
BRANCH  15  16
ATOM     16  C   LIG    1       24.634 -29.848   7.740  0.00  0.00    +0.135 A 
ATOM     17  N   LIG    1       25.249 -29.584   8.935  0.00  0.00    -0.315 N 
ATOM     18  C   LIG    1       26.497 -28.892   9.176  0.00  0.00    +0.125 C 
ATOM     19  C   LIG    1       26.861 -28.760  10.662  0.00  0.00    +0.022 C 
ATOM     20  C   LIG    1       25.630 -28.631  11.563  0.00  0.00    +0.009 C 
ATOM     21  C   LIG    1       24.692 -29.821  11.359  0.00  0.00    +0.076 C 
ATOM     22  C   LIG    1       24.390 -29.991   9.918  0.00  0.00    +0.134 A 
ATOM     23  N   LIG    1       23.317 -30.512   9.358  0.00  0.00    -0.134 NA
ATOM     24  N   LIG    1       23.468 -30.416   7.995  0.00  0.00    -0.134 NA
ENDBRANCH  15  16
ENDBRANCH  14  15
ENDBRANCH   4  14
TORSDOF 4
ENDMDL
MODEL 8
REMARK VINA RESULT:      -7.7      4.715     10.276
REMARK  Name = *****
REMARK                            x       y       z     vdW  Elec       q    Type
REMARK                         _______ _______ _______ _____ _____    ______ ____
ROOT
ATOM      1  N   LIG    1       25.464 -24.317   6.144  0.00  0.00    -0.327 N 
ATOM      2  C   LIG    1       24.845 -24.899   4.931  0.00  0.00    +0.120 C 
ATOM      3  C   LIG    1       25.556 -26.226   4.527  0.00  0.00    +0.103 C 
ATOM      4  N   LIG    1       25.740 -27.248   5.596  0.00  0.00    -0.299 NA
ATOM      5  C   LIG    1       26.333 -26.559   6.770  0.00  0.00    +0.103 C 
ATOM      6  C   LIG    1       25.570 -25.302   7.243  0.00  0.00    +0.120 C 
ENDROOT
BRANCH   1   9
ATOM      7  C   LIG    1       27.271 -22.242   7.214  0.00  0.00    +0.045 C 
ATOM      8  C   LIG    1       25.786 -22.054   7.054  0.00  0.00    -0.029 A 
ATOM      9  C   LIG    1       24.947 -23.053   6.508  0.00  0.00    +0.033 A 
ATOM     10  C   LIG    1       23.574 -22.754   6.398  0.00  0.00    +0.023 A 
ATOM     11  C   LIG    1       23.041 -21.536   6.833  0.00  0.00    +0.002 A 
ATOM     12  C   LIG    1       23.873 -20.571   7.375  0.00  0.00    +0.000 A 
ATOM     13  C   LIG    1       25.239 -20.822   7.472  0.00  0.00    +0.005 A 
ENDBRANCH   1   9
BRANCH   4  14
ATOM     14  C   LIG    1       24.471 -27.952   5.888  0.00  0.00    +0.092 C 
BRANCH  14  15
ATOM     15  C   LIG    1       24.471 -29.446   5.504  0.00  0.00    +0.091 C 
BRANCH  15  16
ATOM     16  C   LIG    1       25.152 -30.286   6.535  0.00  0.00    +0.135 A 
ATOM     17  N   LIG    1       25.876 -31.423   6.296  0.00  0.00    -0.315 N 
ATOM     18  C   LIG    1       26.172 -32.057   5.028  0.00  0.00    +0.125 C 
ATOM     19  C   LIG    1       27.044 -33.316   5.147  0.00  0.00    +0.022 C 
ATOM     20  C   LIG    1       28.036 -33.240   6.311  0.00  0.00    +0.009 C 
ATOM     21  C   LIG    1       27.297 -32.989   7.626  0.00  0.00    +0.076 C 
ATOM     22  C   LIG    1       26.405 -31.813   7.494  0.00  0.00    +0.134 A 
ATOM     23  N   LIG    1       25.998 -30.981   8.431  0.00  0.00    -0.134 NA
ATOM     24  N   LIG    1       25.219 -30.021   7.828  0.00  0.00    -0.134 NA
ENDBRANCH  15  16
ENDBRANCH  14  15
ENDBRANCH   4  14
TORSDOF 4
ENDMDL
MODEL 9
REMARK VINA RESULT:      -7.6      4.747     10.172
REMARK  Name = *****
REMARK                            x       y       z     vdW  Elec       q    Type
REMARK                         _______ _______ _______ _____ _____    ______ ____
ROOT
ATOM      1  N   LIG    1       25.451 -24.372   6.141  0.00  0.00    -0.327 N 
ATOM      2  C   LIG    1       24.908 -24.908   4.872  0.00  0.00    +0.120 C 
ATOM      3  C   LIG    1       25.632 -26.229   4.473  0.00  0.00    +0.103 C 
ATOM      4  N   LIG    1       25.737 -27.286   5.519  0.00  0.00    -0.299 NA
ATOM      5  C   LIG    1       26.257 -26.641   6.750  0.00  0.00    +0.103 C 
ATOM      6  C   LIG    1       25.477 -25.391   7.212  0.00  0.00    +0.120 C 
ENDROOT
BRANCH   1   9
ATOM      7  C   LIG    1       27.245 -22.274   7.190  0.00  0.00    +0.045 C 
ATOM      8  C   LIG    1       25.756 -22.104   7.047  0.00  0.00    -0.029 A 
ATOM      9  C   LIG    1       24.923 -23.114   6.511  0.00  0.00    +0.033 A 
ATOM     10  C   LIG    1       23.545 -22.831   6.417  0.00  0.00    +0.023 A 
ATOM     11  C   LIG    1       23.002 -21.620   6.857  0.00  0.00    +0.002 A 
ATOM     12  C   LIG    1       23.829 -20.645   7.390  0.00  0.00    +0.000 A 
ATOM     13  C   LIG    1       25.198 -20.879   7.471  0.00  0.00    +0.005 A 
ENDBRANCH   1   9
BRANCH   4  14
ATOM     14  C   LIG    1       24.446 -27.985   5.705  0.00  0.00    +0.092 C 
BRANCH  14  15
ATOM     15  C   LIG    1       24.481 -29.117   6.752  0.00  0.00    +0.091 C 
BRANCH  15  16
ATOM     16  C   LIG    1       25.275 -30.290   6.277  0.00  0.00    +0.135 A 
ATOM     17  N   LIG    1       25.987 -31.153   7.067  0.00  0.00    -0.315 N 
ATOM     18  C   LIG    1       26.122 -31.157   8.508  0.00  0.00    +0.125 C 
ATOM     19  C   LIG    1       26.987 -32.304   9.051  0.00  0.00    +0.022 C 
ATOM     20  C   LIG    1       26.883 -33.575   8.204  0.00  0.00    +0.009 C 
ATOM     21  C   LIG    1       27.258 -33.280   6.751  0.00  0.00    +0.076 C 
ATOM     22  C   LIG    1       26.471 -32.131   6.245  0.00  0.00    +0.134 A 
ATOM     23  N   LIG    1       26.108 -31.866   5.006  0.00  0.00    -0.134 NA
ATOM     24  N   LIG    1       25.354 -30.717   5.029  0.00  0.00    -0.134 NA
ENDBRANCH  15  16
ENDBRANCH  14  15
ENDBRANCH   4  14
TORSDOF 4
ENDMDL
