MODEL 1
REMARK VINA RESULT:      -4.4      0.000      0.000
REMARK  Name = *****
REMARK                            x       y       z     vdW  Elec       q    Type
REMARK                         _______ _______ _______ _____ _____    ______ ____
ROOT
ATOM      1  CA  HYP A  1       25.253 -13.974   4.360  0.00  0.00    +0.166 C 
ATOM      2  N   HYP A  1       25.696 -14.705   3.154  0.00  0.00    -0.302 NA
ATOM      3  H   HYP A  1       25.016 -15.415   2.882  0.00  0.00    +0.123 HD
ATOM      4  CD  HYP A  1       27.004 -15.267   3.489  0.00  0.00    +0.113 C 
ATOM      5  CG  HYP A  1       27.668 -14.068   4.154  0.00  0.00    +0.130 C 
ATOM      6  CB  HYP A  1       26.549 -13.429   4.970  0.00  0.00    +0.062 C 
ENDROOT
BRANCH   1   8
ATOM      7  O   HYP A  1       23.907 -11.956   4.737  0.00  0.00    -0.249 OA
ATOM      8  C   HYP A  1       24.223 -12.890   4.012  0.00  0.00    +0.322 C 
BRANCH   8   9
ATOM      9  OXT HYP A  1       23.739 -12.992   2.748  0.00  0.00    -0.479 OA
ATOM     10  HXT HYP A  1       22.895 -12.533   2.591  0.00  0.00    +0.295 HD
ENDBRANCH   8   9
ENDBRANCH   1   8
BRANCH   5  11
ATOM     11  OD  HYP A  1       28.102 -13.136   3.162  0.00  0.00    -0.391 OA
ATOM     12  HD  HYP A  1       27.732 -13.459   2.314  0.00  0.00    +0.210 HD
ENDBRANCH   5  11
TORSDOF 3
ENDMDL
MODEL 2
REMARK VINA RESULT:      -4.3      1.643      1.902
REMARK  Name = *****
REMARK                            x       y       z     vdW  Elec       q    Type
REMARK                         _______ _______ _______ _____ _____    ______ ____
ROOT
ATOM      1  CA  HYP A  1       25.564 -13.142   3.694  0.00  0.00    +0.166 C 
ATOM      2  N   HYP A  1       26.073 -13.467   5.043  0.00  0.00    -0.302 NA
ATOM      3  H   HYP A  1       25.675 -12.846   5.747  0.00  0.00    +0.123 HD
ATOM      4  CD  HYP A  1       27.529 -13.367   4.952  0.00  0.00    +0.113 C 
ATOM      5  CG  HYP A  1       27.785 -14.114   3.648  0.00  0.00    +0.130 C 
ATOM      6  CB  HYP A  1       26.635 -13.686   2.743  0.00  0.00    +0.062 C 
ENDROOT
BRANCH   1   8
ATOM      7  O   HYP A  1       23.621 -14.561   4.182  0.00  0.00    -0.249 OA
ATOM      8  C   HYP A  1       24.166 -13.735   3.463  0.00  0.00    +0.322 C 
BRANCH   8   9
ATOM      9  OXT HYP A  1       23.512 -13.177   2.413  0.00  0.00    -0.479 OA
ATOM     10  HXT HYP A  1       23.290 -12.234   2.519  0.00  0.00    +0.295 HD
ENDBRANCH   8   9
ENDBRANCH   1   8
BRANCH   5  11
ATOM     11  OD  HYP A  1       27.698 -15.523   3.866  0.00  0.00    -0.391 OA
ATOM     12  HD  HYP A  1       28.620 -15.853   3.846  0.00  0.00    +0.210 HD
ENDBRANCH   5  11
TORSDOF 3
ENDMDL
MODEL 3
REMARK VINA RESULT:      -4.2      1.897      3.730
REMARK  Name = *****
REMARK                            x       y       z     vdW  Elec       q    Type
REMARK                         _______ _______ _______ _____ _____    ______ ____
ROOT
ATOM      1  CA  HYP A  1       26.515 -14.002   3.323  0.00  0.00    +0.166 C 
ATOM      2  N   HYP A  1       25.960 -13.770   1.972  0.00  0.00    -0.302 NA
ATOM      3  H   HYP A  1       26.702 -13.709   1.274  0.00  0.00    +0.123 HD
ATOM      4  CD  HYP A  1       25.171 -12.543   2.074  0.00  0.00    +0.113 C 
ATOM      5  CG  HYP A  1       24.409 -12.800   3.368  0.00  0.00    +0.130 C 
ATOM      6  CB  HYP A  1       25.432 -13.479   4.272  0.00  0.00    +0.062 C 
ENDROOT
BRANCH   1   8
ATOM      7  O   HYP A  1       26.228 -16.431   3.113  0.00  0.00    -0.249 OA
ATOM      8  C   HYP A  1       26.871 -15.481   3.536  0.00  0.00    +0.322 C 
BRANCH   8   9
ATOM      9  OXT HYP A  1       28.057 -15.662   4.171  0.00  0.00    -0.479 OA
ATOM     10  HXT HYP A  1       28.220 -15.061   4.920  0.00  0.00    +0.295 HD
ENDBRANCH   8   9
ENDBRANCH   1   8
BRANCH   5  11
ATOM     11  OD  HYP A  1       23.332 -13.707   3.130  0.00  0.00    -0.391 OA
ATOM     12  HD  HYP A  1       22.565 -13.151   2.881  0.00  0.00    +0.210 HD
ENDBRANCH   5  11
TORSDOF 3
ENDMDL
MODEL 4
REMARK VINA RESULT:      -4.2      1.523      3.527
REMARK  Name = *****
REMARK                            x       y       z     vdW  Elec       q    Type
REMARK                         _______ _______ _______ _____ _____    ______ ____
ROOT
ATOM      1  CA  HYP A  1       26.258 -14.112   3.674  0.00  0.00    +0.166 C 
ATOM      2  N   HYP A  1       25.143 -14.121   4.645  0.00  0.00    -0.302 NA
ATOM      3  H   HYP A  1       25.230 -14.898   5.300  0.00  0.00    +0.123 HD
ATOM      4  CD  HYP A  1       23.921 -14.187   3.843  0.00  0.00    +0.113 C 
ATOM      5  CG  HYP A  1       24.224 -13.144   2.774  0.00  0.00    +0.130 C 
ATOM      6  CB  HYP A  1       25.704 -13.347   2.467  0.00  0.00    +0.062 C 
ENDROOT
BRANCH   1   8
ATOM      7  O   HYP A  1       28.581 -13.322   3.688  0.00  0.00    -0.249 OA
ATOM      8  C   HYP A  1       27.524 -13.490   4.280  0.00  0.00    +0.322 C 
BRANCH   8   9
ATOM      9  OXT HYP A  1       27.346 -13.031   5.544  0.00  0.00    -0.479 OA
ATOM     10  HXT HYP A  1       27.075 -12.098   5.609  0.00  0.00    +0.295 HD
ENDBRANCH   8   9
ENDBRANCH   1   8
BRANCH   5  11
ATOM     11  OD  HYP A  1       24.041 -11.831   3.305  0.00  0.00    -0.391 OA
ATOM     12  HD  HYP A  1       23.483 -11.356   2.655  0.00  0.00    +0.210 HD
ENDBRANCH   5  11
TORSDOF 3
ENDMDL
MODEL 5
REMARK VINA RESULT:      -4.1      7.082      8.072
REMARK  Name = *****
REMARK                            x       y       z     vdW  Elec       q    Type
REMARK                         _______ _______ _______ _____ _____    ______ ____
ROOT
ATOM      1  CA  HYP A  1       25.067 -21.253   5.557  0.00  0.00    +0.166 C 
ATOM      2  N   HYP A  1       24.111 -21.286   6.685  0.00  0.00    -0.302 NA
ATOM      3  H   HYP A  1       24.388 -21.975   7.384  0.00  0.00    +0.123 HD
ATOM      4  CD  HYP A  1       22.806 -21.571   6.090  0.00  0.00    +0.113 C 
ATOM      5  CG  HYP A  1       22.820 -20.619   4.900  0.00  0.00    +0.130 C 
ATOM      6  CB  HYP A  1       24.255 -20.685   4.388  0.00  0.00    +0.062 C 
ENDROOT
BRANCH   1   8
ATOM      7  O   HYP A  1       26.727 -20.215   7.037  0.00  0.00    -0.249 OA
ATOM      8  C   HYP A  1       26.317 -20.434   5.905  0.00  0.00    +0.322 C 
BRANCH   8   9
ATOM      9  OXT HYP A  1       27.021 -20.036   4.814  0.00  0.00    -0.479 OA
ATOM     10  HXT HYP A  1       26.780 -19.159   4.465  0.00  0.00    +0.295 HD
ENDBRANCH   8   9
ENDBRANCH   1   8
BRANCH   5  11
ATOM     11  OD  HYP A  1       22.550 -19.286   5.337  0.00  0.00    -0.391 OA
ATOM     12  HD  HYP A  1       22.988 -18.699   4.686  0.00  0.00    +0.210 HD
ENDBRANCH   5  11
TORSDOF 3
ENDMDL
MODEL 6
REMARK VINA RESULT:      -4.1      1.557      3.659
REMARK  Name = *****
REMARK                            x       y       z     vdW  Elec       q    Type
REMARK                         _______ _______ _______ _____ _____    ______ ____
ROOT
ATOM      1  CA  HYP A  1       26.417 -13.121   3.512  0.00  0.00    +0.166 C 
ATOM      2  N   HYP A  1       25.604 -13.474   2.329  0.00  0.00    -0.302 NA
ATOM      3  H   HYP A  1       25.994 -13.069   1.479  0.00  0.00    +0.123 HD
ATOM      4  CD  HYP A  1       24.253 -12.995   2.620  0.00  0.00    +0.113 C 
ATOM      5  CG  HYP A  1       24.081 -13.480   4.055  0.00  0.00    +0.130 C 
ATOM      6  CB  HYP A  1       25.447 -13.247   4.691  0.00  0.00    +0.062 C 
ENDROOT
BRANCH   1   8
ATOM      7  O   HYP A  1       27.645 -15.223   3.821  0.00  0.00    -0.249 OA
ATOM      8  C   HYP A  1       27.660 -14.016   3.627  0.00  0.00    +0.322 C 
BRANCH   8   9
ATOM      9  OXT HYP A  1       28.822 -13.357   3.386  0.00  0.00    -0.479 OA
ATOM     10  HXT HYP A  1       29.585 -13.663   3.909  0.00  0.00    +0.295 HD
ENDBRANCH   8   9
ENDBRANCH   1   8
BRANCH   5  11
ATOM     11  OD  HYP A  1       23.801 -14.880   4.068  0.00  0.00    -0.391 OA
ATOM     12  HD  HYP A  1       23.776 -15.138   5.013  0.00  0.00    +0.210 HD
ENDBRANCH   5  11
TORSDOF 3
ENDMDL
MODEL 7
REMARK VINA RESULT:      -4.0      2.524      3.596
REMARK  Name = *****
REMARK                            x       y       z     vdW  Elec       q    Type
REMARK                         _______ _______ _______ _____ _____    ______ ____
ROOT
ATOM      1  CA  HYP A  1       27.060 -12.894   3.975  0.00  0.00    +0.166 C 
ATOM      2  N   HYP A  1       26.853 -13.182   2.540  0.00  0.00    -0.302 NA
ATOM      3  H   HYP A  1       26.922 -12.333   1.979  0.00  0.00    +0.123 HD
ATOM      4  CD  HYP A  1       25.541 -13.820   2.449  0.00  0.00    +0.113 C 
ATOM      5  CG  HYP A  1       25.625 -14.814   3.602  0.00  0.00    +0.130 C 
ATOM      6  CB  HYP A  1       26.357 -14.047   4.699  0.00  0.00    +0.062 C 
ENDROOT
BRANCH   1   8
ATOM      7  O   HYP A  1       29.474 -13.116   3.589  0.00  0.00    -0.249 OA
ATOM      8  C   HYP A  1       28.552 -12.763   4.312  0.00  0.00    +0.322 C 
BRANCH   8   9
ATOM      9  OXT HYP A  1       28.785 -12.108   5.478  0.00  0.00    -0.479 OA
ATOM     10  HXT HYP A  1       29.647 -12.297   5.892  0.00  0.00    +0.295 HD
ENDBRANCH   8   9
ENDBRANCH   1   8
BRANCH   5  11
ATOM     11  OD  HYP A  1       26.418 -15.939   3.221  0.00  0.00    -0.391 OA
ATOM     12  HD  HYP A  1       25.798 -16.696   3.171  0.00  0.00    +0.210 HD
ENDBRANCH   5  11
TORSDOF 3
ENDMDL
MODEL 8
REMARK VINA RESULT:      -4.0      1.468      3.577
REMARK  Name = *****
REMARK                            x       y       z     vdW  Elec       q    Type
REMARK                         _______ _______ _______ _____ _____    ______ ____
ROOT
ATOM      1  CA  HYP A  1       26.230 -13.962   4.192  0.00  0.00    +0.166 C 
ATOM      2  N   HYP A  1       25.621 -12.636   4.428  0.00  0.00    -0.302 NA
ATOM      3  H   HYP A  1       26.131 -12.118   5.143  0.00  0.00    +0.123 HD
ATOM      4  CD  HYP A  1       24.230 -12.899   4.797  0.00  0.00    +0.113 C 
ATOM      5  CG  HYP A  1       23.846 -13.933   3.745  0.00  0.00    +0.130 C 
ATOM      6  CB  HYP A  1       25.090 -14.806   3.611  0.00  0.00    +0.062 C 
ENDROOT
BRANCH   1   8
ATOM      7  O   HYP A  1       28.599 -13.621   3.650  0.00  0.00    -0.249 OA
ATOM      8  C   HYP A  1       27.459 -13.861   3.277  0.00  0.00    +0.322 C 
BRANCH   8   9
ATOM      9  OXT HYP A  1       27.194 -14.169   1.982  0.00  0.00    -0.479 OA
ATOM     10  HXT HYP A  1       27.967 -14.160   1.390  0.00  0.00    +0.295 HD
ENDBRANCH   8   9
ENDBRANCH   1   8
BRANCH   5  11
ATOM     11  OD  HYP A  1       23.600 -13.290   2.494  0.00  0.00    -0.391 OA
ATOM     12  HD  HYP A  1       23.742 -12.333   2.654  0.00  0.00    +0.210 HD
ENDBRANCH   5  11
TORSDOF 3
ENDMDL
MODEL 9
REMARK VINA RESULT:      -3.8      2.457      3.649
REMARK  Name = *****
REMARK                            x       y       z     vdW  Elec       q    Type
REMARK                         _______ _______ _______ _____ _____    ______ ____
ROOT
ATOM      1  CA  HYP A  1       26.482 -15.163   3.266  0.00  0.00    +0.166 C 
ATOM      2  N   HYP A  1       25.259 -14.684   3.945  0.00  0.00    -0.302 NA
ATOM      3  H   HYP A  1       24.428 -14.878   3.388  0.00  0.00    +0.123 HD
ATOM      4  CD  HYP A  1       25.469 -13.255   4.177  0.00  0.00    +0.113 C 
ATOM      5  CG  HYP A  1       26.897 -13.259   4.710  0.00  0.00    +0.130 C 
ATOM      6  CB  HYP A  1       27.606 -14.310   3.863  0.00  0.00    +0.062 C 
ENDROOT
BRANCH   1   8
ATOM      7  O   HYP A  1       25.885 -17.539   3.107  0.00  0.00    -0.249 OA
ATOM      8  C   HYP A  1       26.676 -16.674   3.459  0.00  0.00    +0.322 C 
BRANCH   8   9
ATOM      9  OXT HYP A  1       27.885 -16.999   3.982  0.00  0.00    -0.479 OA
ATOM     10  HXT HYP A  1       28.636 -16.920   3.366  0.00  0.00    +0.295 HD
ENDBRANCH   8   9
ENDBRANCH   1   8
BRANCH   5  11
ATOM     11  OD  HYP A  1       26.909 -13.684   6.074  0.00  0.00    -0.391 OA
ATOM     12  HD  HYP A  1       26.757 -14.651   6.052  0.00  0.00    +0.210 HD
ENDBRANCH   5  11
TORSDOF 3
ENDMDL
