MODEL 1
REMARK VINA RESULT:      -7.6      0.000      0.000
REMARK  Name = *****
REMARK                            x       y       z     vdW  Elec       q    Type
REMARK                         _______ _______ _______ _____ _____    ______ ____
ROOT
ATOM      1  C   LIG    1       25.068 -22.823   6.557  0.00  0.00    +0.095 C 
ATOM      2  C   LIG    1       23.646 -22.606   7.145  0.00  0.00    +0.038 C 
ATOM      3  C   LIG    1       23.250 -21.133   7.264  0.00  0.00    +0.085 C 
ATOM      4  N   LIG    1       23.370 -20.379   6.020  0.00  0.00    -0.305 NA
ATOM      5  C   LIG    1       22.328 -20.709   5.050  0.00  0.00    +0.105 C 
ATOM      6  C   LIG    1       24.714 -20.500   5.457  0.00  0.00    +0.085 C 
ATOM      7  C   LIG    1       25.180 -21.949   5.272  0.00  0.00    +0.038 C 
ENDROOT
BRANCH   1   8
ATOM      8  C   LIG    1       25.318 -24.321   6.223  0.00  0.00    -0.030 A 
ATOM      9  C   LIG    1       25.748 -25.239   7.200  0.00  0.00    +0.005 A 
ATOM     10  C   LIG    1       25.985 -26.582   6.885  0.00  0.00    +0.000 A 
ATOM     11  C   LIG    1       25.776 -27.046   5.591  0.00  0.00    +0.000 A 
ATOM     12  C   LIG    1       25.323 -26.170   4.614  0.00  0.00    +0.000 A 
ATOM     13  C   LIG    1       25.092 -24.828   4.928  0.00  0.00    +0.005 A 
ENDBRANCH   1   8
BRANCH   1  14
ATOM     14  C   LIG    1       26.108 -22.361   7.608  0.00  0.00    +0.318 C 
ATOM     15  O   LIG    1       25.879 -22.197   8.797  0.00  0.00    -0.250 OA
BRANCH  14  16
ATOM     16  O   LIG    1       27.338 -22.174   7.032  0.00  0.00    -0.464 OA
BRANCH  16  18
ATOM     17  C   LIG    1       28.318 -20.039   6.415  0.00  0.00    +0.048 C 
ATOM     18  C   LIG    1       28.103 -21.060   7.516  0.00  0.00    +0.229 C 
ENDBRANCH  16  18
ENDBRANCH  14  16
ENDBRANCH   1  14
TORSDOF 4
ENDMDL
MODEL 2
REMARK VINA RESULT:      -7.3      2.004      3.771
REMARK  Name = *****
REMARK                            x       y       z     vdW  Elec       q    Type
REMARK                         _______ _______ _______ _____ _____    ______ ____
ROOT
ATOM      1  C   LIG    1       25.525 -21.855   7.042  0.00  0.00    +0.095 C 
ATOM      2  C   LIG    1       26.521 -21.354   5.960  0.00  0.00    +0.038 C 
ATOM      3  C   LIG    1       27.170 -20.011   6.299  0.00  0.00    +0.085 C 
ATOM      4  N   LIG    1       27.826 -19.975   7.603  0.00  0.00    -0.305 NA
ATOM      5  C   LIG    1       29.078 -20.727   7.633  0.00  0.00    +0.105 C 
ATOM      6  C   LIG    1       26.908 -20.380   8.667  0.00  0.00    +0.085 C 
ATOM      7  C   LIG    1       26.236 -21.736   8.423  0.00  0.00    +0.038 C 
ENDROOT
BRANCH   1   8
ATOM      8  C   LIG    1       25.093 -23.326   6.774  0.00  0.00    -0.030 A 
ATOM      9  C   LIG    1       26.032 -24.370   6.680  0.00  0.00    +0.005 A 
ATOM     10  C   LIG    1       25.633 -25.687   6.423  0.00  0.00    +0.000 A 
ATOM     11  C   LIG    1       24.286 -25.997   6.277  0.00  0.00    +0.000 A 
ATOM     12  C   LIG    1       23.336 -24.991   6.394  0.00  0.00    +0.000 A 
ATOM     13  C   LIG    1       23.734 -23.675   6.646  0.00  0.00    +0.005 A 
ENDBRANCH   1   8
BRANCH   1  14
ATOM     14  C   LIG    1       24.269 -20.948   7.008  0.00  0.00    +0.318 C 
ATOM     15  O   LIG    1       23.576 -20.674   7.976  0.00  0.00    -0.250 OA
BRANCH  14  16
ATOM     16  O   LIG    1       24.042 -20.471   5.744  0.00  0.00    -0.464 OA
BRANCH  16  18
ATOM     17  C   LIG    1       22.447 -18.986   4.671  0.00  0.00    +0.048 C 
ATOM     18  C   LIG    1       22.667 -20.319   5.360  0.00  0.00    +0.229 C 
ENDBRANCH  16  18
ENDBRANCH  14  16
ENDBRANCH   1  14
TORSDOF 4
ENDMDL
MODEL 3
REMARK VINA RESULT:      -7.2      1.918      4.698
REMARK  Name = *****
REMARK                            x       y       z     vdW  Elec       q    Type
REMARK                         _______ _______ _______ _____ _____    ______ ____
ROOT
ATOM      1  C   LIG    1       24.283 -22.217   6.266  0.00  0.00    +0.095 C 
ATOM      2  C   LIG    1       25.661 -22.888   6.010  0.00  0.00    +0.038 C 
ATOM      3  C   LIG    1       25.818 -24.246   6.695  0.00  0.00    +0.085 C 
ATOM      4  N   LIG    1       24.758 -25.201   6.382  0.00  0.00    -0.305 NA
ATOM      5  C   LIG    1       24.855 -25.736   5.026  0.00  0.00    +0.105 C 
ATOM      6  C   LIG    1       23.440 -24.637   6.666  0.00  0.00    +0.085 C 
ATOM      7  C   LIG    1       23.184 -23.286   5.989  0.00  0.00    +0.038 C 
ENDROOT
BRANCH   1   8
ATOM      8  C   LIG    1       24.081 -20.975   5.351  0.00  0.00    -0.030 A 
ATOM      9  C   LIG    1       22.864 -20.268   5.316  0.00  0.00    +0.005 A 
ATOM     10  C   LIG    1       22.689 -19.161   4.477  0.00  0.00    +0.000 A 
ATOM     11  C   LIG    1       23.731 -18.720   3.670  0.00  0.00    +0.000 A 
ATOM     12  C   LIG    1       24.952 -19.381   3.707  0.00  0.00    +0.000 A 
ATOM     13  C   LIG    1       25.126 -20.489   4.541  0.00  0.00    +0.005 A 
ENDBRANCH   1   8
BRANCH   1  14
ATOM     14  C   LIG    1       24.226 -21.765   7.747  0.00  0.00    +0.318 C 
ATOM     15  O   LIG    1       23.208 -21.463   8.350  0.00  0.00    -0.250 OA
BRANCH  14  16
ATOM     16  O   LIG    1       25.477 -21.766   8.307  0.00  0.00    -0.464 OA
BRANCH  16  18
ATOM     17  C   LIG    1       27.377 -20.321   7.859  0.00  0.00    +0.048 C 
ATOM     18  C   LIG    1       26.051 -20.478   8.579  0.00  0.00    +0.229 C 
ENDBRANCH  16  18
ENDBRANCH  14  16
ENDBRANCH   1  14
TORSDOF 4
ENDMDL
MODEL 4
REMARK VINA RESULT:      -7.1      2.044      5.187
REMARK  Name = *****
REMARK                            x       y       z     vdW  Elec       q    Type
REMARK                         _______ _______ _______ _____ _____    ______ ____
ROOT
ATOM      1  C   LIG    1       25.006 -21.279   6.462  0.00  0.00    +0.095 C 
ATOM      2  C   LIG    1       24.900 -20.776   7.929  0.00  0.00    +0.038 C 
ATOM      3  C   LIG    1       25.851 -21.489   8.891  0.00  0.00    +0.085 C 
ATOM      4  N   LIG    1       27.252 -21.461   8.479  0.00  0.00    -0.305 NA
ATOM      5  C   LIG    1       27.870 -20.148   8.645  0.00  0.00    +0.105 C 
ATOM      6  C   LIG    1       27.413 -21.985   7.123  0.00  0.00    +0.085 C 
ATOM      7  C   LIG    1       26.517 -21.301   6.084  0.00  0.00    +0.038 C 
ENDROOT
BRANCH   1   8
ATOM      8  C   LIG    1       24.213 -20.358   5.491  0.00  0.00    -0.030 A 
ATOM      9  C   LIG    1       24.791 -19.845   4.314  0.00  0.00    +0.005 A 
ATOM     10  C   LIG    1       24.072 -19.005   3.456  0.00  0.00    +0.000 A 
ATOM     11  C   LIG    1       22.752 -18.675   3.739  0.00  0.00    +0.000 A 
ATOM     12  C   LIG    1       22.147 -19.191   4.878  0.00  0.00    +0.000 A 
ATOM     13  C   LIG    1       22.866 -20.026   5.737  0.00  0.00    +0.005 A 
ENDBRANCH   1   8
BRANCH   1  14
ATOM     14  C   LIG    1       24.417 -22.711   6.392  0.00  0.00    +0.318 C 
ATOM     15  O   LIG    1       23.521 -23.136   7.104  0.00  0.00    -0.250 OA
BRANCH  14  16
ATOM     16  O   LIG    1       25.026 -23.442   5.405  0.00  0.00    -0.464 OA
BRANCH  16  18
ATOM     17  C   LIG    1       26.042 -25.455   6.309  0.00  0.00    +0.048 C 
ATOM     18  C   LIG    1       24.898 -24.869   5.503  0.00  0.00    +0.229 C 
ENDBRANCH  16  18
ENDBRANCH  14  16
ENDBRANCH   1  14
TORSDOF 4
ENDMDL
MODEL 5
REMARK VINA RESULT:      -7.0      1.291      4.490
REMARK  Name = *****
REMARK                            x       y       z     vdW  Elec       q    Type
REMARK                         _______ _______ _______ _____ _____    ______ ____
ROOT
ATOM      1  C   LIG    1       25.751 -21.382   6.563  0.00  0.00    +0.095 C 
ATOM      2  C   LIG    1       25.194 -21.391   5.113  0.00  0.00    +0.038 C 
ATOM      3  C   LIG    1       23.714 -21.767   5.027  0.00  0.00    +0.085 C 
ATOM      4  N   LIG    1       22.840 -20.953   5.867  0.00  0.00    -0.305 NA
ATOM      5  C   LIG    1       22.653 -19.599   5.352  0.00  0.00    +0.105 C 
ATOM      6  C   LIG    1       23.287 -20.962   7.259  0.00  0.00    +0.085 C 
ATOM      7  C   LIG    1       24.756 -20.564   7.440  0.00  0.00    +0.038 C 
ENDROOT
BRANCH   1   8
ATOM      8  C   LIG    1       27.173 -20.753   6.618  0.00  0.00    -0.030 A 
ATOM      9  C   LIG    1       28.101 -21.102   7.617  0.00  0.00    +0.005 A 
ATOM     10  C   LIG    1       29.373 -20.518   7.665  0.00  0.00    +0.000 A 
ATOM     11  C   LIG    1       29.756 -19.589   6.704  0.00  0.00    +0.000 A 
ATOM     12  C   LIG    1       28.870 -19.249   5.690  0.00  0.00    +0.000 A 
ATOM     13  C   LIG    1       27.599 -19.829   5.644  0.00  0.00    +0.005 A 
ENDBRANCH   1   8
BRANCH   1  14
ATOM     14  C   LIG    1       25.828 -22.845   7.068  0.00  0.00    +0.318 C 
ATOM     15  O   LIG    1       25.844 -23.183   8.241  0.00  0.00    -0.250 OA
BRANCH  14  16
ATOM     16  O   LIG    1       25.857 -23.725   6.017  0.00  0.00    -0.464 OA
BRANCH  16  18
ATOM     17  C   LIG    1       24.097 -25.395   6.117  0.00  0.00    +0.048 C 
ATOM     18  C   LIG    1       25.569 -25.096   6.329  0.00  0.00    +0.229 C 
ENDBRANCH  16  18
ENDBRANCH  14  16
ENDBRANCH   1  14
TORSDOF 4
ENDMDL
MODEL 6
REMARK VINA RESULT:      -6.9      1.519      4.275
REMARK  Name = *****
REMARK                            x       y       z     vdW  Elec       q    Type
REMARK                         _______ _______ _______ _____ _____    ______ ____
ROOT
ATOM      1  C   LIG    1       25.074 -21.300   5.954  0.00  0.00    +0.095 C 
ATOM      2  C   LIG    1       24.927 -21.029   4.431  0.00  0.00    +0.038 C 
ATOM      3  C   LIG    1       23.477 -21.037   3.944  0.00  0.00    +0.085 C 
ATOM      4  N   LIG    1       22.595 -20.131   4.675  0.00  0.00    -0.305 NA
ATOM      5  C   LIG    1       22.826 -18.725   4.352  0.00  0.00    +0.105 C 
ATOM      6  C   LIG    1       22.650 -20.389   6.113  0.00  0.00    +0.085 C 
ATOM      7  C   LIG    1       24.068 -20.367   6.693  0.00  0.00    +0.038 C 
ENDROOT
BRANCH   1   8
ATOM      8  C   LIG    1       26.527 -21.031   6.438  0.00  0.00    -0.030 A 
ATOM      9  C   LIG    1       27.078 -21.704   7.545  0.00  0.00    +0.005 A 
ATOM     10  C   LIG    1       28.383 -21.442   7.981  0.00  0.00    +0.000 A 
ATOM     11  C   LIG    1       29.176 -20.520   7.309  0.00  0.00    +0.000 A 
ATOM     12  C   LIG    1       28.668 -19.864   6.195  0.00  0.00    +0.000 A 
ATOM     13  C   LIG    1       27.364 -20.122   5.762  0.00  0.00    +0.005 A 
ENDBRANCH   1   8
BRANCH   1  14
ATOM     14  C   LIG    1       24.720 -22.785   6.223  0.00  0.00    +0.318 C 
ATOM     15  O   LIG    1       24.038 -23.186   7.154  0.00  0.00    -0.250 OA
BRANCH  14  16
ATOM     16  O   LIG    1       25.261 -23.599   5.263  0.00  0.00    -0.464 OA
BRANCH  16  18
ATOM     17  C   LIG    1       26.109 -25.702   6.131  0.00  0.00    +0.048 C 
ATOM     18  C   LIG    1       24.985 -25.002   5.392  0.00  0.00    +0.229 C 
ENDBRANCH  16  18
ENDBRANCH  14  16
ENDBRANCH   1  14
TORSDOF 4
ENDMDL
MODEL 7
REMARK VINA RESULT:      -6.7      2.057      5.100
REMARK  Name = *****
REMARK                            x       y       z     vdW  Elec       q    Type
REMARK                         _______ _______ _______ _____ _____    ______ ____
ROOT
ATOM      1  C   LIG    1       26.120 -21.028   6.627  0.00  0.00    +0.095 C 
ATOM      2  C   LIG    1       26.243 -20.325   8.007  0.00  0.00    +0.038 C 
ATOM      3  C   LIG    1       27.538 -20.657   8.750  0.00  0.00    +0.085 C 
ATOM      4  N   LIG    1       28.752 -20.405   7.979  0.00  0.00    -0.305 NA
ATOM      5  C   LIG    1       29.053 -18.983   7.835  0.00  0.00    +0.105 C 
ATOM      6  C   LIG    1       28.712 -21.099   6.692  0.00  0.00    +0.085 C 
ATOM      7  C   LIG    1       27.459 -20.796   5.864  0.00  0.00    +0.038 C 
ENDROOT
BRANCH   1   8
ATOM      8  C   LIG    1       24.921 -20.464   5.811  0.00  0.00    -0.030 A 
ATOM      9  C   LIG    1       23.619 -20.413   6.343  0.00  0.00    +0.005 A 
ATOM     10  C   LIG    1       22.544 -19.918   5.595  0.00  0.00    +0.000 A 
ATOM     11  C   LIG    1       22.749 -19.440   4.305  0.00  0.00    +0.000 A 
ATOM     12  C   LIG    1       24.029 -19.451   3.766  0.00  0.00    +0.000 A 
ATOM     13  C   LIG    1       25.100 -19.950   4.512  0.00  0.00    +0.005 A 
ENDBRANCH   1   8
BRANCH   1  14
ATOM     14  C   LIG    1       25.898 -22.542   6.867  0.00  0.00    +0.318 C 
ATOM     15  O   LIG    1       26.094 -23.121   7.924  0.00  0.00    -0.250 OA
BRANCH  14  16
ATOM     16  O   LIG    1       25.431 -23.155   5.733  0.00  0.00    -0.464 OA
BRANCH  16  18
ATOM     17  C   LIG    1       23.319 -24.076   6.500  0.00  0.00    +0.048 C 
ATOM     18  C   LIG    1       24.692 -24.370   5.927  0.00  0.00    +0.229 C 
ENDBRANCH  16  18
ENDBRANCH  14  16
ENDBRANCH   1  14
TORSDOF 4
ENDMDL
MODEL 8
REMARK VINA RESULT:      -6.3      1.480      1.907
REMARK  Name = *****
REMARK                            x       y       z     vdW  Elec       q    Type
REMARK                         _______ _______ _______ _____ _____    ______ ____
ROOT
ATOM      1  C   LIG    1       24.431 -22.372   6.203  0.00  0.00    +0.095 C 
ATOM      2  C   LIG    1       23.103 -22.080   5.450  0.00  0.00    +0.038 C 
ATOM      3  C   LIG    1       22.878 -20.596   5.156  0.00  0.00    +0.085 C 
ATOM      4  N   LIG    1       23.979 -19.953   4.445  0.00  0.00    -0.305 NA
ATOM      5  C   LIG    1       24.058 -20.346   3.040  0.00  0.00    +0.105 C 
ATOM      6  C   LIG    1       25.246 -20.146   5.149  0.00  0.00    +0.085 C 
ATOM      7  C   LIG    1       25.568 -21.612   5.456  0.00  0.00    +0.038 C 
ENDROOT
BRANCH   1   8
ATOM      8  C   LIG    1       24.731 -23.897   6.250  0.00  0.00    -0.030 A 
ATOM      9  C   LIG    1       23.705 -24.859   6.179  0.00  0.00    +0.005 A 
ATOM     10  C   LIG    1       23.985 -26.229   6.237  0.00  0.00    +0.000 A 
ATOM     11  C   LIG    1       25.298 -26.672   6.346  0.00  0.00    +0.000 A 
ATOM     12  C   LIG    1       26.332 -25.747   6.387  0.00  0.00    +0.000 A 
ATOM     13  C   LIG    1       26.052 -24.378   6.334  0.00  0.00    +0.005 A 
ENDBRANCH   1   8
BRANCH   1  14
ATOM     14  C   LIG    1       24.298 -21.839   7.653  0.00  0.00    +0.318 C 
ATOM     15  O   LIG    1       23.258 -21.457   8.167  0.00  0.00    -0.250 OA
BRANCH  14  16
ATOM     16  O   LIG    1       25.507 -21.869   8.298  0.00  0.00    -0.464 OA
BRANCH  16  18
ATOM     17  C   LIG    1       27.380 -20.328   8.170  0.00  0.00    +0.048 C 
ATOM     18  C   LIG    1       26.010 -20.607   8.760  0.00  0.00    +0.229 C 
ENDBRANCH  16  18
ENDBRANCH  14  16
ENDBRANCH   1  14
TORSDOF 4
ENDMDL
MODEL 9
REMARK VINA RESULT:      -6.3      1.895      5.063
REMARK  Name = *****
REMARK                            x       y       z     vdW  Elec       q    Type
REMARK                         _______ _______ _______ _____ _____    ______ ____
ROOT
ATOM      1  C   LIG    1       25.620 -21.582   6.488  0.00  0.00    +0.095 C 
ATOM      2  C   LIG    1       25.648 -22.801   7.451  0.00  0.00    +0.038 C 
ATOM      3  C   LIG    1       24.530 -23.812   7.194  0.00  0.00    +0.085 C 
ATOM      4  N   LIG    1       24.466 -24.296   5.817  0.00  0.00    -0.305 NA
ATOM      5  C   LIG    1       25.547 -25.221   5.487  0.00  0.00    +0.105 C 
ATOM      6  C   LIG    1       24.375 -23.184   4.872  0.00  0.00    +0.085 C 
ATOM      7  C   LIG    1       25.481 -22.136   5.038  0.00  0.00    +0.038 C 
ENDROOT
BRANCH   1   8
ATOM      8  C   LIG    1       26.911 -20.725   6.624  0.00  0.00    -0.030 A 
ATOM      9  C   LIG    1       27.437 -19.996   5.540  0.00  0.00    +0.005 A 
ATOM     10  C   LIG    1       28.608 -19.240   5.670  0.00  0.00    +0.000 A 
ATOM     11  C   LIG    1       29.269 -19.175   6.891  0.00  0.00    +0.000 A 
ATOM     12  C   LIG    1       28.756 -19.860   7.985  0.00  0.00    +0.000 A 
ATOM     13  C   LIG    1       27.590 -20.618   7.854  0.00  0.00    +0.005 A 
ENDBRANCH   1   8
BRANCH   1  14
ATOM     14  C   LIG    1       24.393 -20.705   6.843  0.00  0.00    +0.318 C 
ATOM     15  O   LIG    1       23.857 -20.660   7.940  0.00  0.00    -0.250 OA
BRANCH  14  16
ATOM     16  O   LIG    1       23.991 -19.964   5.763  0.00  0.00    -0.464 OA
BRANCH  16  18
ATOM     17  C   LIG    1       22.237 -18.811   4.541  0.00  0.00    +0.048 C 
ATOM     18  C   LIG    1       22.579 -19.929   5.508  0.00  0.00    +0.229 C 
ENDBRANCH  16  18
ENDBRANCH  14  16
ENDBRANCH   1  14
TORSDOF 4
ENDMDL
