MODEL 1
REMARK VINA RESULT:      -7.7      0.000      0.000
REMARK  Name = *****
REMARK                            x       y       z     vdW  Elec       q    Type
REMARK                         _______ _______ _______ _____ _____    ______ ____
ROOT
ATOM      1  C   LIG    1       23.932 -21.773   6.371  0.00  0.00    +0.132 C 
ATOM      2  C   LIG    1       25.420 -22.245   6.462  0.00  0.00    +0.014 C 
ATOM      3  C   LIG    1       26.171 -21.150   5.633  0.00  0.00    +0.002 C 
ATOM      4  C   LIG    1       26.753 -19.940   6.423  0.00  0.00    -0.003 C 
ATOM      5  C   LIG    1       27.430 -20.348   7.756  0.00  0.00    -0.000 C 
ATOM      6  C   LIG    1       26.402 -21.095   8.604  0.00  0.00    +0.005 C 
ATOM      7  C   LIG    1       28.759 -21.108   7.491  0.00  0.00    +0.019 C 
ATOM      8  C   LIG    1       29.658 -20.177   6.696  0.00  0.00    -0.063 C 
ATOM      9  C   LIG    1       30.806 -19.661   7.165  0.00  0.00    +0.045 C 
ATOM     10  C   LIG    1       31.227 -19.898   8.567  0.00  0.00    +0.156 C 
ATOM     11  C   LIG    1       30.254 -20.591   9.490  0.00  0.00    +0.079 C 
ATOM     12  O   LIG    1       32.300 -19.446   8.960  0.00  0.00    -0.293 OA
ATOM     13  C   LIG    1       29.100 -19.779   5.357  0.00  0.00    +0.031 C 
ATOM     14  C   LIG    1       29.480 -21.657   8.733  0.00  0.00    +0.016 C 
ATOM     15  C   LIG    1       27.735 -19.111   5.554  0.00  0.00    +0.008 C 
ATOM     16  C   LIG    1       25.147 -20.645   4.586  0.00  0.00    +0.008 C 
ATOM     17  C   LIG    1       25.915 -22.370   7.937  0.00  0.00    +0.011 C 
ATOM     18  C   LIG    1       23.778 -21.208   4.959  0.00  0.00    +0.049 C 
ENDROOT
BRANCH   1  20
ATOM     19  C   LIG    1       22.138 -23.686   6.883  0.00  0.00    +0.007 C 
ATOM     20  C   LIG    1       22.942 -22.823   6.658  0.00  0.00    -0.070 C 
ENDBRANCH   1  20
BRANCH   2  21
ATOM     21  C   LIG    1       25.686 -23.671   5.841  0.00  0.00    +0.007 C 
ATOM     22  C   LIG    1       25.879 -24.877   6.748  0.00  0.00    +0.004 C 
ENDBRANCH   2  21
BRANCH   1  23
ATOM     23  O   LIG    1       23.701 -20.691   7.274  0.00  0.00    -0.376 OA
ATOM     24  H   LIG    1       24.329 -19.986   7.040  0.00  0.00    +0.211 HD
ENDBRANCH   1  23
TORSDOF 3
ENDMDL
MODEL 2
REMARK VINA RESULT:      -5.5      7.616     10.053
REMARK  Name = *****
REMARK                            x       y       z     vdW  Elec       q    Type
REMARK                         _______ _______ _______ _____ _____    ______ ____
ROOT
ATOM      1  C   LIG    1       25.182 -31.568   8.233  0.00  0.00    +0.132 C 
ATOM      2  C   LIG    1       25.201 -30.092   8.745  0.00  0.00    +0.014 C 
ATOM      3  C   LIG    1       24.075 -30.098   9.832  0.00  0.00    +0.002 C 
ATOM      4  C   LIG    1       24.514 -30.365  11.302  0.00  0.00    -0.003 C 
ATOM      5  C   LIG    1       25.817 -29.623  11.696  0.00  0.00    -0.000 C 
ATOM      6  C   LIG    1       26.918 -30.046  10.726  0.00  0.00    +0.005 C 
ATOM      7  C   LIG    1       25.570 -28.093  11.806  0.00  0.00    +0.019 C 
ATOM      8  C   LIG    1       24.495 -27.885  12.859  0.00  0.00    -0.063 C 
ATOM      9  C   LIG    1       24.708 -27.276  14.037  0.00  0.00    +0.045 C 
ATOM     10  C   LIG    1       26.069 -26.844  14.434  0.00  0.00    +0.156 C 
ATOM     11  C   LIG    1       27.226 -27.256  13.554  0.00  0.00    +0.079 C 
ATOM     12  O   LIG    1       26.231 -26.255  15.500  0.00  0.00    -0.293 OA
ATOM     13  C   LIG    1       23.176 -28.524  12.524  0.00  0.00    +0.031 C 
ATOM     14  C   LIG    1       26.810 -27.230  12.093  0.00  0.00    +0.016 C 
ATOM     15  C   LIG    1       23.380 -30.027  12.306  0.00  0.00    +0.008 C 
ATOM     16  C   LIG    1       23.069 -31.187   9.383  0.00  0.00    +0.008 C 
ATOM     17  C   LIG    1       26.602 -29.668   9.288  0.00  0.00    +0.011 C 
ATOM     18  C   LIG    1       23.710 -31.977   8.244  0.00  0.00    +0.049 C 
ENDROOT
BRANCH   1  20
ATOM     19  C   LIG    1       26.296 -31.929   5.830  0.00  0.00    +0.007 C 
ATOM     20  C   LIG    1       25.801 -31.763   6.912  0.00  0.00    -0.070 C 
ENDBRANCH   1  20
BRANCH   2  21
ATOM     21  C   LIG    1       24.875 -29.018   7.635  0.00  0.00    +0.007 C 
ATOM     22  C   LIG    1       25.753 -27.785   7.481  0.00  0.00    +0.004 C 
ENDBRANCH   2  21
BRANCH   1  23
ATOM     23  O   LIG    1       25.852 -32.422   9.163  0.00  0.00    -0.376 OA
ATOM     24  H   LIG    1       25.934 -31.926   9.996  0.00  0.00    +0.211 HD
ENDBRANCH   1  23
TORSDOF 3
ENDMDL
MODEL 3
REMARK VINA RESULT:      -5.5      7.852      9.985
REMARK  Name = *****
REMARK                            x       y       z     vdW  Elec       q    Type
REMARK                         _______ _______ _______ _____ _____    ______ ____
ROOT
ATOM      1  C   LIG    1       25.361 -31.420  10.976  0.00  0.00    +0.132 C 
ATOM      2  C   LIG    1       25.475 -29.868  10.837  0.00  0.00    +0.014 C 
ATOM      3  C   LIG    1       24.260 -29.363  11.685  0.00  0.00    +0.002 C 
ATOM      4  C   LIG    1       24.538 -29.013  13.178  0.00  0.00    -0.003 C 
ATOM      5  C   LIG    1       25.865 -28.241  13.389  0.00  0.00    -0.000 C 
ATOM      6  C   LIG    1       27.004 -29.085  12.818  0.00  0.00    +0.005 C 
ATOM      7  C   LIG    1       25.758 -26.795  12.831  0.00  0.00    +0.019 C 
ATOM      8  C   LIG    1       24.618 -26.113  13.568  0.00  0.00    -0.063 C 
ATOM      9  C   LIG    1       24.781 -25.079  14.410  0.00  0.00    +0.045 C 
ATOM     10  C   LIG    1       26.137 -24.590  14.757  0.00  0.00    +0.156 C 
ATOM     11  C   LIG    1       27.323 -25.389  14.270  0.00  0.00    +0.079 C 
ATOM     12  O   LIG    1       26.258 -23.618  15.499  0.00  0.00    -0.293 OA
ATOM     13  C   LIG    1       23.278 -26.767  13.366  0.00  0.00    +0.031 C 
ATOM     14  C   LIG    1       27.044 -25.954  12.888  0.00  0.00    +0.016 C 
ATOM     15  C   LIG    1       23.357 -28.232  13.809  0.00  0.00    +0.008 C 
ATOM     16  C   LIG    1       23.199 -30.489  11.603  0.00  0.00    +0.008 C 
ATOM     17  C   LIG    1       26.855 -29.327  11.325  0.00  0.00    +0.011 C 
ATOM     18  C   LIG    1       23.861 -31.713  10.975  0.00  0.00    +0.049 C 
ENDROOT
BRANCH   1  20
ATOM     19  C   LIG    1       26.664 -32.791   9.088  0.00  0.00    +0.007 C 
ATOM     20  C   LIG    1       26.073 -32.179   9.936  0.00  0.00    -0.070 C 
ENDBRANCH   1  20
BRANCH   2  21
ATOM     21  C   LIG    1       25.354 -29.341   9.354  0.00  0.00    +0.007 C 
ATOM     22  C   LIG    1       26.365 -28.341   8.812  0.00  0.00    +0.004 C 
ENDBRANCH   2  21
BRANCH   1  23
ATOM     23  O   LIG    1       25.860 -31.840  12.248  0.00  0.00    -0.376 OA
ATOM     24  H   LIG    1       25.244 -31.501  12.920  0.00  0.00    +0.211 HD
ENDBRANCH   1  23
TORSDOF 3
ENDMDL
MODEL 4
REMARK VINA RESULT:      -5.2      8.351     10.804
REMARK  Name = *****
REMARK                            x       y       z     vdW  Elec       q    Type
REMARK                         _______ _______ _______ _____ _____    ______ ____
ROOT
ATOM      1  C   LIG    1       24.662 -33.050   6.689  0.00  0.00    +0.132 C 
ATOM      2  C   LIG    1       24.664 -31.566   7.179  0.00  0.00    +0.014 C 
ATOM      3  C   LIG    1       23.799 -31.641   8.482  0.00  0.00    +0.002 C 
ATOM      4  C   LIG    1       24.561 -31.839   9.825  0.00  0.00    -0.003 C 
ATOM      5  C   LIG    1       25.850 -30.984   9.930  0.00  0.00    -0.000 C 
ATOM      6  C   LIG    1       26.752 -31.336   8.748  0.00  0.00    +0.005 C 
ATOM      7  C   LIG    1       25.503 -29.477  10.083  0.00  0.00    +0.019 C 
ATOM      8  C   LIG    1       24.663 -29.336  11.341  0.00  0.00    -0.063 C 
ATOM      9  C   LIG    1       25.068 -28.685  12.444  0.00  0.00    +0.045 C 
ATOM     10  C   LIG    1       26.441 -28.135  12.539  0.00  0.00    +0.156 C 
ATOM     11  C   LIG    1       27.415 -28.469  11.435  0.00  0.00    +0.079 C 
ATOM     12  O   LIG    1       26.774 -27.511  13.544  0.00  0.00    -0.293 OA
ATOM     13  C   LIG    1       23.361 -30.088  11.298  0.00  0.00    +0.031 C 
ATOM     14  C   LIG    1       26.697 -28.509  10.096  0.00  0.00    +0.016 C 
ATOM     15  C   LIG    1       23.642 -31.574  11.046  0.00  0.00    +0.008 C 
ATOM     16  C   LIG    1       22.817 -32.819   8.262  0.00  0.00    +0.008 C 
ATOM     17  C   LIG    1       26.107 -31.017   7.410  0.00  0.00    +0.011 C 
ATOM     18  C   LIG    1       23.266 -33.578   7.016  0.00  0.00    +0.049 C 
ENDROOT
BRANCH   1  20
ATOM     19  C   LIG    1       25.279 -33.351   4.106  0.00  0.00    +0.007 C 
ATOM     20  C   LIG    1       25.000 -33.222   5.267  0.00  0.00    -0.070 C 
ENDBRANCH   1  20
BRANCH   2  21
ATOM     21  C   LIG    1       24.020 -30.547   6.161  0.00  0.00    +0.007 C 
ATOM     22  C   LIG    1       24.357 -29.066   6.242  0.00  0.00    +0.004 C 
ENDBRANCH   2  21
BRANCH   1  23
ATOM     23  O   LIG    1       25.585 -33.825   7.457  0.00  0.00    -0.376 OA
ATOM     24  H   LIG    1       25.079 -34.233   8.181  0.00  0.00    +0.211 HD
ENDBRANCH   1  23
TORSDOF 3
ENDMDL
MODEL 5
REMARK VINA RESULT:      -5.2      8.741     10.459
REMARK  Name = *****
REMARK                            x       y       z     vdW  Elec       q    Type
REMARK                         _______ _______ _______ _____ _____    ______ ____
ROOT
ATOM      1  C   LIG    1       22.901 -31.738  11.674  0.00  0.00    +0.132 C 
ATOM      2  C   LIG    1       23.598 -30.380  11.336  0.00  0.00    +0.014 C 
ATOM      3  C   LIG    1       22.668 -29.339  12.045  0.00  0.00    +0.002 C 
ATOM      4  C   LIG    1       23.061 -28.910  13.490  0.00  0.00    -0.003 C 
ATOM      5  C   LIG    1       24.582 -28.674  13.667  0.00  0.00    -0.000 C 
ATOM      6  C   LIG    1       25.312 -29.957  13.274  0.00  0.00    +0.005 C 
ATOM      7  C   LIG    1       25.033 -27.390  12.918  0.00  0.00    +0.019 C 
ATOM      8  C   LIG    1       24.239 -26.230  13.497  0.00  0.00    -0.063 C 
ATOM      9  C   LIG    1       24.785 -25.226  14.201  0.00  0.00    +0.045 C 
ATOM     10  C   LIG    1       26.226 -25.240  14.551  0.00  0.00    +0.156 C 
ATOM     11  C   LIG    1       27.017 -26.488  14.239  0.00  0.00    +0.079 C 
ATOM     12  O   LIG    1       26.708 -24.291  15.164  0.00  0.00    -0.293 OA
ATOM     13  C   LIG    1       22.751 -26.352  13.312  0.00  0.00    +0.031 C 
ATOM     14  C   LIG    1       26.542 -27.097  12.931  0.00  0.00    +0.016 C 
ATOM     15  C   LIG    1       22.266 -27.659  13.949  0.00  0.00    +0.008 C 
ATOM     16  C   LIG    1       21.258 -29.980  12.057  0.00  0.00    +0.008 C 
ATOM     17  C   LIG    1       25.081 -30.336  11.821  0.00  0.00    +0.011 C 
ATOM     18  C   LIG    1       21.402 -31.440  11.632  0.00  0.00    +0.049 C 
ENDROOT
BRANCH   1  20
ATOM     19  C   LIG    1       23.581 -33.756  10.059  0.00  0.00    +0.007 C 
ATOM     20  C   LIG    1       23.269 -32.849  10.783  0.00  0.00    -0.070 C 
ENDBRANCH   1  20
BRANCH   2  21
ATOM     21  C   LIG    1       23.685 -30.063   9.792  0.00  0.00    +0.007 C 
ATOM     22  C   LIG    1       25.019 -29.700   9.159  0.00  0.00    +0.004 C 
ENDBRANCH   2  21
BRANCH   1  23
ATOM     23  O   LIG    1       23.204 -32.128  13.014  0.00  0.00    -0.376 OA
ATOM     24  H   LIG    1       22.659 -31.577  13.601  0.00  0.00    +0.211 HD
ENDBRANCH   1  23
TORSDOF 3
ENDMDL
MODEL 6
REMARK VINA RESULT:      -5.2      8.993     11.680
REMARK  Name = *****
REMARK                            x       y       z     vdW  Elec       q    Type
REMARK                         _______ _______ _______ _____ _____    ______ ____
ROOT
ATOM      1  C   LIG    1       23.638 -30.552  11.568  0.00  0.00    +0.132 C 
ATOM      2  C   LIG    1       24.697 -30.267  10.454  0.00  0.00    +0.014 C 
ATOM      3  C   LIG    1       25.540 -31.586  10.446  0.00  0.00    +0.002 C 
ATOM      4  C   LIG    1       25.117 -32.689   9.432  0.00  0.00    -0.003 C 
ATOM      5  C   LIG    1       24.745 -32.127   8.036  0.00  0.00    -0.000 C 
ATOM      6  C   LIG    1       23.622 -31.108   8.216  0.00  0.00    +0.005 C 
ATOM      7  C   LIG    1       26.008 -31.608   7.295  0.00  0.00    +0.019 C 
ATOM      8  C   LIG    1       26.966 -32.781   7.164  0.00  0.00    -0.063 C 
ATOM      9  C   LIG    1       27.308 -33.342   5.992  0.00  0.00    +0.045 C 
ATOM     10  C   LIG    1       26.676 -32.901   4.726  0.00  0.00    +0.156 C 
ATOM     11  C   LIG    1       25.525 -31.926   4.813  0.00  0.00    +0.079 C 
ATOM     12  O   LIG    1       27.034 -33.404   3.664  0.00  0.00    -0.293 OA
ATOM     13  C   LIG    1       27.425 -33.349   8.479  0.00  0.00    +0.031 C 
ATOM     14  C   LIG    1       25.762 -30.932   5.937  0.00  0.00    +0.016 C 
ATOM     15  C   LIG    1       26.205 -33.787   9.296  0.00  0.00    +0.008 C 
ATOM     16  C   LIG    1       25.453 -32.144  11.889  0.00  0.00    +0.008 C 
ATOM     17  C   LIG    1       24.039 -29.930   9.080  0.00  0.00    +0.011 C 
ATOM     18  C   LIG    1       24.385 -31.350  12.636  0.00  0.00    +0.049 C 
ENDROOT
BRANCH   1  20
ATOM     19  C   LIG    1       22.468 -28.373  12.581  0.00  0.00    +0.007 C 
ATOM     20  C   LIG    1       22.998 -29.349  12.122  0.00  0.00    -0.070 C 
ENDBRANCH   1  20
BRANCH   2  21
ATOM     21  C   LIG    1       25.631 -29.030  10.751  0.00  0.00    +0.007 C 
ATOM     22  C   LIG    1       26.650 -28.575   9.717  0.00  0.00    +0.004 C 
ENDBRANCH   2  21
BRANCH   1  23
ATOM     23  O   LIG    1       22.609 -31.406  11.064  0.00  0.00    -0.376 OA
ATOM     24  H   LIG    1       22.869 -31.663  10.162  0.00  0.00    +0.211 HD
ENDBRANCH   1  23
TORSDOF 3
ENDMDL
MODEL 7
REMARK VINA RESULT:      -4.9      9.942     12.508
REMARK  Name = *****
REMARK                            x       y       z     vdW  Elec       q    Type
REMARK                         _______ _______ _______ _____ _____    ______ ____
ROOT
ATOM      1  C   LIG    1       24.263 -30.544  11.374  0.00  0.00    +0.132 C 
ATOM      2  C   LIG    1       23.414 -30.474  12.684  0.00  0.00    +0.014 C 
ATOM      3  C   LIG    1       23.502 -28.957  13.062  0.00  0.00    +0.002 C 
ATOM      4  C   LIG    1       22.357 -28.034  12.550  0.00  0.00    -0.003 C 
ATOM      5  C   LIG    1       20.951 -28.673  12.681  0.00  0.00    -0.000 C 
ATOM      6  C   LIG    1       20.954 -29.994  11.914  0.00  0.00    +0.005 C 
ATOM      7  C   LIG    1       20.522 -28.764  14.172  0.00  0.00    +0.019 C 
ATOM      8  C   LIG    1       20.522 -27.349  14.727  0.00  0.00    -0.063 C 
ATOM      9  C   LIG    1       19.416 -26.700  15.125  0.00  0.00    +0.045 C 
ATOM     10  C   LIG    1       18.075 -27.307  14.949  0.00  0.00    +0.156 C 
ATOM     11  C   LIG    1       17.979 -28.594  14.164  0.00  0.00    +0.079 C 
ATOM     12  O   LIG    1       17.083 -26.709  15.357  0.00  0.00    -0.293 OA
ATOM     13  C   LIG    1       21.868 -26.677  14.692  0.00  0.00    +0.031 C 
ATOM     14  C   LIG    1       19.186 -29.473  14.446  0.00  0.00    +0.016 C 
ATOM     15  C   LIG    1       22.385 -26.650  13.250  0.00  0.00    +0.008 C 
ATOM     16  C   LIG    1       24.859 -28.466  12.497  0.00  0.00    +0.008 C 
ATOM     17  C   LIG    1       21.955 -30.989  12.476  0.00  0.00    +0.011 C 
ATOM     18  C   LIG    1       25.414 -29.561  11.589  0.00  0.00    +0.049 C 
ENDROOT
BRANCH   1  20
ATOM     19  C   LIG    1       25.147 -32.989  10.754  0.00  0.00    +0.007 C 
ATOM     20  C   LIG    1       24.744 -31.892  11.031  0.00  0.00    -0.070 C 
ENDBRANCH   1  20
BRANCH   2  21
ATOM     21  C   LIG    1       23.973 -31.358  13.866  0.00  0.00    +0.007 C 
ATOM     22  C   LIG    1       23.272 -31.364  15.215  0.00  0.00    +0.004 C 
ENDBRANCH   2  21
BRANCH   1  23
ATOM     23  O   LIG    1       23.505 -30.052  10.267  0.00  0.00    -0.376 OA
ATOM     24  H   LIG    1       22.674 -29.698  10.627  0.00  0.00    +0.211 HD
ENDBRANCH   1  23
TORSDOF 3
ENDMDL
MODEL 8
REMARK VINA RESULT:      -4.8      8.738     11.118
REMARK  Name = *****
REMARK                            x       y       z     vdW  Elec       q    Type
REMARK                         _______ _______ _______ _____ _____    ______ ____
ROOT
ATOM      1  C   LIG    1       20.247 -31.005  12.651  0.00  0.00    +0.132 C 
ATOM      2  C   LIG    1       21.376 -30.425  13.564  0.00  0.00    +0.014 C 
ATOM      3  C   LIG    1       22.656 -30.625  12.684  0.00  0.00    +0.002 C 
ATOM      4  C   LIG    1       23.091 -29.428  11.787  0.00  0.00    -0.003 C 
ATOM      5  C   LIG    1       22.980 -28.057  12.501  0.00  0.00    -0.000 C 
ATOM      6  C   LIG    1       21.536 -27.877  12.968  0.00  0.00    +0.005 C 
ATOM      7  C   LIG    1       24.063 -27.920  13.606  0.00  0.00    +0.019 C 
ATOM      8  C   LIG    1       25.416 -28.064  12.929  0.00  0.00    -0.063 C 
ATOM      9  C   LIG    1       26.318 -27.073  12.835  0.00  0.00    +0.045 C 
ATOM     10  C   LIG    1       25.996 -25.707  13.314  0.00  0.00    +0.156 C 
ATOM     11  C   LIG    1       24.579 -25.428  13.754  0.00  0.00    +0.079 C 
ATOM     12  O   LIG    1       26.851 -24.828  13.252  0.00  0.00    -0.293 OA
ATOM     13  C   LIG    1       25.629 -29.395  12.261  0.00  0.00    +0.031 C 
ATOM     14  C   LIG    1       23.998 -26.642  14.459  0.00  0.00    +0.016 C 
ATOM     15  C   LIG    1       24.523 -29.627  11.226  0.00  0.00    +0.008 C 
ATOM     16  C   LIG    1       22.362 -31.861  11.797  0.00  0.00    +0.008 C 
ATOM     17  C   LIG    1       21.112 -28.941  13.966  0.00  0.00    +0.011 C 
ATOM     18  C   LIG    1       20.881 -32.202  11.942  0.00  0.00    +0.049 C 
ENDROOT
BRANCH   1  20
ATOM     19  C   LIG    1       18.017 -31.679  13.961  0.00  0.00    +0.007 C 
ATOM     20  C   LIG    1       19.016 -31.375  13.367  0.00  0.00    -0.070 C 
ENDBRANCH   1  20
BRANCH   2  21
ATOM     21  C   LIG    1       21.545 -31.177  14.941  0.00  0.00    +0.007 C 
ATOM     22  C   LIG    1       22.934 -31.452  15.498  0.00  0.00    +0.004 C 
ENDBRANCH   2  21
BRANCH   1  23
ATOM     23  O   LIG    1       19.901 -30.062  11.635  0.00  0.00    -0.376 OA
ATOM     24  H   LIG    1       20.663 -29.999  11.034  0.00  0.00    +0.211 HD
ENDBRANCH   1  23
TORSDOF 3
ENDMDL
MODEL 9
REMARK VINA RESULT:      -4.8      8.756     11.428
REMARK  Name = *****
REMARK                            x       y       z     vdW  Elec       q    Type
REMARK                         _______ _______ _______ _____ _____    ______ ____
ROOT
ATOM      1  C   LIG    1       25.218 -30.776  12.978  0.00  0.00    +0.132 C 
ATOM      2  C   LIG    1       24.388 -30.959  11.666  0.00  0.00    +0.014 C 
ATOM      3  C   LIG    1       24.881 -29.761  10.786  0.00  0.00    +0.002 C 
ATOM      4  C   LIG    1       26.056 -30.044   9.803  0.00  0.00    -0.003 C 
ATOM      5  C   LIG    1       25.925 -31.402   9.068  0.00  0.00    -0.000 C 
ATOM      6  C   LIG    1       25.832 -32.506  10.119  0.00  0.00    +0.005 C 
ATOM      7  C   LIG    1       24.767 -31.361   8.034  0.00  0.00    +0.019 C 
ATOM      8  C   LIG    1       25.082 -30.246   7.050  0.00  0.00    -0.063 C 
ATOM      9  C   LIG    1       25.362 -30.448   5.752  0.00  0.00    +0.045 C 
ATOM     10  C   LIG    1       25.482 -31.821   5.207  0.00  0.00    +0.156 C 
ATOM     11  C   LIG    1       25.445 -32.975   6.181  0.00  0.00    +0.079 C 
ATOM     12  O   LIG    1       25.702 -31.979   4.008  0.00  0.00    -0.293 OA
ATOM     13  C   LIG    1       25.166 -28.881   7.676  0.00  0.00    +0.031 C 
ATOM     14  C   LIG    1       24.466 -32.681   7.306  0.00  0.00    +0.016 C 
ATOM     15  C   LIG    1       26.231 -28.893   8.778  0.00  0.00    +0.008 C 
ATOM     16  C   LIG    1       25.295 -28.653  11.787  0.00  0.00    +0.008 C 
ATOM     17  C   LIG    1       24.611 -32.358  11.011  0.00  0.00    +0.011 C 
ATOM     18  C   LIG    1       25.312 -29.265  13.185  0.00  0.00    +0.049 C 
ENDROOT
BRANCH   1  20
ATOM     19  C   LIG    1       24.204 -32.013  15.119  0.00  0.00    +0.007 C 
ATOM     20  C   LIG    1       24.658 -31.462  14.153  0.00  0.00    -0.070 C 
ENDBRANCH   1  20
BRANCH   2  21
ATOM     21  C   LIG    1       22.826 -30.871  11.871  0.00  0.00    +0.007 C 
ATOM     22  C   LIG    1       21.919 -30.516  10.702  0.00  0.00    +0.004 C 
ENDBRANCH   2  21
BRANCH   1  23
ATOM     23  O   LIG    1       26.554 -31.248  12.787  0.00  0.00    -0.376 OA
ATOM     24  H   LIG    1       26.575 -31.700  11.926  0.00  0.00    +0.211 HD
ENDBRANCH   1  23
TORSDOF 3
ENDMDL
