MODEL 1
REMARK VINA RESULT:      29.1      0.000      0.000
REMARK  Name = *****
REMARK                            x       y       z     vdW  Elec       q    Type
REMARK                         _______ _______ _______ _____ _____    ______ ____
ROOT
ATOM      1  C   LIG    1       24.477 -17.267   4.183  0.00  0.00    +0.006 A 
ATOM      2  C   LIG    1       23.236 -17.677   3.797  0.00  0.00    +0.028 A 
ATOM      3  C   LIG    1       22.260 -16.712   3.266  0.00  0.00    +0.154 A 
ATOM      4  C   LIG    1       20.989 -17.069   2.996  0.00  0.00    +0.108 C 
ATOM      5  C   LIG    1       20.527 -18.473   3.230  0.00  0.00    +0.210 C 
ATOM      6  C   LIG    1       21.562 -19.470   3.640  0.00  0.00    +0.066 C 
ATOM      7 BR   LIG    1       21.059 -21.264   3.797  0.00  0.00    -0.046 Br
ATOM      8  O   LIG    1       19.351 -18.801   3.090  0.00  0.00    -0.285 OA
ATOM      9 BR   LIG    1       19.717 -15.857   2.333  0.00  0.00    -0.043 Br
ATOM     10  O   LIG    1       22.656 -15.405   3.027  0.00  0.00    -0.452 OA
ATOM     11  C   LIG    1       23.862 -14.948   3.486  0.00  0.00    +0.154 A 
ATOM     12  C   LIG    1       24.133 -13.575   3.353  0.00  0.00    +0.103 A 
ATOM     13 BR   LIG    1       22.852 -12.422   2.539  0.00  0.00    -0.043 Br
ATOM     14  C   LIG    1       25.339 -13.055   3.828  0.00  0.00    +0.148 A 
ATOM     15  C   LIG    1       26.267 -13.909   4.422  0.00  0.00    +0.061 A 
ATOM     16 BR   LIG    1       27.913 -13.243   5.090  0.00  0.00    -0.046 Br
ATOM     17  C   LIG    1       25.998 -15.275   4.542  0.00  0.00    +0.031 A 
ATOM     18  C   LIG    1       22.820 -19.078   3.892  0.00  0.00    +0.031 C 
ATOM     19  C   LIG    1       24.788 -15.813   4.074  0.00  0.00    +0.028 A 
ENDROOT
BRANCH   1  21
ATOM     20  C   LIG    1       26.855 -18.120   4.489  0.00  0.00    +0.088 A 
ATOM     21  C   LIG    1       25.468 -18.249   4.745  0.00  0.00    +0.019 A 
ATOM     22  C   LIG    1       25.016 -19.324   5.547  0.00  0.00    +0.069 A 
ATOM     23 CL   LIG    1       23.310 -19.495   5.863  0.00  0.00    -0.081 Cl
ATOM     24  C   LIG    1       25.930 -20.249   6.083  0.00  0.00    +0.080 A 
ATOM     25 CL   LIG    1       25.356 -21.571   7.062  0.00  0.00    -0.081 Cl
ATOM     26  C   LIG    1       27.306 -20.106   5.827  0.00  0.00    +0.080 A 
ATOM     27 CL   LIG    1       28.438 -21.256   6.483  0.00  0.00    -0.081 Cl
ATOM     28  C   LIG    1       27.770 -19.039   5.034  0.00  0.00    +0.075 A 
ATOM     29 CL   LIG    1       29.474 -18.850   4.735  0.00  0.00    -0.081 Cl
BRANCH  20  31
ATOM     30  O   LIG    1       26.918 -16.752   2.556  0.00  0.00    -0.245 OA
ATOM     31  C   LIG    1       27.333 -16.974   3.678  0.00  0.00    +0.339 C 
BRANCH  31  32
ATOM     32  O   LIG    1       28.335 -16.281   4.252  0.00  0.00    -0.477 OA
ATOM     33  H   LIG    1       28.103 -15.444   4.699  0.00  0.00    +0.295 HD
ENDBRANCH  31  32
ENDBRANCH  20  31
ENDBRANCH   1  21
BRANCH  14  34
ATOM     34  O   LIG    1       25.595 -11.714   3.709  0.00  0.00    -0.504 OA
ATOM     35  H   LIG    1       26.401 -11.602   3.173  0.00  0.00    +0.292 HD
ENDBRANCH  14  34
TORSDOF 4
ENDMDL
MODEL 2
REMARK VINA RESULT:      30.8      1.387      2.589
REMARK  Name = *****
REMARK                            x       y       z     vdW  Elec       q    Type
REMARK                         _______ _______ _______ _____ _____    ______ ____
ROOT
ATOM      1  C   LIG    1       24.438 -17.354   4.088  0.00  0.00    +0.006 A 
ATOM      2  C   LIG    1       23.207 -17.805   3.714  0.00  0.00    +0.028 A 
ATOM      3  C   LIG    1       22.209 -16.880   3.151  0.00  0.00    +0.154 A 
ATOM      4  C   LIG    1       20.948 -17.276   2.892  0.00  0.00    +0.108 C 
ATOM      5  C   LIG    1       20.518 -18.682   3.170  0.00  0.00    +0.210 C 
ATOM      6  C   LIG    1       21.575 -19.641   3.611  0.00  0.00    +0.066 C 
ATOM      7 BR   LIG    1       21.114 -21.440   3.824  0.00  0.00    -0.046 Br
ATOM      8  O   LIG    1       19.350 -19.041   3.038  0.00  0.00    -0.285 OA
ATOM      9 BR   LIG    1       19.649 -16.115   2.189  0.00  0.00    -0.043 Br
ATOM     10  O   LIG    1       22.575 -15.573   2.872  0.00  0.00    -0.452 OA
ATOM     11  C   LIG    1       23.770 -15.074   3.317  0.00  0.00    +0.154 A 
ATOM     12  C   LIG    1       24.009 -13.699   3.141  0.00  0.00    +0.103 A 
ATOM     13 BR   LIG    1       22.703 -12.603   2.290  0.00  0.00    -0.043 Br
ATOM     14  C   LIG    1       25.202 -13.137   3.600  0.00  0.00    +0.148 A 
ATOM     15  C   LIG    1       26.148 -13.949   4.222  0.00  0.00    +0.061 A 
ATOM     16 BR   LIG    1       27.777 -13.225   4.871  0.00  0.00    -0.046 Br
ATOM     17  C   LIG    1       25.911 -15.317   4.385  0.00  0.00    +0.031 A 
ATOM     18  C   LIG    1       22.824 -19.212   3.852  0.00  0.00    +0.031 C 
ATOM     19  C   LIG    1       24.714 -15.898   3.933  0.00  0.00    +0.028 A 
ENDROOT
BRANCH   1  21
ATOM     20  C   LIG    1       25.054 -19.365   5.521  0.00  0.00    +0.088 A 
ATOM     21  C   LIG    1       25.450 -18.295   4.682  0.00  0.00    +0.019 A 
ATOM     22  C   LIG    1       26.826 -18.117   4.402  0.00  0.00    +0.069 A 
ATOM     23 CL   LIG    1       27.325 -16.799   3.374  0.00  0.00    -0.081 Cl
ATOM     24  C   LIG    1       27.784 -18.991   4.947  0.00  0.00    +0.080 A 
ATOM     25 CL   LIG    1       29.475 -18.753   4.598  0.00  0.00    -0.081 Cl
ATOM     26  C   LIG    1       27.377 -20.053   5.773  0.00  0.00    +0.080 A 
ATOM     27 CL   LIG    1       28.564 -21.130   6.456  0.00  0.00    -0.081 Cl
ATOM     28  C   LIG    1       26.011 -20.244   6.056  0.00  0.00    +0.075 A 
ATOM     29 CL   LIG    1       25.506 -21.572   7.062  0.00  0.00    -0.081 Cl
BRANCH  20  31
ATOM     30  O   LIG    1       22.869 -18.664   6.114  0.00  0.00    -0.245 OA
ATOM     31  C   LIG    1       23.609 -19.573   5.786  0.00  0.00    +0.339 C 
BRANCH  31  32
ATOM     32  O   LIG    1       23.227 -20.864   5.740  0.00  0.00    -0.477 OA
ATOM     33  H   LIG    1       22.268 -21.046   5.693  0.00  0.00    +0.295 HD
ENDBRANCH  31  32
ENDBRANCH  20  31
ENDBRANCH   1  21
BRANCH  14  34
ATOM     34  O   LIG    1       25.427 -11.795   3.440  0.00  0.00    -0.504 OA
ATOM     35  H   LIG    1       26.386 -11.653   3.349  0.00  0.00    +0.292 HD
ENDBRANCH  14  34
TORSDOF 4
ENDMDL
MODEL 3
REMARK VINA RESULT:      31.4      3.074      5.505
REMARK  Name = *****
REMARK                            x       y       z     vdW  Elec       q    Type
REMARK                         _______ _______ _______ _____ _____    ______ ____
ROOT
ATOM      1  C   LIG    1       24.457 -16.935   4.181  0.00  0.00    +0.006 A 
ATOM      2  C   LIG    1       23.197 -17.410   3.967  0.00  0.00    +0.028 A 
ATOM      3  C   LIG    1       22.806 -18.743   4.453  0.00  0.00    +0.154 A 
ATOM      4  C   LIG    1       21.611 -19.284   4.146  0.00  0.00    +0.108 C 
ATOM      5  C   LIG    1       20.634 -18.538   3.293  0.00  0.00    +0.210 C 
ATOM      6  C   LIG    1       20.990 -17.135   2.921  0.00  0.00    +0.066 C 
ATOM      7 BR   LIG    1       19.734 -16.116   1.983  0.00  0.00    -0.046 Br
ATOM      8  O   LIG    1       19.582 -19.047   2.914  0.00  0.00    -0.285 OA
ATOM      9 BR   LIG    1       21.091 -20.988   4.739  0.00  0.00    -0.043 Br
ATOM     10  O   LIG    1       23.682 -19.459   5.255  0.00  0.00    -0.452 OA
ATOM     11  C   LIG    1       24.978 -19.046   5.410  0.00  0.00    +0.154 A 
ATOM     12  C   LIG    1       25.856 -19.900   6.102  0.00  0.00    +0.103 A 
ATOM     13 BR   LIG    1       25.225 -21.556   6.802  0.00  0.00    -0.043 Br
ATOM     14  C   LIG    1       27.194 -19.537   6.266  0.00  0.00    +0.148 A 
ATOM     15  C   LIG    1       27.644 -18.323   5.747  0.00  0.00    +0.061 A 
ATOM     16 BR   LIG    1       29.456 -17.796   5.938  0.00  0.00    -0.046 Br
ATOM     17  C   LIG    1       26.765 -17.473   5.071  0.00  0.00    +0.031 A 
ATOM     18  C   LIG    1       22.187 -16.627   3.251  0.00  0.00    +0.031 C 
ATOM     19  C   LIG    1       25.417 -17.826   4.893  0.00  0.00    +0.028 A 
ENDROOT
BRANCH   1  21
ATOM     20  C   LIG    1       26.129 -15.375   3.064  0.00  0.00    +0.088 A 
ATOM     21  C   LIG    1       24.863 -15.582   3.666  0.00  0.00    +0.019 A 
ATOM     22  C   LIG    1       23.971 -14.489   3.778  0.00  0.00    +0.069 A 
ATOM     23 CL   LIG    1       22.412 -14.732   4.522  0.00  0.00    -0.081 Cl
ATOM     24  C   LIG    1       24.334 -13.217   3.298  0.00  0.00    +0.080 A 
ATOM     25 CL   LIG    1       23.227 -11.881   3.451  0.00  0.00    -0.081 Cl
ATOM     26  C   LIG    1       25.591 -13.027   2.697  0.00  0.00    +0.080 A 
ATOM     27 CL   LIG    1       26.046 -11.451   2.110  0.00  0.00    -0.081 Cl
ATOM     28  C   LIG    1       26.487 -14.107   2.575  0.00  0.00    +0.075 A 
ATOM     29 CL   LIG    1       28.034 -13.875   1.812  0.00  0.00    -0.081 Cl
BRANCH  20  31
ATOM     30  O   LIG    1       28.229 -16.461   3.206  0.00  0.00    -0.245 OA
ATOM     31  C   LIG    1       27.050 -16.528   2.915  0.00  0.00    +0.339 C 
BRANCH  31  32
ATOM     32  O   LIG    1       26.487 -17.602   2.329  0.00  0.00    -0.477 OA
ATOM     33  H   LIG    1       26.658 -18.474   2.734  0.00  0.00    +0.295 HD
ENDBRANCH  31  32
ENDBRANCH  20  31
ENDBRANCH   1  21
BRANCH  14  34
ATOM     34  O   LIG    1       28.051 -20.377   6.927  0.00  0.00    -0.504 OA
ATOM     35  H   LIG    1       28.850 -19.874   7.168  0.00  0.00    +0.292 HD
ENDBRANCH  14  34
TORSDOF 4
ENDMDL
