MODEL 1
REMARK VINA RESULT:       8.2      0.000      0.000
REMARK  Name = *****
REMARK                            x       y       z     vdW  Elec       q    Type
REMARK                         _______ _______ _______ _____ _____    ______ ____
ROOT
ATOM      1  C   LIG    1       23.435 -14.753   4.942  0.00  0.00    -0.030 A 
ATOM      2  C   LIG    1       22.341 -15.268   5.643  0.00  0.00    +0.006 A 
ATOM      3  C   LIG    1       21.963 -16.610   5.497  0.00  0.00    +0.009 A 
ATOM      4  C   LIG    1       22.648 -17.488   4.636  0.00  0.00    -0.017 A 
ATOM      5  C   LIG    1       23.706 -16.938   3.892  0.00  0.00    +0.009 A 
ATOM      6  C   LIG    1       24.123 -15.612   4.077  0.00  0.00    +0.006 A 
ENDROOT
BRANCH   4   7
ATOM      7  C   LIG    1       22.243 -18.918   4.517  0.00  0.00    -0.007 A 
ATOM      8  C   LIG    1       23.114 -20.034   4.668  0.00  0.00    +0.028 A 
ATOM      9  C   LIG    1       22.600 -21.340   4.479  0.00  0.00    +0.012 A 
ATOM     10  C   LIG    1       21.252 -21.568   4.206  0.00  0.00    +0.001 A 
ATOM     11  C   LIG    1       20.387 -20.492   4.096  0.00  0.00    +0.001 A 
ATOM     12  C   LIG    1       20.881 -19.193   4.232  0.00  0.00    +0.009 A 
BRANCH   8  13
ATOM     13  C   LIG    1       24.530 -19.950   5.050  0.00  0.00    +0.180 A 
ATOM     14  N   LIG    1       25.059 -20.324   6.257  0.00  0.00    -0.239 N 
ATOM     15  H   LIG    1       24.591 -20.665   7.086  0.00  0.00    +0.192 HD
ATOM     16  N   LIG    1       26.384 -20.130   6.275  0.00  0.00    -0.046 NA
ATOM     17  N   LIG    1       26.678 -19.677   5.067  0.00  0.00    -0.023 NA
ATOM     18  N   LIG    1       25.548 -19.573   4.293  0.00  0.00    -0.108 NA
ENDBRANCH   8  13
ENDBRANCH   4   7
BRANCH   1  19
ATOM     19  C   LIG    1       23.884 -13.314   5.115  0.00  0.00    +0.150 C 
BRANCH  19  24
ATOM     20  C   LIG    1       28.075 -15.919   5.596  0.00  0.00    +0.088 C 
ATOM     21  C   LIG    1       27.696 -14.784   4.700  0.00  0.00    +0.128 A 
ATOM     22  N   LIG    1       26.448 -14.307   4.807  0.00  0.00    -0.217 NA
ATOM     23  C   LIG    1       26.089 -13.314   3.977  0.00  0.00    +0.135 A 
ATOM     24  N   LIG    1       24.758 -12.828   4.047  0.00  0.00    -0.251 N 
ATOM     25  C   LIG    1       24.228 -11.964   3.096  0.00  0.00    +0.222 C 
ATOM     26  C   LIG    1       25.090 -11.722   1.872  0.00  0.00    +0.101 C 
ATOM     27  C   LIG    1       26.550 -11.581   2.242  0.00  0.00    +0.049 C 
ATOM     28  O   LIG    1       23.096 -11.508   3.149  0.00  0.00    -0.275 OA
ATOM     29  C   LIG    1       26.978 -12.747   3.073  0.00  0.00    +0.014 A 
ATOM     30  C   LIG    1       28.266 -13.263   3.075  0.00  0.00    +0.047 A 
ATOM     31  C   LIG    1       29.356 -12.694   2.216  0.00  0.00    +0.066 C 
ATOM     32  N   LIG    1       28.624 -14.296   3.865  0.00  0.00    -0.237 NA
ENDBRANCH  19  24
ENDBRANCH   1  19
TORSDOF 4
ENDMDL
