MODEL 1
REMARK VINA RESULT:      -8.3      0.000      0.000
REMARK  Name = *****
REMARK                            x       y       z     vdW  Elec       q    Type
REMARK                         _______ _______ _______ _____ _____    ______ ____
ROOT
ATOM      1  S   LIG    1       26.474 -21.408   7.918  0.00  0.00    +0.075 S 
ATOM      2  O   LIG    1       26.698 -20.343   8.876  0.00  0.00    -0.150 OA
ATOM      3  O   LIG    1       26.047 -22.729   8.320  0.00  0.00    -0.150 OA
ENDROOT
BRANCH   1   4
ATOM      4  C   LIG    1       25.303 -20.807   6.722  0.00  0.00    +0.109 A 
ATOM      5  C   LIG    1       25.748 -20.411   5.457  0.00  0.00    +0.030 A 
ATOM      6  C   LIG    1       24.825 -19.920   4.528  0.00  0.00    +0.024 A 
ATOM      7  C   LIG    1       23.459 -19.884   4.825  0.00  0.00    +0.025 A 
ATOM      8  C   LIG    1       23.037 -20.255   6.107  0.00  0.00    +0.024 A 
ATOM      9  C   LIG    1       23.948 -20.742   7.049  0.00  0.00    +0.030 A 
BRANCH   7  10
ATOM     10  N   LIG    1       22.565 -19.271   3.940  0.00  0.00    -0.358 N 
ATOM     11  H   LIG    1       22.091 -19.921   3.319  0.00  0.00    +0.142 HD
ATOM     12  H   LIG    1       21.915 -18.632   4.388  0.00  0.00    +0.142 HD
ENDBRANCH   7  10
ENDBRANCH   1   4
BRANCH   1  13
ATOM     13  N   LIG    1       27.858 -21.608   6.924  0.00  0.00    -0.183 N 
ATOM     14  H   LIG    1       28.023 -22.618   6.938  0.00  0.00    +0.177 HD
BRANCH  13  19
ATOM     15  C   LIG    1       31.623 -18.566   8.266  0.00  0.00    +0.069 C 
ATOM     16  C   LIG    1       30.650 -19.675   8.126  0.00  0.00    +0.085 A 
ATOM     17  C   LIG    1       29.615 -19.827   7.160  0.00  0.00    +0.035 A 
ATOM     18  C   LIG    1       29.316 -18.936   6.017  0.00  0.00    +0.051 C 
ATOM     19  C   LIG    1       28.990 -20.995   7.543  0.00  0.00    +0.240 A 
ATOM     20  O   LIG    1       29.662 -21.548   8.585  0.00  0.00    -0.338 OA
ATOM     21  N   LIG    1       30.693 -20.714   8.969  0.00  0.00    -0.081 NA
ENDBRANCH  13  19
ENDBRANCH   1  13
TORSDOF 4
ENDMDL
MODEL 2
REMARK VINA RESULT:      -7.8      2.714      3.197
REMARK  Name = *****
REMARK                            x       y       z     vdW  Elec       q    Type
REMARK                         _______ _______ _______ _____ _____    ______ ____
ROOT
ATOM      1  S   LIG    1       25.900 -21.359   7.591  0.00  0.00    +0.075 S 
ATOM      2  O   LIG    1       24.839 -20.411   7.313  0.00  0.00    -0.150 OA
ATOM      3  O   LIG    1       26.484 -21.499   8.906  0.00  0.00    -0.150 OA
ENDROOT
BRANCH   1   4
ATOM      4  C   LIG    1       25.323 -22.963   7.086  0.00  0.00    +0.109 A 
ATOM      5  C   LIG    1       26.244 -23.990   6.861  0.00  0.00    +0.030 A 
ATOM      6  C   LIG    1       25.786 -25.244   6.444  0.00  0.00    +0.024 A 
ATOM      7  C   LIG    1       24.417 -25.500   6.315  0.00  0.00    +0.025 A 
ATOM      8  C   LIG    1       23.513 -24.451   6.514  0.00  0.00    +0.024 A 
ATOM      9  C   LIG    1       23.957 -23.190   6.925  0.00  0.00    +0.030 A 
BRANCH   7  10
ATOM     10  N   LIG    1       23.979 -26.713   5.773  0.00  0.00    -0.358 N 
ATOM     11  H   LIG    1       24.697 -27.431   5.737  0.00  0.00    +0.142 HD
ATOM     12  H   LIG    1       23.116 -27.060   6.182  0.00  0.00    +0.142 HD
ENDBRANCH   7  10
ENDBRANCH   1   4
BRANCH   1  13
ATOM     13  N   LIG    1       27.195 -21.133   6.489  0.00  0.00    -0.183 N 
ATOM     14  H   LIG    1       27.343 -22.065   6.093  0.00  0.00    +0.177 HD
BRANCH  13  19
ATOM     15  C   LIG    1       31.385 -18.975   8.229  0.00  0.00    +0.069 C 
ATOM     16  C   LIG    1       30.228 -19.862   7.961  0.00  0.00    +0.085 A 
ATOM     17  C   LIG    1       29.242 -19.746   6.939  0.00  0.00    +0.035 A 
ATOM     18  C   LIG    1       29.188 -18.741   5.855  0.00  0.00    +0.051 C 
ATOM     19  C   LIG    1       28.385 -20.793   7.203  0.00  0.00    +0.240 A 
ATOM     20  O   LIG    1       28.876 -21.534   8.230  0.00  0.00    -0.338 OA
ATOM     21  N   LIG    1       30.022 -20.943   8.723  0.00  0.00    -0.081 NA
ENDBRANCH  13  19
ENDBRANCH   1  13
TORSDOF 4
ENDMDL
MODEL 3
REMARK VINA RESULT:      -7.7      1.303      1.521
REMARK  Name = *****
REMARK                            x       y       z     vdW  Elec       q    Type
REMARK                         _______ _______ _______ _____ _____    ______ ____
ROOT
ATOM      1  S   LIG    1       26.753 -21.331   7.715  0.00  0.00    +0.075 S 
ATOM      2  O   LIG    1       27.001 -20.270   8.671  0.00  0.00    -0.150 OA
ATOM      3  O   LIG    1       26.477 -22.689   8.125  0.00  0.00    -0.150 OA
ENDROOT
BRANCH   1   4
ATOM      4  C   LIG    1       25.413 -20.802   6.673  0.00  0.00    +0.109 A 
ATOM      5  C   LIG    1       25.674 -20.399   5.360  0.00  0.00    +0.030 A 
ATOM      6  C   LIG    1       24.619 -19.965   4.552  0.00  0.00    +0.024 A 
ATOM      7  C   LIG    1       23.301 -19.993   5.019  0.00  0.00    +0.025 A 
ATOM      8  C   LIG    1       23.063 -20.369   6.345  0.00  0.00    +0.024 A 
ATOM      9  C   LIG    1       24.108 -20.800   7.167  0.00  0.00    +0.030 A 
BRANCH   7  10
ATOM     10  N   LIG    1       22.273 -19.434   4.250  0.00  0.00    -0.358 N 
ATOM     11  H   LIG    1       21.439 -20.012   4.199  0.00  0.00    +0.142 HD
ATOM     12  H   LIG    1       22.054 -18.472   4.491  0.00  0.00    +0.142 HD
ENDBRANCH   7  10
ENDBRANCH   1   4
BRANCH   1  13
ATOM     13  N   LIG    1       28.028 -21.402   6.570  0.00  0.00    -0.183 N 
ATOM     14  H   LIG    1       28.508 -22.278   6.795  0.00  0.00    +0.177 HD
BRANCH  13  19
ATOM     15  C   LIG    1       31.824 -18.524   8.164  0.00  0.00    +0.069 C 
ATOM     16  C   LIG    1       30.608 -19.074   7.519  0.00  0.00    +0.085 A 
ATOM     17  C   LIG    1       30.011 -20.354   7.703  0.00  0.00    +0.035 A 
ATOM     18  C   LIG    1       30.433 -21.414   8.645  0.00  0.00    +0.051 C 
ATOM     19  C   LIG    1       28.957 -20.345   6.814  0.00  0.00    +0.240 A 
ATOM     20  O   LIG    1       28.869 -19.123   6.227  0.00  0.00    -0.338 OA
ATOM     21  N   LIG    1       29.915 -18.328   6.650  0.00  0.00    -0.081 NA
ENDBRANCH  13  19
ENDBRANCH   1  13
TORSDOF 4
ENDMDL
MODEL 4
REMARK VINA RESULT:      -7.7      3.076      4.735
REMARK  Name = *****
REMARK                            x       y       z     vdW  Elec       q    Type
REMARK                         _______ _______ _______ _____ _____    ______ ____
ROOT
ATOM      1  S   LIG    1       30.850 -19.566   8.192  0.00  0.00    +0.075 S 
ATOM      2  O   LIG    1       31.042 -20.370   9.383  0.00  0.00    -0.150 OA
ATOM      3  O   LIG    1       31.849 -19.478   7.151  0.00  0.00    -0.150 OA
ENDROOT
BRANCH   1   4
ATOM      4  C   LIG    1       29.331 -20.095   7.435  0.00  0.00    +0.109 A 
ATOM      5  C   LIG    1       28.619 -21.164   7.987  0.00  0.00    +0.030 A 
ATOM      6  C   LIG    1       27.435 -21.588   7.375  0.00  0.00    +0.024 A 
ATOM      7  C   LIG    1       26.922 -20.914   6.263  0.00  0.00    +0.025 A 
ATOM      8  C   LIG    1       27.664 -19.866   5.708  0.00  0.00    +0.024 A 
ATOM      9  C   LIG    1       28.853 -19.434   6.304  0.00  0.00    +0.030 A 
BRANCH   7  10
ATOM     10  N   LIG    1       25.810 -21.426   5.583  0.00  0.00    -0.358 N 
ATOM     11  H   LIG    1       24.945 -20.931   5.780  0.00  0.00    +0.142 HD
ATOM     12  H   LIG    1       25.958 -21.551   4.586  0.00  0.00    +0.142 HD
ENDBRANCH   7  10
ENDBRANCH   1   4
BRANCH   1  13
ATOM     13  N   LIG    1       30.437 -17.958   8.628  0.00  0.00    -0.183 N 
ATOM     14  H   LIG    1       30.969 -17.384   7.968  0.00  0.00    +0.177 HD
BRANCH  13  19
ATOM     15  C   LIG    1       32.838 -16.055  12.610  0.00  0.00    +0.069 C 
ATOM     16  C   LIG    1       32.000 -16.848  11.678  0.00  0.00    +0.085 A 
ATOM     17  C   LIG    1       31.908 -16.740  10.261  0.00  0.00    +0.035 A 
ATOM     18  C   LIG    1       32.691 -15.848   9.376  0.00  0.00    +0.051 C 
ATOM     19  C   LIG    1       30.942 -17.666   9.932  0.00  0.00    +0.240 A 
ATOM     20  O   LIG    1       30.566 -18.344  11.047  0.00  0.00    -0.338 OA
ATOM     21  N   LIG    1       31.212 -17.821  12.149  0.00  0.00    -0.081 NA
ENDBRANCH  13  19
ENDBRANCH   1  13
TORSDOF 4
ENDMDL
MODEL 5
REMARK VINA RESULT:      -7.7      2.955      7.062
REMARK  Name = *****
REMARK                            x       y       z     vdW  Elec       q    Type
REMARK                         _______ _______ _______ _____ _____    ______ ____
ROOT
ATOM      1  S   LIG    1       30.435 -18.901   7.345  0.00  0.00    +0.075 S 
ATOM      2  O   LIG    1       29.801 -17.954   6.449  0.00  0.00    -0.150 OA
ATOM      3  O   LIG    1       31.558 -19.715   6.938  0.00  0.00    -0.150 OA
ENDROOT
BRANCH   1   4
ATOM      4  C   LIG    1       30.920 -18.007   8.803  0.00  0.00    +0.109 A 
ATOM      5  C   LIG    1       30.040 -17.917   9.885  0.00  0.00    +0.030 A 
ATOM      6  C   LIG    1       30.420 -17.195  11.021  0.00  0.00    +0.024 A 
ATOM      7  C   LIG    1       31.691 -16.622  11.113  0.00  0.00    +0.025 A 
ATOM      8  C   LIG    1       32.547 -16.696  10.009  0.00  0.00    +0.024 A 
ATOM      9  C   LIG    1       32.179 -17.409   8.864  0.00  0.00    +0.030 A 
BRANCH   7  10
ATOM     10  N   LIG    1       32.011 -15.794  12.196  0.00  0.00    -0.358 N 
ATOM     11  H   LIG    1       32.923 -15.353  12.121  0.00  0.00    +0.142 HD
ATOM     12  H   LIG    1       31.284 -15.125  12.432  0.00  0.00    +0.142 HD
ENDBRANCH   7  10
ENDBRANCH   1   4
BRANCH   1  13
ATOM     13  N   LIG    1       29.260 -19.962   8.007  0.00  0.00    -0.183 N 
ATOM     14  H   LIG    1       29.744 -20.862   8.053  0.00  0.00    +0.177 HD
BRANCH  13  19
ATOM     15  C   LIG    1       24.788 -20.609   5.813  0.00  0.00    +0.069 C 
ATOM     16  C   LIG    1       26.225 -20.416   6.121  0.00  0.00    +0.085 A 
ATOM     17  C   LIG    1       26.862 -20.395   7.395  0.00  0.00    +0.035 A 
ATOM     18  C   LIG    1       26.237 -20.633   8.715  0.00  0.00    +0.051 C 
ATOM     19  C   LIG    1       28.177 -20.119   7.089  0.00  0.00    +0.240 A 
ATOM     20  O   LIG    1       28.332 -20.084   5.740  0.00  0.00    -0.338 OA
ATOM     21  N   LIG    1       27.106 -20.250   5.128  0.00  0.00    -0.081 NA
ENDBRANCH  13  19
ENDBRANCH   1  13
TORSDOF 4
ENDMDL
MODEL 6
REMARK VINA RESULT:      -7.6      1.785      6.195
REMARK  Name = *****
REMARK                            x       y       z     vdW  Elec       q    Type
REMARK                         _______ _______ _______ _____ _____    ______ ____
ROOT
ATOM      1  S   LIG    1       26.145 -21.669   7.006  0.00  0.00    +0.075 S 
ATOM      2  O   LIG    1       26.273 -23.066   7.372  0.00  0.00    -0.150 OA
ATOM      3  O   LIG    1       25.259 -20.766   7.705  0.00  0.00    -0.150 OA
ENDROOT
BRANCH   1   4
ATOM      4  C   LIG    1       27.775 -20.960   7.046  0.00  0.00    +0.109 A 
ATOM      5  C   LIG    1       28.723 -21.454   7.948  0.00  0.00    +0.030 A 
ATOM      6  C   LIG    1       29.997 -20.879   7.988  0.00  0.00    +0.024 A 
ATOM      7  C   LIG    1       30.354 -19.865   7.095  0.00  0.00    +0.025 A 
ATOM      8  C   LIG    1       29.383 -19.362   6.221  0.00  0.00    +0.024 A 
ATOM      9  C   LIG    1       28.103 -19.923   6.173  0.00  0.00    +0.030 A 
BRANCH   7  10
ATOM     10  N   LIG    1       31.583 -19.210   7.232  0.00  0.00    -0.358 N 
ATOM     11  H   LIG    1       32.350 -19.825   7.489  0.00  0.00    +0.142 HD
ATOM     12  H   LIG    1       31.823 -18.613   6.446  0.00  0.00    +0.142 HD
ENDBRANCH   7  10
ENDBRANCH   1   4
BRANCH   1  13
ATOM     13  N   LIG    1       25.787 -21.530   5.334  0.00  0.00    -0.183 N 
ATOM     14  H   LIG    1       26.482 -20.860   4.992  0.00  0.00    +0.177 HD
BRANCH  13  19
ATOM     15  C   LIG    1       21.917 -18.609   4.018  0.00  0.00    +0.069 C 
ATOM     16  C   LIG    1       22.809 -19.639   4.603  0.00  0.00    +0.085 A 
ATOM     17  C   LIG    1       24.223 -19.760   4.476  0.00  0.00    +0.035 A 
ATOM     18  C   LIG    1       25.144 -18.834   3.781  0.00  0.00    +0.051 C 
ATOM     19  C   LIG    1       24.506 -20.921   5.163  0.00  0.00    +0.240 A 
ATOM     20  O   LIG    1       23.371 -21.395   5.740  0.00  0.00    -0.338 OA
ATOM     21  N   LIG    1       22.300 -20.605   5.376  0.00  0.00    -0.081 NA
ENDBRANCH  13  19
ENDBRANCH   1  13
TORSDOF 4
ENDMDL
MODEL 7
REMARK VINA RESULT:      -7.4      4.561      6.715
REMARK  Name = *****
REMARK                            x       y       z     vdW  Elec       q    Type
REMARK                         _______ _______ _______ _____ _____    ______ ____
ROOT
ATOM      1  S   LIG    1       24.845 -23.028   6.330  0.00  0.00    +0.075 S 
ATOM      2  O   LIG    1       23.672 -22.710   7.120  0.00  0.00    -0.150 OA
ATOM      3  O   LIG    1       26.145 -22.469   6.621  0.00  0.00    -0.150 OA
ENDROOT
BRANCH   1   4
ATOM      4  C   LIG    1       25.012 -24.799   6.320  0.00  0.00    +0.109 A 
ATOM      5  C   LIG    1       26.100 -25.395   6.964  0.00  0.00    +0.030 A 
ATOM      6  C   LIG    1       26.236 -26.786   6.936  0.00  0.00    +0.024 A 
ATOM      7  C   LIG    1       25.265 -27.589   6.329  0.00  0.00    +0.025 A 
ATOM      8  C   LIG    1       24.200 -26.972   5.663  0.00  0.00    +0.024 A 
ATOM      9  C   LIG    1       24.053 -25.582   5.677  0.00  0.00    +0.030 A 
BRANCH   7  10
ATOM     10  N   LIG    1       25.478 -28.966   6.192  0.00  0.00    -0.358 N 
ATOM     11  H   LIG    1       26.301 -29.201   5.646  0.00  0.00    +0.142 HD
ATOM     12  H   LIG    1       25.446 -29.477   7.069  0.00  0.00    +0.142 HD
ENDBRANCH   7  10
ENDBRANCH   1   4
BRANCH   1  13
ATOM     13  N   LIG    1       24.533 -22.736   4.668  0.00  0.00    -0.183 N 
ATOM     14  H   LIG    1       25.432 -22.925   4.216  0.00  0.00    +0.177 HD
BRANCH  13  19
ATOM     15  C   LIG    1       22.411 -18.195   4.331  0.00  0.00    +0.069 C 
ATOM     16  C   LIG    1       23.325 -19.362   4.302  0.00  0.00    +0.085 A 
ATOM     17  C   LIG    1       23.027 -20.726   4.583  0.00  0.00    +0.035 A 
ATOM     18  C   LIG    1       21.705 -21.308   4.905  0.00  0.00    +0.051 C 
ATOM     19  C   LIG    1       24.250 -21.350   4.466  0.00  0.00    +0.240 A 
ATOM     20  O   LIG    1       25.179 -20.453   4.045  0.00  0.00    -0.338 OA
ATOM     21  N   LIG    1       24.608 -19.199   3.960  0.00  0.00    -0.081 NA
ENDBRANCH  13  19
ENDBRANCH   1  13
TORSDOF 4
ENDMDL
MODEL 8
REMARK VINA RESULT:      -7.4      1.854      6.208
REMARK  Name = *****
REMARK                            x       y       z     vdW  Elec       q    Type
REMARK                         _______ _______ _______ _____ _____    ______ ____
ROOT
ATOM      1  S   LIG    1       25.954 -21.481   7.059  0.00  0.00    +0.075 S 
ATOM      2  O   LIG    1       25.960 -22.771   7.722  0.00  0.00    -0.150 OA
ATOM      3  O   LIG    1       25.091 -20.401   7.479  0.00  0.00    -0.150 OA
ENDROOT
BRANCH   1   4
ATOM      4  C   LIG    1       27.625 -20.871   7.072  0.00  0.00    +0.109 A 
ATOM      5  C   LIG    1       28.556 -21.424   7.956  0.00  0.00    +0.030 A 
ATOM      6  C   LIG    1       29.863 -20.926   7.975  0.00  0.00    +0.024 A 
ATOM      7  C   LIG    1       30.264 -19.932   7.078  0.00  0.00    +0.025 A 
ATOM      8  C   LIG    1       29.310 -19.370   6.222  0.00  0.00    +0.024 A 
ATOM      9  C   LIG    1       27.998 -19.853   6.195  0.00  0.00    +0.030 A 
BRANCH   7  10
ATOM     10  N   LIG    1       31.532 -19.352   7.195  0.00  0.00    -0.358 N 
ATOM     11  H   LIG    1       32.207 -19.935   7.681  0.00  0.00    +0.142 HD
ATOM     12  H   LIG    1       31.903 -18.990   6.321  0.00  0.00    +0.142 HD
ENDBRANCH   7  10
ENDBRANCH   1   4
BRANCH   1  13
ATOM     13  N   LIG    1       25.713 -21.689   5.372  0.00  0.00    -0.183 N 
ATOM     14  H   LIG    1       26.647 -21.556   4.976  0.00  0.00    +0.177 HD
BRANCH  13  19
ATOM     15  C   LIG    1       21.938 -18.594   4.185  0.00  0.00    +0.069 C 
ATOM     16  C   LIG    1       23.244 -19.282   4.331  0.00  0.00    +0.085 A 
ATOM     17  C   LIG    1       23.525 -20.517   4.982  0.00  0.00    +0.035 A 
ATOM     18  C   LIG    1       22.555 -21.443   5.608  0.00  0.00    +0.051 C 
ATOM     19  C   LIG    1       24.893 -20.634   4.867  0.00  0.00    +0.240 A 
ATOM     20  O   LIG    1       25.375 -19.608   4.118  0.00  0.00    -0.338 OA
ATOM     21  N   LIG    1       24.347 -18.746   3.796  0.00  0.00    -0.081 NA
ENDBRANCH  13  19
ENDBRANCH   1  13
TORSDOF 4
ENDMDL
MODEL 9
REMARK VINA RESULT:      -7.2      2.645      6.603
REMARK  Name = *****
REMARK                            x       y       z     vdW  Elec       q    Type
REMARK                         _______ _______ _______ _____ _____    ______ ____
ROOT
ATOM      1  S   LIG    1       29.705 -19.982   7.915  0.00  0.00    +0.075 S 
ATOM      2  O   LIG    1       30.033 -19.843   6.509  0.00  0.00    -0.150 OA
ATOM      3  O   LIG    1       29.950 -21.204   8.646  0.00  0.00    -0.150 OA
ENDROOT
BRANCH   1   4
ATOM      4  C   LIG    1       30.525 -18.664   8.783  0.00  0.00    +0.109 A 
ATOM      5  C   LIG    1       31.809 -18.273   8.393  0.00  0.00    +0.030 A 
ATOM      6  C   LIG    1       32.456 -17.249   9.092  0.00  0.00    +0.024 A 
ATOM      7  C   LIG    1       31.809 -16.569  10.129  0.00  0.00    +0.025 A 
ATOM      8  C   LIG    1       30.536 -16.995  10.523  0.00  0.00    +0.024 A 
ATOM      9  C   LIG    1       29.879 -18.021   9.839  0.00  0.00    +0.030 A 
BRANCH   7  10
ATOM     10  N   LIG    1       32.512 -15.639  10.904  0.00  0.00    -0.358 N 
ATOM     11  H   LIG    1       32.107 -14.707  10.893  0.00  0.00    +0.142 HD
ATOM     12  H   LIG    1       32.711 -15.956  11.848  0.00  0.00    +0.142 HD
ENDBRANCH   7  10
ENDBRANCH   1   4
BRANCH   1  13
ATOM     13  N   LIG    1       28.064 -19.557   8.182  0.00  0.00    -0.183 N 
ATOM     14  H   LIG    1       28.012 -19.416   9.194  0.00  0.00    +0.177 HD
BRANCH  13  19
ATOM     15  C   LIG    1       25.140 -22.986   5.962  0.00  0.00    +0.069 C 
ATOM     16  C   LIG    1       25.927 -22.165   6.913  0.00  0.00    +0.085 A 
ATOM     17  C   LIG    1       26.619 -20.944   6.665  0.00  0.00    +0.035 A 
ATOM     18  C   LIG    1       26.650 -20.170   5.405  0.00  0.00    +0.051 C 
ATOM     19  C   LIG    1       27.221 -20.668   7.874  0.00  0.00    +0.240 A 
ATOM     20  O   LIG    1       26.834 -21.589   8.795  0.00  0.00    -0.338 OA
ATOM     21  N   LIG    1       26.038 -22.542   8.192  0.00  0.00    -0.081 NA
ENDBRANCH  13  19
ENDBRANCH   1  13
TORSDOF 4
ENDMDL
