MODEL 1
REMARK VINA RESULT:      22.4      0.000      0.000
REMARK  Name = *****
REMARK                            x       y       z     vdW  Elec       q    Type
REMARK                         _______ _______ _______ _____ _____    ______ ____
ROOT
ATOM      1  C   LIG    1       23.949 -18.096   3.766  0.00  0.00    +0.066 A 
ATOM      2  C   LIG    1       25.224 -18.725   3.746  0.00  0.00    +0.040 A 
ATOM      3  I   LIG    1       26.261 -19.676   1.814  0.00  0.00    -0.042 I 
ATOM      4  C   LIG    1       26.340 -18.007   4.184  0.00  0.00    +0.066 A 
ATOM      5  C   LIG    1       26.377 -16.677   3.788  0.00  0.00    +0.049 A 
ATOM      6  I   LIG    1       28.229 -15.886   3.223  0.00  0.00    -0.041 I 
ATOM      7  C   LIG    1       25.163 -15.993   3.672  0.00  0.00    +0.061 A 
ATOM      8  C   LIG    1       23.996 -16.712   3.999  0.00  0.00    +0.049 A 
ATOM      9  I   LIG    1       22.815 -15.893   5.843  0.00  0.00    -0.041 I 
ENDROOT
BRANCH   4  10
ATOM     10  C   LIG    1       26.835 -18.558   5.489  0.00  0.00    +0.248 C 
ATOM     11  N   LIG    1       26.443 -19.857   5.878  0.00  0.00    -0.298 N 
ATOM     12  C   LIG    1       25.519 -20.683   5.158  0.00  0.00    +0.132 C 
ATOM     13  O   LIG    1       27.634 -17.894   6.101  0.00  0.00    -0.270 OA
BRANCH  11  14
ATOM     14  C   LIG    1       27.046 -20.470   7.058  0.00  0.00    +0.141 C 
BRANCH  14  15
ATOM     15  C   LIG    1       28.593 -20.579   7.062  0.00  0.00    +0.157 C 
BRANCH  15  16
ATOM     16  O   LIG    1       29.091 -19.227   7.043  0.00  0.00    -0.388 OA
ATOM     17  H   LIG    1       30.063 -19.276   7.058  0.00  0.00    +0.210 HD
ENDBRANCH  15  16
BRANCH  15  18
ATOM     18  C   LIG    1       29.258 -21.298   5.869  0.00  0.00    +0.188 C 
BRANCH  18  19
ATOM     19  O   LIG    1       28.702 -21.019   4.596  0.00  0.00    -0.392 OA
ATOM     20  H   LIG    1       28.604 -21.874   4.138  0.00  0.00    +0.209 HD
ENDBRANCH  18  19
ENDBRANCH  15  18
ENDBRANCH  14  15
ENDBRANCH  11  14
ENDBRANCH   4  10
BRANCH   1  23
ATOM     21  C   LIG    1       21.945 -18.347   5.959  0.00  0.00    +0.132 C 
ATOM     22  N   LIG    1       21.645 -18.764   4.632  0.00  0.00    -0.298 N 
ATOM     23  C   LIG    1       22.505 -18.631   3.573  0.00  0.00    +0.248 C 
ATOM     24  O   LIG    1       22.175 -18.990   2.447  0.00  0.00    -0.270 OA
BRANCH  22  25
ATOM     25  C   LIG    1       20.374 -19.497   4.467  0.00  0.00    +0.141 C 
BRANCH  25  26
ATOM     26  C   LIG    1       20.589 -21.024   4.399  0.00  0.00    +0.157 C 
BRANCH  26  27
ATOM     27  O   LIG    1       20.703 -21.434   3.032  0.00  0.00    -0.388 OA
ATOM     28  H   LIG    1       21.447 -22.048   2.941  0.00  0.00    +0.210 HD
ENDBRANCH  26  27
BRANCH  26  29
ATOM     29  C   LIG    1       21.810 -21.501   5.209  0.00  0.00    +0.188 C 
BRANCH  29  30
ATOM     30  O   LIG    1       22.625 -20.411   5.621  0.00  0.00    -0.392 OA
ATOM     31  H   LIG    1       23.484 -20.771   5.904  0.00  0.00    +0.209 HD
ENDBRANCH  29  30
ENDBRANCH  26  29
ENDBRANCH  25  26
ENDBRANCH  22  25
ENDBRANCH   1  23
BRANCH   7  32
ATOM     32  N   LIG    1       25.090 -14.673   3.112  0.00  0.00    -0.283 N 
ATOM     33  H   LIG    1       24.824 -14.645   2.143  0.00  0.00    +0.155 HD
ATOM     34  C   LIG    1       25.101 -13.502   3.839  0.00  0.00    +0.225 C 
ATOM     35  O   LIG    1       25.122 -13.463   5.108  0.00  0.00    -0.275 OA
BRANCH  34  36
ATOM     36  C   LIG    1       25.010 -12.182   3.135  0.00  0.00    +0.126 C 
BRANCH  36  37
ATOM     37  C   LIG    1       23.560 -12.021   2.646  0.00  0.00    +0.170 C 
BRANCH  37  38
ATOM     38  O   LIG    1       22.698 -13.027   3.170  0.00  0.00    -0.394 OA
ATOM     39  H   LIG    1       23.162 -13.882   3.138  0.00  0.00    +0.209 HD
ENDBRANCH  37  38
ENDBRANCH  36  37
BRANCH  36  40
ATOM     40  C   LIG    1       25.964 -11.927   1.975  0.00  0.00    +0.170 C 
BRANCH  40  41
ATOM     41  O   LIG    1       27.320 -12.013   2.373  0.00  0.00    -0.394 OA
ATOM     42  H   LIG    1       27.827 -12.457   1.674  0.00  0.00    +0.209 HD
ENDBRANCH  40  41
ENDBRANCH  36  40
ENDBRANCH  34  36
ENDBRANCH   7  32
TORSDOF 18
ENDMDL
MODEL 2
REMARK VINA RESULT:      24.7      1.792      5.813
REMARK  Name = *****
REMARK                            x       y       z     vdW  Elec       q    Type
REMARK                         _______ _______ _______ _____ _____    ______ ____
ROOT
ATOM      1  C   LIG    1       24.545 -18.533   5.104  0.00  0.00    +0.066 A 
ATOM      2  C   LIG    1       23.288 -17.882   5.243  0.00  0.00    +0.040 A 
ATOM      3  I   LIG    1       22.667 -16.455   7.057  0.00  0.00    -0.042 I 
ATOM      4  C   LIG    1       22.848 -17.035   4.221  0.00  0.00    +0.066 A 
ATOM      5  C   LIG    1       23.828 -16.226   3.665  0.00  0.00    +0.049 A 
ATOM      6  I   LIG    1       23.301 -14.259   3.184  0.00  0.00    -0.041 I 
ATOM      7  C   LIG    1       25.129 -16.733   3.580  0.00  0.00    +0.061 A 
ATOM      8  C   LIG    1       25.327 -18.048   4.044  0.00  0.00    +0.049 A 
ATOM      9  I   LIG    1       25.992 -19.582   2.411  0.00  0.00    -0.041 I 
ENDROOT
BRANCH   4  10
ATOM     10  C   LIG    1       21.691 -17.655   3.494  0.00  0.00    +0.248 C 
ATOM     11  N   LIG    1       21.016 -18.747   4.080  0.00  0.00    -0.298 N 
ATOM     12  C   LIG    1       21.406 -19.388   5.302  0.00  0.00    +0.132 C 
ATOM     13  O   LIG    1       21.327 -17.118   2.477  0.00  0.00    -0.270 OA
BRANCH  11  14
ATOM     14  C   LIG    1       19.790 -19.251   3.469  0.00  0.00    +0.141 C 
BRANCH  14  15
ATOM     15  C   LIG    1       19.666 -20.791   3.345  0.00  0.00    +0.157 C 
BRANCH  15  16
ATOM     16  O   LIG    1       19.354 -21.278   4.665  0.00  0.00    -0.388 OA
ATOM     17  H   LIG    1       18.458 -20.968   4.884  0.00  0.00    +0.210 HD
ENDBRANCH  15  16
BRANCH  15  18
ATOM     18  C   LIG    1       20.917 -21.570   2.885  0.00  0.00    +0.188 C 
BRANCH  18  19
ATOM     19  O   LIG    1       22.161 -21.039   3.309  0.00  0.00    -0.392 OA
ATOM     20  H   LIG    1       22.678 -21.785   3.666  0.00  0.00    +0.209 HD
ENDBRANCH  18  19
ENDBRANCH  15  18
ENDBRANCH  14  15
ENDBRANCH  11  14
ENDBRANCH   4  10
BRANCH   1  23
ATOM     21  C   LIG    1       27.493 -18.768   5.478  0.00  0.00    +0.132 C 
ATOM     22  N   LIG    1       26.602 -19.749   5.996  0.00  0.00    -0.298 N 
ATOM     23  C   LIG    1       25.237 -19.673   5.899  0.00  0.00    +0.248 C 
ATOM     24  O   LIG    1       24.523 -20.543   6.388  0.00  0.00    -0.270 OA
BRANCH  22  25
ATOM     25  C   LIG    1       27.240 -20.964   6.541  0.00  0.00    +0.141 C 
BRANCH  25  26
ATOM     26  C   LIG    1       28.768 -20.806   6.678  0.00  0.00    +0.157 C 
BRANCH  26  27
ATOM     27  O   LIG    1       29.406 -21.213   5.463  0.00  0.00    -0.388 OA
ATOM     28  H   LIG    1       29.668 -20.429   4.958  0.00  0.00    +0.210 HD
ENDBRANCH  26  27
BRANCH  26  29
ATOM     29  C   LIG    1       29.198 -19.376   7.060  0.00  0.00    +0.188 C 
BRANCH  29  30
ATOM     30  O   LIG    1       29.192 -18.508   5.935  0.00  0.00    -0.392 OA
ATOM     31  H   LIG    1       29.174 -17.592   6.264  0.00  0.00    +0.209 HD
ENDBRANCH  29  30
ENDBRANCH  26  29
ENDBRANCH  25  26
ENDBRANCH  22  25
ENDBRANCH   1  23
BRANCH   7  32
ATOM     32  N   LIG    1       26.235 -15.911   3.175  0.00  0.00    -0.283 N 
ATOM     33  H   LIG    1       26.522 -16.041   2.221  0.00  0.00    +0.155 HD
ATOM     34  C   LIG    1       26.724 -14.836   3.884  0.00  0.00    +0.225 C 
ATOM     35  O   LIG    1       26.208 -14.412   4.964  0.00  0.00    -0.275 OA
BRANCH  34  36
ATOM     36  C   LIG    1       27.883 -14.050   3.348  0.00  0.00    +0.126 C 
BRANCH  36  37
ATOM     37  C   LIG    1       28.792 -13.701   4.539  0.00  0.00    +0.170 C 
BRANCH  37  38
ATOM     38  O   LIG    1       28.541 -12.394   5.046  0.00  0.00    -0.394 OA
ATOM     39  H   LIG    1       29.371 -11.886   5.022  0.00  0.00    +0.209 HD
ENDBRANCH  37  38
ENDBRANCH  36  37
BRANCH  36  40
ATOM     40  C   LIG    1       27.580 -12.783   2.558  0.00  0.00    +0.170 C 
BRANCH  40  41
ATOM     41  O   LIG    1       26.190 -12.599   2.363  0.00  0.00    -0.394 OA
ATOM     42  H   LIG    1       25.921 -11.763   2.778  0.00  0.00    +0.209 HD
ENDBRANCH  40  41
ENDBRANCH  36  40
ENDBRANCH  34  36
ENDBRANCH   7  32
TORSDOF 18
ENDMDL
