MODEL 1
REMARK VINA RESULT:      -8.3      0.000      0.000
REMARK  Name = *****
REMARK                            x       y       z     vdW  Elec       q    Type
REMARK                         _______ _______ _______ _____ _____    ______ ____
ROOT
ATOM      1  C   LIG    1       27.022 -26.500  12.365  0.00  0.00    +0.014 C 
ATOM      2  C   LIG    1       26.182 -27.355  13.354  0.00  0.00    -0.003 C 
ATOM      3  C   LIG    1       27.159 -28.100  14.302  0.00  0.00    +0.121 C 
ATOM      4  C   LIG    1       27.625 -29.294  13.482  0.00  0.00    +0.032 C 
ATOM      5  C   LIG    1       26.324 -29.786  12.857  0.00  0.00    +0.007 C 
ATOM      6  C   LIG    1       25.488 -28.516  12.545  0.00  0.00    +0.001 C 
ATOM      7  C   LIG    1       23.917 -28.623  12.562  0.00  0.00    +0.003 C 
ATOM      8  C   LIG    1       23.221 -27.383  13.161  0.00  0.00    +0.023 C 
ATOM      9  C   LIG    1       21.730 -27.546  13.364  0.00  0.00    -0.041 A 
ATOM     10  C   LIG    1       21.211 -28.768  13.797  0.00  0.00    -0.040 A 
ATOM     11  C   LIG    1       22.141 -29.919  14.016  0.00  0.00    +0.039 C 
ATOM     12  C   LIG    1       19.848 -28.886  14.095  0.00  0.00    +0.049 A 
ATOM     13  C   LIG    1       19.005 -27.793  13.928  0.00  0.00    +0.117 A 
ATOM     14  C   LIG    1       19.499 -26.581  13.465  0.00  0.00    +0.045 A 
ATOM     15  C   LIG    1       20.862 -26.456  13.189  0.00  0.00    +0.008 A 
ATOM     16  C   LIG    1       23.899 -26.953  14.458  0.00  0.00    +0.009 C 
ATOM     17  C   LIG    1       23.303 -29.987  13.007  0.00  0.00    -0.003 C 
ATOM     18  C   LIG    1       25.264 -26.385  14.119  0.00  0.00    +0.010 C 
ENDROOT
BRANCH   3  19
ATOM     19  O   LIG    1       26.496 -28.602  15.460  0.00  0.00    -0.391 OA
ATOM     20  H   LIG    1       27.165 -28.740  16.152  0.00  0.00    +0.210 HD
ENDBRANCH   3  19
BRANCH  13  21
ATOM     21  O   LIG    1       17.689 -27.951  14.246  0.00  0.00    -0.507 OA
ATOM     22  H   LIG    1       17.321 -28.654  13.687  0.00  0.00    +0.292 HD
ENDBRANCH  13  21
BRANCH  17  23
ATOM     23  C   LIG    1       22.955 -30.859  11.779  0.00  0.00    +0.004 C 
BRANCH  23  24
ATOM     24  C   LIG    1       22.722 -30.109  10.459  0.00  0.00    +0.000 C 
BRANCH  24  25
ATOM     25  C   LIG    1       23.514 -30.722   9.302  0.00  0.00    +0.000 C 
BRANCH  25  26
ATOM     26  C   LIG    1       25.002 -30.370   9.368  0.00  0.00    -0.000 C 
BRANCH  26  27
ATOM     27  C   LIG    1       25.521 -29.638   8.132  0.00  0.00    -0.000 C 
BRANCH  27  28
ATOM     28  C   LIG    1       24.395 -29.172   7.194  0.00  0.00    +0.000 C 
BRANCH  28  29
ATOM     29  C   LIG    1       24.823 -27.946   6.365  0.00  0.00    +0.001 C 
BRANCH  29  30
ATOM     30  C   LIG    1       25.963 -27.156   7.033  0.00  0.00    +0.013 C 
BRANCH  30  31
ATOM     31  C   LIG    1       25.956 -25.625   6.869  0.00  0.00    +0.104 C 
BRANCH  31  32
ATOM     32  S   LIG    1       24.484 -24.943   6.040  0.00  0.00    +0.022 S 
ATOM     33  O   LIG    1       24.803 -24.727   4.612  0.00  0.00    -0.257 OA
BRANCH  32  34
ATOM     34  C   LIG    1       24.445 -23.291   6.831  0.00  0.00    +0.104 C 
BRANCH  34  35
ATOM     35  C   LIG    1       23.102 -22.558   6.851  0.00  0.00    +0.019 C 
BRANCH  35  36
ATOM     36  C   LIG    1       23.212 -21.021   6.801  0.00  0.00    +0.086 C 
BRANCH  36  37
ATOM     37  C   LIG    1       22.833 -20.381   5.458  0.00  0.00    +0.342 C 
ATOM     38  F   LIG    1       22.361 -19.126   5.724  0.00  0.00    -0.196 F 
ATOM     39  F   LIG    1       21.755 -21.067   4.961  0.00  0.00    -0.196 F 
BRANCH  37  40
ATOM     40  C   LIG    1       23.936 -20.332   4.386  0.00  0.00    +0.454 C 
ATOM     41  F   LIG    1       25.163 -20.154   4.931  0.00  0.00    -0.165 F 
ATOM     42  F   LIG    1       23.737 -19.309   3.518  0.00  0.00    -0.165 F 
ATOM     43  F   LIG    1       24.004 -21.456   3.637  0.00  0.00    -0.165 F 
ENDBRANCH  37  40
ENDBRANCH  36  37
ENDBRANCH  35  36
ENDBRANCH  34  35
ENDBRANCH  32  34
ENDBRANCH  31  32
ENDBRANCH  30  31
ENDBRANCH  29  30
ENDBRANCH  28  29
ENDBRANCH  27  28
ENDBRANCH  26  27
ENDBRANCH  25  26
ENDBRANCH  24  25
ENDBRANCH  23  24
ENDBRANCH  17  23
TORSDOF 17
ENDMDL
MODEL 2
REMARK VINA RESULT:      -7.9      3.402      6.725
REMARK  Name = *****
REMARK                            x       y       z     vdW  Elec       q    Type
REMARK                         _______ _______ _______ _____ _____    ______ ____
ROOT
ATOM      1  C   LIG    1       27.799 -33.450   5.643  0.00  0.00    +0.014 C 
ATOM      2  C   LIG    1       26.403 -33.118   6.237  0.00  0.00    -0.003 C 
ATOM      3  C   LIG    1       25.322 -33.749   5.320  0.00  0.00    +0.121 C 
ATOM      4  C   LIG    1       25.197 -32.761   4.170  0.00  0.00    +0.032 C 
ATOM      5  C   LIG    1       25.183 -31.419   4.894  0.00  0.00    +0.007 C 
ATOM      6  C   LIG    1       26.155 -31.568   6.096  0.00  0.00    +0.001 C 
ATOM      7  C   LIG    1       25.887 -30.717   7.394  0.00  0.00    +0.003 C 
ATOM      8  C   LIG    1       26.179 -31.482   8.702  0.00  0.00    +0.023 C 
ATOM      9  C   LIG    1       25.746 -30.752   9.956  0.00  0.00    -0.041 A 
ATOM     10  C   LIG    1       24.557 -30.020   9.965  0.00  0.00    -0.040 A 
ATOM     11  C   LIG    1       23.744 -29.932   8.713  0.00  0.00    +0.039 C 
ATOM     12  C   LIG    1       24.098 -29.441  11.155  0.00  0.00    +0.049 A 
ATOM     13  C   LIG    1       24.845 -29.569  12.321  0.00  0.00    +0.117 A 
ATOM     14  C   LIG    1       26.046 -30.265  12.320  0.00  0.00    +0.045 A 
ATOM     15  C   LIG    1       26.493 -30.861  11.140  0.00  0.00    +0.008 A 
ATOM     16  C   LIG    1       25.580 -32.883   8.659  0.00  0.00    +0.009 C 
ATOM     17  C   LIG    1       24.584 -29.859   7.423  0.00  0.00    -0.003 C 
ATOM     18  C   LIG    1       26.368 -33.709   7.659  0.00  0.00    +0.010 C 
ENDROOT
BRANCH   3  19
ATOM     19  O   LIG    1       24.054 -33.825   5.966  0.00  0.00    -0.391 OA
ATOM     20  H   LIG    1       23.543 -34.534   5.542  0.00  0.00    +0.210 HD
ENDBRANCH   3  19
BRANCH  13  21
ATOM     21  O   LIG    1       24.349 -29.002  13.457  0.00  0.00    -0.507 OA
ATOM     22  H   LIG    1       24.565 -29.580  14.207  0.00  0.00    +0.292 HD
ENDBRANCH  13  21
BRANCH  17  23
ATOM     23  C   LIG    1       24.879 -28.400   7.006  0.00  0.00    +0.004 C 
BRANCH  23  24
ATOM     24  C   LIG    1       24.939 -28.126   5.495  0.00  0.00    +0.000 C 
BRANCH  24  25
ATOM     25  C   LIG    1       25.623 -26.793   5.180  0.00  0.00    +0.000 C 
BRANCH  25  26
ATOM     26  C   LIG    1       25.914 -25.979   6.443  0.00  0.00    -0.000 C 
BRANCH  26  27
ATOM     27  C   LIG    1       25.926 -24.468   6.218  0.00  0.00    -0.000 C 
BRANCH  27  28
ATOM     28  C   LIG    1       25.049 -23.705   7.225  0.00  0.00    +0.000 C 
BRANCH  28  29
ATOM     29  C   LIG    1       23.610 -23.532   6.702  0.00  0.00    +0.001 C 
BRANCH  29  30
ATOM     30  C   LIG    1       22.905 -22.311   7.320  0.00  0.00    +0.013 C 
BRANCH  30  31
ATOM     31  C   LIG    1       23.524 -20.926   7.057  0.00  0.00    +0.104 C 
BRANCH  31  32
ATOM     32  S   LIG    1       22.841 -20.033   5.625  0.00  0.00    +0.022 S 
ATOM     33  O   LIG    1       21.897 -20.924   4.918  0.00  0.00    -0.257 OA
BRANCH  32  34
ATOM     34  C   LIG    1       24.353 -19.936   4.594  0.00  0.00    +0.104 C 
BRANCH  34  35
ATOM     35  C   LIG    1       25.544 -20.795   5.021  0.00  0.00    +0.019 C 
BRANCH  35  36
ATOM     36  C   LIG    1       26.813 -19.995   5.377  0.00  0.00    +0.086 C 
BRANCH  36  37
ATOM     37  C   LIG    1       27.454 -20.352   6.726  0.00  0.00    +0.342 C 
ATOM     38  F   LIG    1       27.526 -21.715   6.795  0.00  0.00    -0.196 F 
ATOM     39  F   LIG    1       26.572 -19.993   7.713  0.00  0.00    -0.196 F 
BRANCH  37  40
ATOM     40  C   LIG    1       28.825 -19.719   7.022  0.00  0.00    +0.454 C 
ATOM     41  F   LIG    1       29.105 -18.700   6.175  0.00  0.00    -0.165 F 
ATOM     42  F   LIG    1       29.826 -20.625   6.895  0.00  0.00    -0.165 F 
ATOM     43  F   LIG    1       28.924 -19.219   8.275  0.00  0.00    -0.165 F 
ENDBRANCH  37  40
ENDBRANCH  36  37
ENDBRANCH  35  36
ENDBRANCH  34  35
ENDBRANCH  32  34
ENDBRANCH  31  32
ENDBRANCH  30  31
ENDBRANCH  29  30
ENDBRANCH  28  29
ENDBRANCH  27  28
ENDBRANCH  26  27
ENDBRANCH  25  26
ENDBRANCH  24  25
ENDBRANCH  23  24
ENDBRANCH  17  23
TORSDOF 17
ENDMDL
MODEL 3
REMARK VINA RESULT:      -7.8      4.165      7.132
REMARK  Name = *****
REMARK                            x       y       z     vdW  Elec       q    Type
REMARK                         _______ _______ _______ _____ _____    ______ ____
ROOT
ATOM      1  C   LIG    1       28.271 -33.348   6.135  0.00  0.00    +0.014 C 
ATOM      2  C   LIG    1       26.783 -33.093   6.505  0.00  0.00    -0.003 C 
ATOM      3  C   LIG    1       25.896 -33.640   5.355  0.00  0.00    +0.121 C 
ATOM      4  C   LIG    1       25.944 -32.543   4.303  0.00  0.00    +0.032 C 
ATOM      5  C   LIG    1       25.767 -31.281   5.141  0.00  0.00    +0.007 C 
ATOM      6  C   LIG    1       26.520 -31.540   6.474  0.00  0.00    +0.001 C 
ATOM      7  C   LIG    1       26.007 -30.827   7.781  0.00  0.00    +0.003 C 
ATOM      8  C   LIG    1       26.090 -31.716   9.040  0.00  0.00    +0.023 C 
ATOM      9  C   LIG    1       25.426 -31.120  10.264  0.00  0.00    -0.041 A 
ATOM     10  C   LIG    1       24.232 -30.406  10.135  0.00  0.00    -0.040 A 
ATOM     11  C   LIG    1       23.647 -30.202   8.774  0.00  0.00    +0.039 C 
ATOM     12  C   LIG    1       23.558 -29.955  11.277  0.00  0.00    +0.049 A 
ATOM     13  C   LIG    1       24.095 -30.192  12.537  0.00  0.00    +0.117 A 
ATOM     14  C   LIG    1       25.297 -30.870  12.679  0.00  0.00    +0.045 A 
ATOM     15  C   LIG    1       25.959 -31.340  11.543  0.00  0.00    +0.008 A 
ATOM     16  C   LIG    1       25.548 -33.112   8.756  0.00  0.00    +0.009 C 
ATOM     17  C   LIG    1       24.695 -29.990   7.665  0.00  0.00    -0.003 C 
ATOM     18  C   LIG    1       26.520 -33.824   7.834  0.00  0.00    +0.010 C 
ENDROOT
BRANCH   3  19
ATOM     19  O   LIG    1       24.538 -33.795   5.759  0.00  0.00    -0.391 OA
ATOM     20  H   LIG    1       24.171 -34.563   5.290  0.00  0.00    +0.210 HD
ENDBRANCH   3  19
BRANCH  13  21
ATOM     21  O   LIG    1       23.394 -29.748  13.619  0.00  0.00    -0.507 OA
ATOM     22  H   LIG    1       22.470 -30.027  13.521  0.00  0.00    +0.292 HD
ENDBRANCH  13  21
BRANCH  17  23
ATOM     23  C   LIG    1       25.016 -28.494   7.449  0.00  0.00    +0.004 C 
BRANCH  23  24
ATOM     24  C   LIG    1       24.886 -27.973   6.010  0.00  0.00    +0.000 C 
BRANCH  24  25
ATOM     25  C   LIG    1       24.237 -26.587   5.956  0.00  0.00    +0.000 C 
BRANCH  25  26
ATOM     26  C   LIG    1       25.070 -25.588   5.150  0.00  0.00    -0.000 C 
BRANCH  26  27
ATOM     27  C   LIG    1       25.442 -24.325   5.924  0.00  0.00    -0.000 C 
BRANCH  27  28
ATOM     28  C   LIG    1       24.668 -23.083   5.453  0.00  0.00    +0.000 C 
BRANCH  28  29
ATOM     29  C   LIG    1       23.413 -22.840   6.314  0.00  0.00    +0.001 C 
BRANCH  29  30
ATOM     30  C   LIG    1       23.448 -21.477   7.028  0.00  0.00    +0.013 C 
BRANCH  30  31
ATOM     31  C   LIG    1       24.824 -20.818   7.231  0.00  0.00    +0.104 C 
BRANCH  31  32
ATOM     32  S   LIG    1       25.789 -21.460   8.637  0.00  0.00    +0.022 S 
ATOM     33  O   LIG    1       26.029 -20.355   9.590  0.00  0.00    -0.257 OA
BRANCH  32  34
ATOM     34  C   LIG    1       27.377 -21.776   7.780  0.00  0.00    +0.104 C 
BRANCH  34  35
ATOM     35  C   LIG    1       27.952 -20.639   6.934  0.00  0.00    +0.019 C 
BRANCH  35  36
ATOM     36  C   LIG    1       29.492 -20.613   6.861  0.00  0.00    +0.086 C 
BRANCH  36  37
ATOM     37  C   LIG    1       30.127 -19.216   6.923  0.00  0.00    +0.342 C 
ATOM     38  F   LIG    1       29.199 -18.326   6.461  0.00  0.00    -0.196 F 
ATOM     39  F   LIG    1       31.141 -19.180   6.002  0.00  0.00    -0.196 F 
BRANCH  37  40
ATOM     40  C   LIG    1       30.674 -18.772   8.291  0.00  0.00    +0.454 C 
ATOM     41  F   LIG    1       29.824 -17.931   8.927  0.00  0.00    -0.165 F 
ATOM     42  F   LIG    1       31.855 -18.115   8.162  0.00  0.00    -0.165 F 
ATOM     43  F   LIG    1       30.905 -19.802   9.136  0.00  0.00    -0.165 F 
ENDBRANCH  37  40
ENDBRANCH  36  37
ENDBRANCH  35  36
ENDBRANCH  34  35
ENDBRANCH  32  34
ENDBRANCH  31  32
ENDBRANCH  30  31
ENDBRANCH  29  30
ENDBRANCH  28  29
ENDBRANCH  27  28
ENDBRANCH  26  27
ENDBRANCH  25  26
ENDBRANCH  24  25
ENDBRANCH  23  24
ENDBRANCH  17  23
TORSDOF 17
ENDMDL
MODEL 4
REMARK VINA RESULT:      -7.7      3.016      5.120
REMARK  Name = *****
REMARK                            x       y       z     vdW  Elec       q    Type
REMARK                         _______ _______ _______ _____ _____    ______ ____
ROOT
ATOM      1  C   LIG    1       23.200 -33.227  14.203  0.00  0.00    +0.014 C 
ATOM      2  C   LIG    1       22.831 -32.073  13.229  0.00  0.00    -0.003 C 
ATOM      3  C   LIG    1       23.579 -32.309  11.891  0.00  0.00    +0.121 C 
ATOM      4  C   LIG    1       24.983 -31.788  12.161  0.00  0.00    +0.032 C 
ATOM      5  C   LIG    1       24.709 -30.480  12.895  0.00  0.00    +0.007 C 
ATOM      6  C   LIG    1       23.458 -30.736  13.779  0.00  0.00    +0.001 C 
ATOM      7  C   LIG    1       22.505 -29.526  14.107  0.00  0.00    +0.003 C 
ATOM      8  C   LIG    1       21.009 -29.903  14.110  0.00  0.00    +0.023 C 
ATOM      9  C   LIG    1       20.072 -28.720  14.231  0.00  0.00    -0.041 A 
ATOM     10  C   LIG    1       20.367 -27.522  13.577  0.00  0.00    -0.040 A 
ATOM     11  C   LIG    1       21.637 -27.412  12.794  0.00  0.00    +0.039 C 
ATOM     12  C   LIG    1       19.446 -26.467  13.594  0.00  0.00    +0.049 A 
ATOM     13  C   LIG    1       18.251 -26.603  14.291  0.00  0.00    +0.117 A 
ATOM     14  C   LIG    1       17.958 -27.775  14.975  0.00  0.00    +0.045 A 
ATOM     15  C   LIG    1       18.865 -28.835  14.940  0.00  0.00    +0.008 A 
ATOM     16  C   LIG    1       20.659 -30.746  12.888  0.00  0.00    +0.009 C 
ATOM     17  C   LIG    1       22.828 -28.162  13.420  0.00  0.00    -0.003 C 
ATOM     18  C   LIG    1       21.302 -32.111  13.049  0.00  0.00    +0.010 C 
ENDROOT
BRANCH   3  19
ATOM     19  O   LIG    1       23.027 -31.535  10.829  0.00  0.00    -0.391 OA
ATOM     20  H   LIG    1       22.892 -32.123  10.068  0.00  0.00    +0.210 HD
ENDBRANCH   3  19
BRANCH  13  21
ATOM     21  O   LIG    1       17.379 -25.555  14.265  0.00  0.00    -0.507 OA
ATOM     22  H   LIG    1       17.296 -25.248  13.348  0.00  0.00    +0.292 HD
ENDBRANCH  13  21
BRANCH  17  23
ATOM     23  C   LIG    1       23.653 -27.256  14.362  0.00  0.00    +0.004 C 
BRANCH  23  24
ATOM     24  C   LIG    1       24.092 -25.900  13.786  0.00  0.00    +0.000 C 
BRANCH  24  25
ATOM     25  C   LIG    1       25.615 -25.779  13.699  0.00  0.00    +0.000 C 
BRANCH  25  26
ATOM     26  C   LIG    1       26.278 -27.098  13.292  0.00  0.00    -0.000 C 
BRANCH  26  27
ATOM     27  C   LIG    1       26.866 -27.086  11.882  0.00  0.00    -0.000 C 
BRANCH  27  28
ATOM     28  C   LIG    1       27.270 -28.486  11.390  0.00  0.00    +0.000 C 
BRANCH  28  29
ATOM     29  C   LIG    1       26.703 -28.776   9.987  0.00  0.00    +0.001 C 
BRANCH  29  30
ATOM     30  C   LIG    1       26.993 -30.216   9.524  0.00  0.00    +0.013 C 
BRANCH  30  31
ATOM     31  C   LIG    1       25.977 -30.873   8.573  0.00  0.00    +0.104 C 
BRANCH  31  32
ATOM     32  S   LIG    1       24.682 -29.760   7.936  0.00  0.00    +0.022 S 
ATOM     33  O   LIG    1       23.364 -30.389   8.164  0.00  0.00    -0.257 OA
BRANCH  32  34
ATOM     34  C   LIG    1       25.035 -29.901   6.143  0.00  0.00    +0.104 C 
BRANCH  34  35
ATOM     35  C   LIG    1       24.874 -28.636   5.299  0.00  0.00    +0.019 C 
BRANCH  35  36
ATOM     36  C   LIG    1       24.452 -27.386   6.095  0.00  0.00    +0.086 C 
BRANCH  36  37
ATOM     37  C   LIG    1       25.572 -26.369   6.361  0.00  0.00    +0.342 C 
ATOM     38  F   LIG    1       26.544 -26.580   5.422  0.00  0.00    -0.196 F 
ATOM     39  F   LIG    1       26.158 -26.700   7.556  0.00  0.00    -0.196 F 
BRANCH  37  40
ATOM     40  C   LIG    1       25.160 -24.888   6.395  0.00  0.00    +0.454 C 
ATOM     41  F   LIG    1       25.198 -24.323   5.164  0.00  0.00    -0.165 F 
ATOM     42  F   LIG    1       25.988 -24.162   7.187  0.00  0.00    -0.165 F 
ATOM     43  F   LIG    1       23.910 -24.691   6.873  0.00  0.00    -0.165 F 
ENDBRANCH  37  40
ENDBRANCH  36  37
ENDBRANCH  35  36
ENDBRANCH  34  35
ENDBRANCH  32  34
ENDBRANCH  31  32
ENDBRANCH  30  31
ENDBRANCH  29  30
ENDBRANCH  28  29
ENDBRANCH  27  28
ENDBRANCH  26  27
ENDBRANCH  25  26
ENDBRANCH  24  25
ENDBRANCH  23  24
ENDBRANCH  17  23
TORSDOF 17
ENDMDL
MODEL 5
REMARK VINA RESULT:      -7.6      2.138      4.049
REMARK  Name = *****
REMARK                            x       y       z     vdW  Elec       q    Type
REMARK                         _______ _______ _______ _____ _____    ______ ____
ROOT
ATOM      1  C   LIG    1       22.311 -33.726  11.796  0.00  0.00    +0.014 C 
ATOM      2  C   LIG    1       22.199 -32.238  11.364  0.00  0.00    -0.003 C 
ATOM      3  C   LIG    1       23.022 -32.047  10.063  0.00  0.00    +0.121 C 
ATOM      4  C   LIG    1       24.456 -31.918  10.553  0.00  0.00    +0.032 C 
ATOM      5  C   LIG    1       24.308 -30.981  11.747  0.00  0.00    +0.007 C 
ATOM      6  C   LIG    1       22.960 -31.352  12.422  0.00  0.00    +0.001 C 
ATOM      7  C   LIG    1       22.166 -30.229  13.189  0.00  0.00    +0.003 C 
ATOM      8  C   LIG    1       20.636 -30.320  13.003  0.00  0.00    +0.023 C 
ATOM      9  C   LIG    1       19.872 -29.143  13.571  0.00  0.00    -0.041 A 
ATOM     10  C   LIG    1       20.394 -27.852  13.464  0.00  0.00    -0.040 A 
ATOM     11  C   LIG    1       21.731 -27.656  12.823  0.00  0.00    +0.039 C 
ATOM     12  C   LIG    1       19.636 -26.752  13.885  0.00  0.00    +0.049 A 
ATOM     13  C   LIG    1       18.376 -26.950  14.438  0.00  0.00    +0.117 A 
ATOM     14  C   LIG    1       17.858 -28.229  14.583  0.00  0.00    +0.045 A 
ATOM     15  C   LIG    1       18.603 -29.325  14.144  0.00  0.00    +0.008 A 
ATOM     16  C   LIG    1       20.279 -30.540  11.537  0.00  0.00    +0.009 C 
ATOM     17  C   LIG    1       22.741 -28.780  13.121  0.00  0.00    -0.003 C 
ATOM     18  C   LIG    1       20.703 -31.944  11.147  0.00  0.00    +0.010 C 
ENDROOT
BRANCH   3  19
ATOM     19  O   LIG    1       22.683 -30.835   9.392  0.00  0.00    -0.391 OA
ATOM     20  H   LIG    1       22.006 -30.380   9.919  0.00  0.00    +0.210 HD
ENDBRANCH   3  19
BRANCH  13  21
ATOM     21  O   LIG    1       17.670 -25.847  14.818  0.00  0.00    -0.507 OA
ATOM     22  H   LIG    1       18.129 -25.059  14.485  0.00  0.00    +0.292 HD
ENDBRANCH  13  21
BRANCH  17  23
ATOM     23  C   LIG    1       23.601 -28.472  14.368  0.00  0.00    +0.004 C 
BRANCH  23  24
ATOM     24  C   LIG    1       25.122 -28.441  14.153  0.00  0.00    +0.000 C 
BRANCH  24  25
ATOM     25  C   LIG    1       25.510 -27.638  12.908  0.00  0.00    +0.000 C 
BRANCH  25  26
ATOM     26  C   LIG    1       26.696 -28.258  12.167  0.00  0.00    -0.000 C 
BRANCH  26  27
ATOM     27  C   LIG    1       26.756 -27.899  10.683  0.00  0.00    -0.000 C 
BRANCH  27  28
ATOM     28  C   LIG    1       26.839 -29.134   9.770  0.00  0.00    +0.000 C 
BRANCH  28  29
ATOM     29  C   LIG    1       25.757 -29.099   8.674  0.00  0.00    +0.001 C 
BRANCH  29  30
ATOM     30  C   LIG    1       25.926 -27.901   7.722  0.00  0.00    +0.013 C 
BRANCH  30  31
ATOM     31  C   LIG    1       25.091 -27.899   6.429  0.00  0.00    +0.104 C 
BRANCH  31  32
ATOM     32  S   LIG    1       25.867 -27.065   5.008  0.00  0.00    +0.022 S 
ATOM     33  O   LIG    1       27.262 -26.727   5.362  0.00  0.00    -0.257 OA
BRANCH  32  34
ATOM     34  C   LIG    1       24.917 -25.498   5.036  0.00  0.00    +0.104 C 
BRANCH  34  35
ATOM     35  C   LIG    1       25.255 -24.497   6.141  0.00  0.00    +0.019 C 
BRANCH  35  36
ATOM     36  C   LIG    1       24.870 -23.039   5.822  0.00  0.00    +0.086 C 
BRANCH  36  37
ATOM     37  C   LIG    1       23.995 -22.347   6.877  0.00  0.00    +0.342 C 
ATOM     38  F   LIG    1       24.702 -22.330   8.046  0.00  0.00    -0.196 F 
ATOM     39  F   LIG    1       22.921 -23.163   7.125  0.00  0.00    -0.196 F 
BRANCH  37  40
ATOM     40  C   LIG    1       23.485 -20.938   6.528  0.00  0.00    +0.454 C 
ATOM     41  F   LIG    1       22.390 -20.979   5.733  0.00  0.00    -0.165 F 
ATOM     42  F   LIG    1       24.428 -20.221   5.865  0.00  0.00    -0.165 F 
ATOM     43  F   LIG    1       23.149 -20.206   7.614  0.00  0.00    -0.165 F 
ENDBRANCH  37  40
ENDBRANCH  36  37
ENDBRANCH  35  36
ENDBRANCH  34  35
ENDBRANCH  32  34
ENDBRANCH  31  32
ENDBRANCH  30  31
ENDBRANCH  29  30
ENDBRANCH  28  29
ENDBRANCH  27  28
ENDBRANCH  26  27
ENDBRANCH  25  26
ENDBRANCH  24  25
ENDBRANCH  23  24
ENDBRANCH  17  23
TORSDOF 17
ENDMDL
MODEL 6
REMARK VINA RESULT:      -7.5      3.377      4.600
REMARK  Name = *****
REMARK                            x       y       z     vdW  Elec       q    Type
REMARK                         _______ _______ _______ _____ _____    ______ ____
ROOT
ATOM      1  C   LIG    1       26.369 -27.106  12.346  0.00  0.00    +0.014 C 
ATOM      2  C   LIG    1       26.114 -28.639  12.360  0.00  0.00    -0.003 C 
ATOM      3  C   LIG    1       27.357 -29.332  12.978  0.00  0.00    +0.121 C 
ATOM      4  C   LIG    1       28.352 -29.390  11.829  0.00  0.00    +0.032 C 
ATOM      5  C   LIG    1       27.478 -29.839  10.664  0.00  0.00    +0.007 C 
ATOM      6  C   LIG    1       26.099 -29.156  10.871  0.00  0.00    +0.001 C 
ATOM      7  C   LIG    1       24.809 -29.878  10.328  0.00  0.00    +0.003 C 
ATOM      8  C   LIG    1       23.588 -29.742  11.262  0.00  0.00    +0.023 C 
ATOM      9  C   LIG    1       22.399 -30.587  10.854  0.00  0.00    -0.041 A 
ATOM     10  C   LIG    1       22.596 -31.870  10.339  0.00  0.00    -0.040 A 
ATOM     11  C   LIG    1       23.991 -32.377  10.156  0.00  0.00    +0.039 C 
ATOM     12  C   LIG    1       21.496 -32.694  10.070  0.00  0.00    +0.049 A 
ATOM     13  C   LIG    1       20.207 -32.222  10.287  0.00  0.00    +0.117 A 
ATOM     14  C   LIG    1       19.994 -30.937  10.767  0.00  0.00    +0.045 A 
ATOM     15  C   LIG    1       21.090 -30.122  11.056  0.00  0.00    +0.008 A 
ATOM     16  C   LIG    1       23.977 -30.019  12.709  0.00  0.00    +0.009 C 
ATOM     17  C   LIG    1       24.998 -31.299   9.712  0.00  0.00    -0.003 C 
ATOM     18  C   LIG    1       24.845 -28.875  13.199  0.00  0.00    +0.010 C 
ENDROOT
BRANCH   3  19
ATOM     19  O   LIG    1       27.075 -30.672  13.376  0.00  0.00    -0.391 OA
ATOM     20  H   LIG    1       27.666 -31.262  12.878  0.00  0.00    +0.210 HD
ENDBRANCH   3  19
BRANCH  13  21
ATOM     21  O   LIG    1       19.169 -33.067  10.026  0.00  0.00    -0.507 OA
ATOM     22  H   LIG    1       18.339 -32.577  10.142  0.00  0.00    +0.292 HD
ENDBRANCH  13  21
BRANCH  17  23
ATOM     23  C   LIG    1       25.120 -31.219   8.173  0.00  0.00    +0.004 C 
BRANCH  23  24
ATOM     24  C   LIG    1       25.388 -29.824   7.586  0.00  0.00    +0.000 C 
BRANCH  24  25
ATOM     25  C   LIG    1       24.681 -29.621   6.243  0.00  0.00    +0.000 C 
BRANCH  25  26
ATOM     26  C   LIG    1       24.182 -28.185   6.064  0.00  0.00    -0.000 C 
BRANCH  26  27
ATOM     27  C   LIG    1       25.286 -27.132   6.136  0.00  0.00    -0.000 C 
BRANCH  27  28
ATOM     28  C   LIG    1       25.477 -26.371   4.813  0.00  0.00    +0.000 C 
BRANCH  28  29
ATOM     29  C   LIG    1       25.140 -24.876   4.969  0.00  0.00    +0.001 C 
BRANCH  29  30
ATOM     30  C   LIG    1       24.622 -24.536   6.378  0.00  0.00    +0.013 C 
BRANCH  30  31
ATOM     31  C   LIG    1       25.408 -23.489   7.188  0.00  0.00    +0.104 C 
BRANCH  31  32
ATOM     32  S   LIG    1       24.524 -21.926   7.496  0.00  0.00    +0.022 S 
ATOM     33  O   LIG    1       23.951 -21.448   6.220  0.00  0.00    -0.257 OA
BRANCH  32  34
ATOM     34  C   LIG    1       25.959 -20.850   7.869  0.00  0.00    +0.104 C 
BRANCH  34  35
ATOM     35  C   LIG    1       26.776 -20.339   6.681  0.00  0.00    +0.019 C 
BRANCH  35  36
ATOM     36  C   LIG    1       28.256 -20.770   6.691  0.00  0.00    +0.086 C 
BRANCH  36  37
ATOM     37  C   LIG    1       29.173 -19.943   7.604  0.00  0.00    +0.342 C 
ATOM     38  F   LIG    1       29.960 -20.822   8.295  0.00  0.00    -0.196 F 
ATOM     39  F   LIG    1       28.384 -19.350   8.556  0.00  0.00    -0.196 F 
BRANCH  37  40
ATOM     40  C   LIG    1       30.032 -18.866   6.919  0.00  0.00    +0.454 C 
ATOM     41  F   LIG    1       29.334 -18.187   5.977  0.00  0.00    -0.165 F 
ATOM     42  F   LIG    1       31.107 -19.412   6.296  0.00  0.00    -0.165 F 
ATOM     43  F   LIG    1       30.521 -17.944   7.779  0.00  0.00    -0.165 F 
ENDBRANCH  37  40
ENDBRANCH  36  37
ENDBRANCH  35  36
ENDBRANCH  34  35
ENDBRANCH  32  34
ENDBRANCH  31  32
ENDBRANCH  30  31
ENDBRANCH  29  30
ENDBRANCH  28  29
ENDBRANCH  27  28
ENDBRANCH  26  27
ENDBRANCH  25  26
ENDBRANCH  24  25
ENDBRANCH  23  24
ENDBRANCH  17  23
TORSDOF 17
ENDMDL
MODEL 7
REMARK VINA RESULT:      -7.3      2.127      4.748
REMARK  Name = *****
REMARK                            x       y       z     vdW  Elec       q    Type
REMARK                         _______ _______ _______ _____ _____    ______ ____
ROOT
ATOM      1  C   LIG    1       21.392 -32.498  13.212  0.00  0.00    +0.014 C 
ATOM      2  C   LIG    1       21.872 -31.404  12.218  0.00  0.00    -0.003 C 
ATOM      3  C   LIG    1       21.020 -31.516  10.925  0.00  0.00    +0.121 C 
ATOM      4  C   LIG    1       21.667 -32.660  10.160  0.00  0.00    +0.032 C 
ATOM      5  C   LIG    1       23.153 -32.355  10.312  0.00  0.00    +0.007 C 
ATOM      6  C   LIG    1       23.328 -31.768  11.739  0.00  0.00    +0.001 C 
ATOM      7  C   LIG    1       24.494 -30.741  11.995  0.00  0.00    +0.003 C 
ATOM      8  C   LIG    1       24.105 -29.595  12.953  0.00  0.00    +0.023 C 
ATOM      9  C   LIG    1       25.143 -28.497  13.059  0.00  0.00    -0.041 A 
ATOM     10  C   LIG    1       25.852 -28.092  11.926  0.00  0.00    -0.040 A 
ATOM     11  C   LIG    1       25.604 -28.783  10.623  0.00  0.00    +0.039 C 
ATOM     12  C   LIG    1       26.727 -27.001  11.999  0.00  0.00    +0.049 A 
ATOM     13  C   LIG    1       26.913 -26.342  13.209  0.00  0.00    +0.117 A 
ATOM     14  C   LIG    1       26.241 -26.754  14.351  0.00  0.00    +0.045 A 
ATOM     15  C   LIG    1       25.352 -27.828  14.275  0.00  0.00    +0.008 A 
ATOM     16  C   LIG    1       22.743 -29.017  12.584  0.00  0.00    +0.009 C 
ATOM     17  C   LIG    1       25.330 -30.294  10.756  0.00  0.00    -0.003 C 
ATOM     18  C   LIG    1       21.680 -30.046  12.918  0.00  0.00    +0.010 C 
ENDROOT
BRANCH   3  19
ATOM     19  O   LIG    1       21.120 -30.344  10.120  0.00  0.00    -0.391 OA
ATOM     20  H   LIG    1       20.228 -29.975  10.015  0.00  0.00    +0.210 HD
ENDBRANCH   3  19
BRANCH  13  21
ATOM     21  O   LIG    1       27.763 -25.275  13.227  0.00  0.00    -0.507 OA
ATOM     22  H   LIG    1       27.860 -24.976  14.145  0.00  0.00    +0.292 HD
ENDBRANCH  13  21
BRANCH  17  23
ATOM     23  C   LIG    1       26.625 -31.130  10.638  0.00  0.00    +0.004 C 
BRANCH  23  24
ATOM     24  C   LIG    1       27.062 -31.506   9.214  0.00  0.00    +0.000 C 
BRANCH  24  25
ATOM     25  C   LIG    1       26.586 -32.907   8.818  0.00  0.00    +0.000 C 
BRANCH  25  26
ATOM     26  C   LIG    1       25.913 -32.923   7.444  0.00  0.00    -0.000 C 
BRANCH  26  27
ATOM     27  C   LIG    1       25.985 -31.589   6.704  0.00  0.00    -0.000 C 
BRANCH  27  28
ATOM     28  C   LIG    1       24.598 -30.991   6.410  0.00  0.00    +0.000 C 
BRANCH  28  29
ATOM     29  C   LIG    1       24.281 -29.813   7.350  0.00  0.00    +0.001 C 
BRANCH  29  30
ATOM     30  C   LIG    1       24.323 -28.456   6.624  0.00  0.00    +0.013 C 
BRANCH  30  31
ATOM     31  C   LIG    1       25.229 -28.344   5.384  0.00  0.00    +0.104 C 
BRANCH  31  32
ATOM     32  S   LIG    1       25.636 -26.643   4.875  0.00  0.00    +0.022 S 
ATOM     33  O   LIG    1       26.818 -26.190   5.639  0.00  0.00    -0.257 OA
BRANCH  32  34
ATOM     34  C   LIG    1       24.184 -25.774   5.580  0.00  0.00    +0.104 C 
BRANCH  34  35
ATOM     35  C   LIG    1       24.454 -24.487   6.362  0.00  0.00    +0.019 C 
BRANCH  35  36
ATOM     36  C   LIG    1       23.190 -23.678   6.715  0.00  0.00    +0.086 C 
BRANCH  36  37
ATOM     37  C   LIG    1       23.418 -22.178   6.952  0.00  0.00    +0.342 C 
ATOM     38  F   LIG    1       24.745 -22.006   7.231  0.00  0.00    -0.196 F 
ATOM     39  F   LIG    1       22.766 -21.837   8.109  0.00  0.00    -0.196 F 
BRANCH  37  40
ATOM     40  C   LIG    1       22.972 -21.230   5.825  0.00  0.00    +0.454 C 
ATOM     41  F   LIG    1       23.898 -21.144   4.840  0.00  0.00    -0.165 F 
ATOM     42  F   LIG    1       22.770 -19.971   6.288  0.00  0.00    -0.165 F 
ATOM     43  F   LIG    1       21.814 -21.606   5.236  0.00  0.00    -0.165 F 
ENDBRANCH  37  40
ENDBRANCH  36  37
ENDBRANCH  35  36
ENDBRANCH  34  35
ENDBRANCH  32  34
ENDBRANCH  31  32
ENDBRANCH  30  31
ENDBRANCH  29  30
ENDBRANCH  28  29
ENDBRANCH  27  28
ENDBRANCH  26  27
ENDBRANCH  25  26
ENDBRANCH  24  25
ENDBRANCH  23  24
ENDBRANCH  17  23
TORSDOF 17
ENDMDL
MODEL 8
REMARK VINA RESULT:      -7.3      5.283      7.876
REMARK  Name = *****
REMARK                            x       y       z     vdW  Elec       q    Type
REMARK                         _______ _______ _______ _____ _____    ______ ____
ROOT
ATOM      1  C   LIG    1       27.788 -33.593   6.154  0.00  0.00    +0.014 C 
ATOM      2  C   LIG    1       26.355 -33.057   6.423  0.00  0.00    -0.003 C 
ATOM      3  C   LIG    1       25.498 -33.302   5.152  0.00  0.00    +0.121 C 
ATOM      4  C   LIG    1       25.879 -32.155   4.229  0.00  0.00    +0.032 C 
ATOM      5  C   LIG    1       25.879 -30.960   5.176  0.00  0.00    +0.007 C 
ATOM      6  C   LIG    1       26.420 -31.486   6.534  0.00  0.00    +0.001 C 
ATOM      7  C   LIG    1       25.932 -30.794   7.861  0.00  0.00    +0.003 C 
ATOM      8  C   LIG    1       25.700 -31.784   9.022  0.00  0.00    +0.023 C 
ATOM      9  C   LIG    1       25.048 -31.166  10.242  0.00  0.00    -0.041 A 
ATOM     10  C   LIG    1       24.047 -30.204  10.089  0.00  0.00    -0.040 A 
ATOM     11  C   LIG    1       23.661 -29.765   8.713  0.00  0.00    +0.039 C 
ATOM     12  C   LIG    1       23.365 -29.718  11.212  0.00  0.00    +0.049 A 
ATOM     13  C   LIG    1       23.708 -30.171  12.481  0.00  0.00    +0.117 A 
ATOM     14  C   LIG    1       24.724 -31.101  12.651  0.00  0.00    +0.045 A 
ATOM     15  C   LIG    1       25.390 -31.603  11.531  0.00  0.00    +0.008 A 
ATOM     16  C   LIG    1       24.915 -33.002   8.549  0.00  0.00    +0.009 C 
ATOM     17  C   LIG    1       24.839 -29.689   7.724  0.00  0.00    -0.003 C 
ATOM     18  C   LIG    1       25.810 -33.825   7.641  0.00  0.00    +0.010 C 
ENDROOT
BRANCH   3  19
ATOM     19  O   LIG    1       24.103 -33.195   5.423  0.00  0.00    -0.391 OA
ATOM     20  H   LIG    1       23.733 -32.523   4.827  0.00  0.00    +0.210 HD
ENDBRANCH   3  19
BRANCH  13  21
ATOM     21  O   LIG    1       23.005 -29.680  13.541  0.00  0.00    -0.507 OA
ATOM     22  H   LIG    1       23.636 -29.349  14.200  0.00  0.00    +0.292 HD
ENDBRANCH  13  21
BRANCH  17  23
ATOM     23  C   LIG    1       25.481 -28.283   7.694  0.00  0.00    +0.004 C 
BRANCH  23  24
ATOM     24  C   LIG    1       25.439 -27.546   6.347  0.00  0.00    +0.000 C 
BRANCH  24  25
ATOM     25  C   LIG    1       24.576 -26.283   6.409  0.00  0.00    +0.000 C 
BRANCH  25  26
ATOM     26  C   LIG    1       25.385 -25.015   6.127  0.00  0.00    -0.000 C 
BRANCH  26  27
ATOM     27  C   LIG    1       25.177 -23.906   7.156  0.00  0.00    -0.000 C 
BRANCH  27  28
ATOM     28  C   LIG    1       25.531 -22.511   6.614  0.00  0.00    +0.000 C 
BRANCH  28  29
ATOM     29  C   LIG    1       25.163 -21.404   7.621  0.00  0.00    +0.001 C 
BRANCH  29  30
ATOM     30  C   LIG    1       26.406 -20.715   8.213  0.00  0.00    +0.013 C 
BRANCH  30  31
ATOM     31  C   LIG    1       27.485 -20.232   7.228  0.00  0.00    +0.104 C 
BRANCH  31  32
ATOM     32  S   LIG    1       29.061 -21.143   7.299  0.00  0.00    +0.022 S 
ATOM     33  O   LIG    1       29.363 -21.456   8.712  0.00  0.00    -0.257 OA
BRANCH  32  34
ATOM     34  C   LIG    1       30.198 -19.795   6.800  0.00  0.00    +0.104 C 
BRANCH  34  35
ATOM     35  C   LIG    1       30.054 -18.456   7.524  0.00  0.00    +0.019 C 
BRANCH  35  36
ATOM     36  C   LIG    1       31.270 -18.062   8.386  0.00  0.00    +0.086 C 
BRANCH  36  37
ATOM     37  C   LIG    1       30.932 -17.470   9.763  0.00  0.00    +0.342 C 
ATOM     38  F   LIG    1       30.653 -18.515  10.598  0.00  0.00    -0.196 F 
ATOM     39  F   LIG    1       29.749 -16.788   9.642  0.00  0.00    -0.196 F 
BRANCH  37  40
ATOM     40  C   LIG    1       31.988 -16.541  10.387  0.00  0.00    +0.454 C 
ATOM     41  F   LIG    1       33.024 -17.235  10.914  0.00  0.00    -0.165 F 
ATOM     42  F   LIG    1       31.459 -15.797  11.391  0.00  0.00    -0.165 F 
ATOM     43  F   LIG    1       32.516 -15.663   9.504  0.00  0.00    -0.165 F 
ENDBRANCH  37  40
ENDBRANCH  36  37
ENDBRANCH  35  36
ENDBRANCH  34  35
ENDBRANCH  32  34
ENDBRANCH  31  32
ENDBRANCH  30  31
ENDBRANCH  29  30
ENDBRANCH  28  29
ENDBRANCH  27  28
ENDBRANCH  26  27
ENDBRANCH  25  26
ENDBRANCH  24  25
ENDBRANCH  23  24
ENDBRANCH  17  23
TORSDOF 17
ENDMDL
MODEL 9
REMARK VINA RESULT:      -6.9      4.872      9.213
REMARK  Name = *****
REMARK                            x       y       z     vdW  Elec       q    Type
REMARK                         _______ _______ _______ _____ _____    ______ ____
ROOT
ATOM      1  C   LIG    1       23.696 -33.387   6.524  0.00  0.00    +0.014 C 
ATOM      2  C   LIG    1       24.945 -32.473   6.660  0.00  0.00    -0.003 C 
ATOM      3  C   LIG    1       26.189 -33.379   6.862  0.00  0.00    +0.121 C 
ATOM      4  C   LIG    1       26.145 -33.736   8.340  0.00  0.00    +0.032 C 
ATOM      5  C   LIG    1       25.811 -32.397   8.988  0.00  0.00    +0.007 C 
ATOM      6  C   LIG    1       24.838 -31.677   8.015  0.00  0.00    +0.001 C 
ATOM      7  C   LIG    1       24.834 -30.103   7.977  0.00  0.00    +0.003 C 
ATOM      8  C   LIG    1       24.656 -29.522   6.559  0.00  0.00    +0.023 C 
ATOM      9  C   LIG    1       24.843 -28.022   6.476  0.00  0.00    -0.041 A 
ATOM     10  C   LIG    1       25.831 -27.396   7.240  0.00  0.00    -0.040 A 
ATOM     11  C   LIG    1       26.666 -28.218   8.168  0.00  0.00    +0.039 C 
ATOM     12  C   LIG    1       26.080 -26.027   7.078  0.00  0.00    +0.049 A 
ATOM     13  C   LIG    1       25.322 -25.286   6.178  0.00  0.00    +0.117 A 
ATOM     14  C   LIG    1       24.315 -25.887   5.437  0.00  0.00    +0.045 A 
ATOM     15  C   LIG    1       24.079 -27.256   5.581  0.00  0.00    +0.008 A 
ATOM     16  C   LIG    1       25.562 -30.235   5.562  0.00  0.00    +0.009 C 
ATOM     17  C   LIG    1       25.902 -29.370   8.848  0.00  0.00    -0.003 C 
ATOM     18  C   LIG    1       25.040 -31.646   5.365  0.00  0.00    +0.010 C 
ENDROOT
BRANCH   3  19
ATOM     19  O   LIG    1       27.405 -32.674   6.623  0.00  0.00    -0.391 OA
ATOM     20  H   LIG    1       27.522 -32.597   5.661  0.00  0.00    +0.210 HD
ENDBRANCH   3  19
BRANCH  13  21
ATOM     21  O   LIG    1       25.614 -23.961   6.043  0.00  0.00    -0.507 OA
ATOM     22  H   LIG    1       25.831 -23.604   6.920  0.00  0.00    +0.292 HD
ENDBRANCH  13  21
BRANCH  17  23
ATOM     23  C   LIG    1       25.302 -28.944  10.208  0.00  0.00    +0.004 C 
BRANCH  23  24
ATOM     24  C   LIG    1       26.217 -29.103  11.432  0.00  0.00    +0.000 C 
BRANCH  24  25
ATOM     25  C   LIG    1       26.998 -27.821  11.735  0.00  0.00    +0.000 C 
BRANCH  25  26
ATOM     26  C   LIG    1       26.647 -27.240  13.106  0.00  0.00    -0.000 C 
BRANCH  26  27
ATOM     27  C   LIG    1       26.268 -25.761  13.074  0.00  0.00    -0.000 C 
BRANCH  27  28
ATOM     28  C   LIG    1       24.902 -25.478  13.720  0.00  0.00    +0.000 C 
BRANCH  28  29
ATOM     29  C   LIG    1       23.969 -26.701  13.626  0.00  0.00    +0.001 C 
BRANCH  29  30
ATOM     30  C   LIG    1       22.497 -26.300  13.418  0.00  0.00    +0.013 C 
BRANCH  30  31
ATOM     31  C   LIG    1       21.499 -26.664  14.532  0.00  0.00    +0.104 C 
BRANCH  31  32
ATOM     32  S   LIG    1       19.871 -27.239  13.954  0.00  0.00    +0.022 S 
ATOM     33  O   LIG    1       18.827 -26.371  14.540  0.00  0.00    -0.257 OA
BRANCH  32  34
ATOM     34  C   LIG    1       19.794 -28.838  14.847  0.00  0.00    +0.104 C 
BRANCH  34  35
ATOM     35  C   LIG    1       20.285 -30.079  14.100  0.00  0.00    +0.019 C 
BRANCH  35  36
ATOM     36  C   LIG    1       20.549 -29.857  12.597  0.00  0.00    +0.086 C 
BRANCH  36  37
ATOM     37  C   LIG    1       22.004 -30.066  12.151  0.00  0.00    +0.342 C 
ATOM     38  F   LIG    1       22.728 -30.393  13.262  0.00  0.00    -0.196 F 
ATOM     39  F   LIG    1       22.494 -28.848  11.755  0.00  0.00    -0.196 F 
BRANCH  37  40
ATOM     40  C   LIG    1       22.235 -31.091  11.028  0.00  0.00    +0.454 C 
ATOM     41  F   LIG    1       23.437 -31.705  11.143  0.00  0.00    -0.165 F 
ATOM     42  F   LIG    1       22.209 -30.501   9.806  0.00  0.00    -0.165 F 
ATOM     43  F   LIG    1       21.302 -32.069  10.995  0.00  0.00    -0.165 F 
ENDBRANCH  37  40
ENDBRANCH  36  37
ENDBRANCH  35  36
ENDBRANCH  34  35
ENDBRANCH  32  34
ENDBRANCH  31  32
ENDBRANCH  30  31
ENDBRANCH  29  30
ENDBRANCH  28  29
ENDBRANCH  27  28
ENDBRANCH  26  27
ENDBRANCH  25  26
ENDBRANCH  24  25
ENDBRANCH  23  24
ENDBRANCH  17  23
TORSDOF 17
ENDMDL
