MODEL 1
REMARK VINA RESULT:       4.3      0.000      0.000
REMARK  Name = *****
REMARK                            x       y       z     vdW  Elec       q    Type
REMARK                         _______ _______ _______ _____ _____    ______ ____
ROOT
ATOM      1  C   LIG    1       24.991 -15.452   3.960  0.00  0.00    +0.159 A 
ATOM      2  C   LIG    1       23.713 -15.034   3.572  0.00  0.00    +0.164 A 
ATOM      3  F   LIG    1       23.461 -13.763   3.224  0.00  0.00    -0.202 F 
ATOM      4  C   LIG    1       22.661 -15.929   3.555  0.00  0.00    +0.057 A 
ATOM      5  C   LIG    1       22.895 -17.247   3.940  0.00  0.00    +0.068 A 
ATOM      6  C   LIG    1       21.771 -18.192   3.920  0.00  0.00    +0.205 A 
ATOM      7  C   LIG    1       22.011 -19.568   4.372  0.00  0.00    +0.122 A 
ATOM      8  C   LIG    1       23.264 -19.870   4.743  0.00  0.00    +0.112 A 
ATOM      9  N   LIG    1       24.389 -19.034   4.737  0.00  0.00    -0.297 N 
ATOM     10  O   LIG    1       20.651 -17.848   3.553  0.00  0.00    -0.286 OA
ATOM     11  C   LIG    1       24.175 -17.652   4.340  0.00  0.00    +0.151 A 
ATOM     12  N   LIG    1       25.193 -16.747   4.334  0.00  0.00    -0.211 NA
ENDROOT
BRANCH   9  13
ATOM     13  C   LIG    1       25.680 -19.568   5.122  0.00  0.00    +0.083 A 
ATOM     14  C   LIG    1       25.825 -20.556   6.127  0.00  0.00    +0.150 A 
ATOM     15  F   LIG    1       24.749 -21.087   6.730  0.00  0.00    -0.203 F 
ATOM     16  C   LIG    1       27.067 -21.055   6.520  0.00  0.00    +0.078 A 
ATOM     17  C   LIG    1       28.208 -20.596   5.887  0.00  0.00    +0.126 A 
ATOM     18  F   LIG    1       29.405 -21.082   6.241  0.00  0.00    -0.205 F 
ATOM     19  C   LIG    1       28.124 -19.640   4.888  0.00  0.00    +0.040 A 
ATOM     20  C   LIG    1       26.874 -19.121   4.523  0.00  0.00    +0.032 A 
ENDBRANCH   9  13
BRANCH   1  24
ATOM     21  C   LIG    1       28.279 -12.586   3.947  0.00  0.00    +0.061 C 
ATOM     22  C   LIG    1       28.330 -14.048   4.297  0.00  0.00    +0.029 C 
ATOM     23  C   LIG    1       27.407 -15.043   3.665  0.00  0.00    +0.112 C 
ATOM     24  N   LIG    1       26.062 -14.572   4.014  0.00  0.00    -0.312 N 
ATOM     25  C   LIG    1       26.082 -13.532   5.044  0.00  0.00    +0.112 C 
ATOM     26  C   LIG    1       27.521 -13.120   5.135  0.00  0.00    +0.029 C 
BRANCH  21  27
ATOM     27  N   LIG    1       29.471 -11.772   4.192  0.00  0.00    -0.327 NA
ATOM     28  H   LIG    1       29.225 -10.788   4.295  0.00  0.00    +0.118 HD
ATOM     29  H   LIG    1       29.922 -12.043   5.066  0.00  0.00    +0.118 HD
ENDBRANCH  21  27
ENDBRANCH   1  24
BRANCH   7  30
ATOM     30  C   LIG    1       20.949 -20.593   4.446  0.00  0.00    +0.342 C 
ATOM     31  O   LIG    1       21.006 -21.565   5.189  0.00  0.00    -0.245 OA
BRANCH  30  32
ATOM     32  O   LIG    1       19.897 -20.378   3.629  0.00  0.00    -0.477 OA
ATOM     33  H   LIG    1       19.283 -19.663   3.929  0.00  0.00    +0.295 HD
ENDBRANCH  30  32
ENDBRANCH   7  30
TORSDOF 5
ENDMDL
MODEL 2
REMARK VINA RESULT:       5.2      0.870      1.376
REMARK  Name = *****
REMARK                            x       y       z     vdW  Elec       q    Type
REMARK                         _______ _______ _______ _____ _____    ______ ____
ROOT
ATOM      1  C   LIG    1       24.978 -15.366   4.084  0.00  0.00    +0.159 A 
ATOM      2  C   LIG    1       23.703 -14.948   3.687  0.00  0.00    +0.164 A 
ATOM      3  F   LIG    1       23.448 -13.673   3.359  0.00  0.00    -0.202 F 
ATOM      4  C   LIG    1       22.656 -15.849   3.641  0.00  0.00    +0.057 A 
ATOM      5  C   LIG    1       22.892 -17.171   4.005  0.00  0.00    +0.068 A 
ATOM      6  C   LIG    1       21.774 -18.122   3.954  0.00  0.00    +0.205 A 
ATOM      7  C   LIG    1       22.016 -19.505   4.385  0.00  0.00    +0.122 A 
ATOM      8  C   LIG    1       23.265 -19.807   4.766  0.00  0.00    +0.112 A 
ATOM      9  N   LIG    1       24.385 -18.964   4.789  0.00  0.00    -0.297 N 
ATOM     10  O   LIG    1       20.656 -17.778   3.579  0.00  0.00    -0.286 OA
ATOM     11  C   LIG    1       24.169 -17.577   4.414  0.00  0.00    +0.151 A 
ATOM     12  N   LIG    1       25.182 -16.667   4.438  0.00  0.00    -0.211 NA
ENDROOT
BRANCH   9  13
ATOM     13  C   LIG    1       25.674 -19.499   5.182  0.00  0.00    +0.083 A 
ATOM     14  C   LIG    1       26.877 -19.146   4.522  0.00  0.00    +0.150 A 
ATOM     15  F   LIG    1       26.877 -18.241   3.529  0.00  0.00    -0.203 F 
ATOM     16  C   LIG    1       28.117 -19.677   4.879  0.00  0.00    +0.078 A 
ATOM     17  C   LIG    1       28.190 -20.562   5.939  0.00  0.00    +0.126 A 
ATOM     18  F   LIG    1       29.377 -21.064   6.304  0.00  0.00    -0.205 F 
ATOM     19  C   LIG    1       27.047 -20.932   6.629  0.00  0.00    +0.040 A 
ATOM     20  C   LIG    1       25.802 -20.418   6.242  0.00  0.00    +0.032 A 
ENDBRANCH   9  13
BRANCH   1  24
ATOM     21  C   LIG    1       28.219 -12.449   4.208  0.00  0.00    +0.061 C 
ATOM     22  C   LIG    1       28.326 -13.950   4.194  0.00  0.00    +0.029 C 
ATOM     23  C   LIG    1       27.311 -14.807   3.506  0.00  0.00    +0.112 C 
ATOM     24  N   LIG    1       26.042 -14.482   4.168  0.00  0.00    -0.312 N 
ATOM     25  C   LIG    1       26.234 -13.706   5.394  0.00  0.00    +0.112 C 
ATOM     26  C   LIG    1       27.668 -13.271   5.345  0.00  0.00    +0.029 C 
BRANCH  21  27
ATOM     27  N   LIG    1       29.434 -11.668   4.439  0.00  0.00    -0.327 NA
ATOM     28  H   LIG    1       29.207 -10.705   4.684  0.00  0.00    +0.118 HD
ATOM     29  H   LIG    1       29.961 -12.043   5.228  0.00  0.00    +0.118 HD
ENDBRANCH  21  27
ENDBRANCH   1  24
BRANCH   7  30
ATOM     30  C   LIG    1       20.958 -20.537   4.426  0.00  0.00    +0.342 C 
ATOM     31  O   LIG    1       19.931 -20.471   3.763  0.00  0.00    -0.245 OA
BRANCH  30  32
ATOM     32  O   LIG    1       21.209 -21.572   5.255  0.00  0.00    -0.477 OA
ATOM     33  H   LIG    1       20.481 -21.774   5.892  0.00  0.00    +0.295 HD
ENDBRANCH  30  32
ENDBRANCH   7  30
TORSDOF 5
ENDMDL
