MODEL 1
REMARK VINA RESULT:     -11.0      0.000      0.000
REMARK  Name = *****
REMARK                            x       y       z     vdW  Elec       q    Type
REMARK                         _______ _______ _______ _____ _____    ______ ____
ROOT
ATOM      1  C   LIG    1       26.657 -21.120   6.570  0.00  0.00    +0.005 C 
ATOM      2  C   LIG    1       26.743 -22.277   7.270  0.00  0.00    -0.001 C 
ENDROOT
BRANCH   1   7
ATOM      3  C   LIG    1       21.830 -18.938   4.289  0.00  0.00    +0.044 C 
ATOM      4  C   LIG    1       23.029 -19.668   4.820  0.00  0.00    -0.050 A 
ATOM      5  C   LIG    1       24.185 -19.796   4.041  0.00  0.00    +0.004 A 
ATOM      6  C   LIG    1       25.358 -20.314   4.595  0.00  0.00    +0.009 A 
ATOM      7  C   LIG    1       25.392 -20.704   5.939  0.00  0.00    -0.016 A 
ATOM      8  C   LIG    1       24.216 -20.643   6.697  0.00  0.00    +0.009 A 
ATOM      9  C   LIG    1       23.045 -20.125   6.142  0.00  0.00    +0.004 A 
ENDBRANCH   1   7
BRANCH   1  10
ATOM     10  C   LIG    1       27.893 -20.318   6.483  0.00  0.00    +0.072 A 
ATOM     11  N   LIG    1       28.747 -20.417   7.538  0.00  0.00    -0.247 NA
ATOM     12  C   LIG    1       29.805 -19.579   7.558  0.00  0.00    +0.065 A 
ATOM     13  C   LIG    1       30.062 -18.667   6.538  0.00  0.00    +0.028 A 
ATOM     14  C   LIG    1       29.205 -18.620   5.442  0.00  0.00    +0.004 A 
ATOM     15  C   LIG    1       28.099 -19.458   5.412  0.00  0.00    +0.028 A 
BRANCH  12  16
ATOM     16  C   LIG    1       30.682 -19.644   8.736  0.00  0.00    +0.035 C 
ATOM     17  C   LIG    1       31.289 -18.677   9.443  0.00  0.00    +0.093 C 
BRANCH  17  18
ATOM     18  C   LIG    1       31.310 -17.196   9.377  0.00  0.00    +0.330 C 
ATOM     19  O   LIG    1       30.367 -16.543   9.779  0.00  0.00    -0.246 OA
BRANCH  18  20
ATOM     20  O   LIG    1       32.357 -16.649   8.731  0.00  0.00    -0.477 OA
ATOM     21  H   LIG    1       32.524 -17.069   7.861  0.00  0.00    +0.295 HD
ENDBRANCH  18  20
ENDBRANCH  17  18
ENDBRANCH  12  16
ENDBRANCH   1  10
BRANCH   2  22
ATOM     22  C   LIG    1       25.660 -23.290   7.547  0.00  0.00    +0.112 C 
BRANCH  22  23
ATOM     23  N   LIG    1       25.402 -24.158   6.388  0.00  0.00    -0.299 NA
ATOM     24  C   LIG    1       26.261 -25.343   6.354  0.00  0.00    +0.085 C 
ATOM     25  C   LIG    1       25.564 -26.217   5.329  0.00  0.00    +0.017 C 
ATOM     26  C   LIG    1       24.087 -25.993   5.607  0.00  0.00    +0.017 C 
ATOM     27  C   LIG    1       24.025 -24.683   6.392  0.00  0.00    +0.085 C 
ENDBRANCH  22  23
ENDBRANCH   2  22
TORSDOF 7
ENDMDL
MODEL 2
REMARK VINA RESULT:     -10.9      1.726      1.916
REMARK  Name = *****
REMARK                            x       y       z     vdW  Elec       q    Type
REMARK                         _______ _______ _______ _____ _____    ______ ____
ROOT
ATOM      1  C   LIG    1       26.727 -21.072   6.601  0.00  0.00    +0.005 C 
ATOM      2  C   LIG    1       26.844 -22.216   7.317  0.00  0.00    -0.001 C 
ENDROOT
BRANCH   1   7
ATOM      3  C   LIG    1       21.826 -19.016   4.360  0.00  0.00    +0.044 C 
ATOM      4  C   LIG    1       23.046 -19.715   4.883  0.00  0.00    -0.050 A 
ATOM      5  C   LIG    1       24.193 -19.833   4.089  0.00  0.00    +0.004 A 
ATOM      6  C   LIG    1       25.384 -20.321   4.633  0.00  0.00    +0.009 A 
ATOM      7  C   LIG    1       25.444 -20.689   5.982  0.00  0.00    -0.016 A 
ATOM      8  C   LIG    1       24.280 -20.640   6.757  0.00  0.00    +0.009 A 
ATOM      9  C   LIG    1       23.090 -20.152   6.212  0.00  0.00    +0.004 A 
ENDBRANCH   1   7
BRANCH   1  10
ATOM     10  C   LIG    1       27.947 -20.249   6.482  0.00  0.00    +0.072 A 
ATOM     11  N   LIG    1       28.798 -20.284   7.543  0.00  0.00    -0.247 NA
ATOM     12  C   LIG    1       29.839 -19.423   7.529  0.00  0.00    +0.065 A 
ATOM     13  C   LIG    1       30.081 -18.553   6.470  0.00  0.00    +0.028 A 
ATOM     14  C   LIG    1       29.227 -18.572   5.370  0.00  0.00    +0.004 A 
ATOM     15  C   LIG    1       28.139 -19.433   5.374  0.00  0.00    +0.028 A 
BRANCH  12  16
ATOM     16  C   LIG    1       30.711 -19.418   8.712  0.00  0.00    +0.035 C 
ATOM     17  C   LIG    1       31.264 -20.423   9.410  0.00  0.00    +0.093 C 
BRANCH  17  18
ATOM     18  C   LIG    1       31.272 -21.900   9.279  0.00  0.00    +0.330 C 
ATOM     19  O   LIG    1       30.541 -22.589   9.963  0.00  0.00    -0.246 OA
BRANCH  18  20
ATOM     20  O   LIG    1       32.220 -22.414   8.472  0.00  0.00    -0.477 OA
ATOM     21  H   LIG    1       32.998 -21.824   8.380  0.00  0.00    +0.295 HD
ENDBRANCH  18  20
ENDBRANCH  17  18
ENDBRANCH  12  16
ENDBRANCH   1  10
BRANCH   2  22
ATOM     22  C   LIG    1       25.785 -23.244   7.627  0.00  0.00    +0.112 C 
BRANCH  22  23
ATOM     23  N   LIG    1       25.478 -24.093   6.466  0.00  0.00    -0.299 NA
ATOM     24  C   LIG    1       26.256 -25.332   6.437  0.00  0.00    +0.085 C 
ATOM     25  C   LIG    1       25.510 -26.157   5.406  0.00  0.00    +0.017 C 
ATOM     26  C   LIG    1       24.050 -25.836   5.673  0.00  0.00    +0.017 C 
ATOM     27  C   LIG    1       24.069 -24.524   6.459  0.00  0.00    +0.085 C 
ENDBRANCH  22  23
ENDBRANCH   2  22
TORSDOF 7
ENDMDL
MODEL 3
REMARK VINA RESULT:     -10.2      4.481      7.293
REMARK  Name = *****
REMARK                            x       y       z     vdW  Elec       q    Type
REMARK                         _______ _______ _______ _____ _____    ______ ____
ROOT
ATOM      1  C   LIG    1       25.257 -22.803   6.622  0.00  0.00    +0.005 C 
ATOM      2  C   LIG    1       26.000 -22.477   7.707  0.00  0.00    -0.001 C 
ENDROOT
BRANCH   1   7
ATOM      3  C   LIG    1       22.348 -18.432   4.237  0.00  0.00    +0.044 C 
ATOM      4  C   LIG    1       23.037 -19.673   4.722  0.00  0.00    -0.050 A 
ATOM      5  C   LIG    1       24.330 -19.984   4.286  0.00  0.00    +0.004 A 
ATOM      6  C   LIG    1       25.041 -21.036   4.870  0.00  0.00    +0.009 A 
ATOM      7  C   LIG    1       24.468 -21.785   5.905  0.00  0.00    -0.016 A 
ATOM      8  C   LIG    1       23.149 -21.520   6.291  0.00  0.00    +0.009 A 
ATOM      9  C   LIG    1       22.441 -20.469   5.707  0.00  0.00    +0.004 A 
ENDBRANCH   1   7
BRANCH   1  10
ATOM     10  C   LIG    1       25.290 -24.221   6.213  0.00  0.00    +0.072 A 
ATOM     11  N   LIG    1       25.637 -25.115   7.178  0.00  0.00    -0.247 NA
ATOM     12  C   LIG    1       25.827 -26.396   6.795  0.00  0.00    +0.065 A 
ATOM     13  C   LIG    1       25.644 -26.824   5.483  0.00  0.00    +0.028 A 
ATOM     14  C   LIG    1       25.236 -25.902   4.522  0.00  0.00    +0.004 A 
ATOM     15  C   LIG    1       25.056 -24.576   4.890  0.00  0.00    +0.028 A 
BRANCH  12  16
ATOM     16  C   LIG    1       26.272 -27.340   7.830  0.00  0.00    +0.035 C 
ATOM     17  C   LIG    1       25.918 -28.610   8.082  0.00  0.00    +0.093 C 
BRANCH  17  18
ATOM     18  C   LIG    1       25.003 -29.582   7.439  0.00  0.00    +0.330 C 
ATOM     19  O   LIG    1       23.885 -29.769   7.878  0.00  0.00    -0.246 OA
BRANCH  18  20
ATOM     20  O   LIG    1       25.534 -30.324   6.448  0.00  0.00    -0.477 OA
ATOM     21  H   LIG    1       24.893 -30.963   6.070  0.00  0.00    +0.295 HD
ENDBRANCH  18  20
ENDBRANCH  17  18
ENDBRANCH  12  16
ENDBRANCH   1  10
BRANCH   2  22
ATOM     22  C   LIG    1       26.181 -21.124   8.350  0.00  0.00    +0.112 C 
BRANCH  22  23
ATOM     23  N   LIG    1       27.525 -20.574   8.116  0.00  0.00    -0.299 NA
ATOM     24  C   LIG    1       28.581 -21.587   8.179  0.00  0.00    +0.085 C 
ATOM     25  C   LIG    1       29.759 -20.864   7.554  0.00  0.00    +0.017 C 
ATOM     26  C   LIG    1       29.134 -20.061   6.426  0.00  0.00    +0.017 C 
ATOM     27  C   LIG    1       27.648 -19.975   6.776  0.00  0.00    +0.085 C 
ENDBRANCH  22  23
ENDBRANCH   2  22
TORSDOF 7
ENDMDL
MODEL 4
REMARK VINA RESULT:      -9.7      4.187      7.429
REMARK  Name = *****
REMARK                            x       y       z     vdW  Elec       q    Type
REMARK                         _______ _______ _______ _____ _____    ______ ____
ROOT
ATOM      1  C   LIG    1       25.373 -21.764   6.134  0.00  0.00    +0.005 C 
ATOM      2  C   LIG    1       26.632 -21.495   6.554  0.00  0.00    -0.001 C 
ENDROOT
BRANCH   1   7
ATOM      3  C   LIG    1       21.724 -18.062   3.636  0.00  0.00    +0.044 C 
ATOM      4  C   LIG    1       22.753 -18.878   4.361  0.00  0.00    -0.050 A 
ATOM      5  C   LIG    1       22.492 -19.372   5.645  0.00  0.00    +0.004 A 
ATOM      6  C   LIG    1       23.369 -20.278   6.248  0.00  0.00    +0.009 A 
ATOM      7  C   LIG    1       24.516 -20.707   5.569  0.00  0.00    -0.016 A 
ATOM      8  C   LIG    1       24.814 -20.158   4.316  0.00  0.00    +0.009 A 
ATOM      9  C   LIG    1       23.936 -19.253   3.716  0.00  0.00    +0.004 A 
ENDBRANCH   1   7
BRANCH   1  10
ATOM     10  C   LIG    1       24.924 -23.163   6.279  0.00  0.00    +0.072 A 
ATOM     11  N   LIG    1       25.823 -24.120   5.924  0.00  0.00    -0.247 NA
ATOM     12  C   LIG    1       25.387 -25.399   5.896  0.00  0.00    +0.065 A 
ATOM     13  C   LIG    1       24.090 -25.759   6.249  0.00  0.00    +0.028 A 
ATOM     14  C   LIG    1       23.201 -24.768   6.660  0.00  0.00    +0.004 A 
ATOM     15  C   LIG    1       23.622 -23.446   6.675  0.00  0.00    +0.028 A 
BRANCH  12  16
ATOM     16  C   LIG    1       26.345 -26.417   5.444  0.00  0.00    +0.035 C 
ATOM     17  C   LIG    1       26.246 -27.754   5.366  0.00  0.00    +0.093 C 
BRANCH  17  18
ATOM     18  C   LIG    1       25.172 -28.736   5.646  0.00  0.00    +0.330 C 
ATOM     19  O   LIG    1       25.178 -29.387   6.673  0.00  0.00    -0.246 OA
BRANCH  18  20
ATOM     20  O   LIG    1       24.294 -28.950   4.648  0.00  0.00    -0.477 OA
ATOM     21  H   LIG    1       24.731 -29.057   3.777  0.00  0.00    +0.295 HD
ENDBRANCH  18  20
ENDBRANCH  17  18
ENDBRANCH  12  16
ENDBRANCH   1  10
BRANCH   2  22
ATOM     22  C   LIG    1       27.373 -20.181   6.522  0.00  0.00    +0.112 C 
BRANCH  22  23
ATOM     23  N   LIG    1       28.829 -20.361   6.625  0.00  0.00    -0.299 NA
ATOM     24  C   LIG    1       29.561 -19.095   6.701  0.00  0.00    +0.085 C 
ATOM     25  C   LIG    1       30.933 -19.544   7.166  0.00  0.00    +0.017 C 
ATOM     26  C   LIG    1       30.634 -20.651   8.163  0.00  0.00    +0.017 C 
ATOM     27  C   LIG    1       29.206 -21.096   7.844  0.00  0.00    +0.085 C 
ENDBRANCH  22  23
ENDBRANCH   2  22
TORSDOF 7
ENDMDL
MODEL 5
REMARK VINA RESULT:      -9.1      1.564      4.453
REMARK  Name = *****
REMARK                            x       y       z     vdW  Elec       q    Type
REMARK                         _______ _______ _______ _____ _____    ______ ____
ROOT
ATOM      1  C   LIG    1       25.813 -21.554   6.447  0.00  0.00    +0.005 C 
ATOM      2  C   LIG    1       24.794 -20.680   6.625  0.00  0.00    -0.001 C 
ENDROOT
BRANCH   1   7
ATOM      3  C   LIG    1       25.373 -27.250   5.657  0.00  0.00    +0.044 C 
ATOM      4  C   LIG    1       25.317 -25.776   5.929  0.00  0.00    -0.050 A 
ATOM      5  C   LIG    1       25.753 -25.263   7.156  0.00  0.00    +0.004 A 
ATOM      6  C   LIG    1       25.870 -23.884   7.346  0.00  0.00    +0.009 A 
ATOM      7  C   LIG    1       25.561 -23.000   6.306  0.00  0.00    -0.016 A 
ATOM      8  C   LIG    1       25.056 -23.509   5.104  0.00  0.00    +0.009 A 
ATOM      9  C   LIG    1       24.940 -24.888   4.916  0.00  0.00    +0.004 A 
ENDBRANCH   1   7
BRANCH   1  10
ATOM     10  C   LIG    1       27.170 -20.974   6.406  0.00  0.00    +0.072 A 
ATOM     11  N   LIG    1       28.070 -21.490   7.285  0.00  0.00    -0.247 NA
ATOM     12  C   LIG    1       29.268 -20.874   7.378  0.00  0.00    +0.065 A 
ATOM     13  C   LIG    1       29.613 -19.779   6.591  0.00  0.00    +0.028 A 
ATOM     14  C   LIG    1       28.696 -19.300   5.659  0.00  0.00    +0.004 A 
ATOM     15  C   LIG    1       27.451 -19.905   5.563  0.00  0.00    +0.028 A 
BRANCH  12  16
ATOM     16  C   LIG    1       30.207 -21.395   8.381  0.00  0.00    +0.035 C 
ATOM     17  C   LIG    1       31.071 -20.768   9.195  0.00  0.00    +0.093 C 
BRANCH  17  18
ATOM     18  C   LIG    1       31.412 -19.350   9.458  0.00  0.00    +0.330 C 
ATOM     19  O   LIG    1       32.260 -18.782   8.798  0.00  0.00    -0.246 OA
BRANCH  18  20
ATOM     20  O   LIG    1       30.833 -18.795  10.540  0.00  0.00    -0.477 OA
ATOM     21  H   LIG    1       30.680 -19.443  11.259  0.00  0.00    +0.295 HD
ENDBRANCH  18  20
ENDBRANCH  17  18
ENDBRANCH  12  16
ENDBRANCH   1  10
BRANCH   2  22
ATOM     22  C   LIG    1       23.314 -20.963   6.693  0.00  0.00    +0.112 C 
BRANCH  22  23
ATOM     23  N   LIG    1       22.583 -20.374   5.560  0.00  0.00    -0.299 NA
ATOM     24  C   LIG    1       22.476 -18.916   5.641  0.00  0.00    +0.085 C 
ATOM     25  C   LIG    1       22.040 -18.546   4.236  0.00  0.00    +0.017 C 
ATOM     26  C   LIG    1       22.827 -19.498   3.351  0.00  0.00    +0.017 C 
ATOM     27  C   LIG    1       23.254 -20.638   4.276  0.00  0.00    +0.085 C 
ENDBRANCH  22  23
ENDBRANCH   2  22
TORSDOF 7
ENDMDL
MODEL 6
REMARK VINA RESULT:      -9.0      2.878      6.181
REMARK  Name = *****
REMARK                            x       y       z     vdW  Elec       q    Type
REMARK                         _______ _______ _______ _____ _____    ______ ____
ROOT
ATOM      1  C   LIG    1       25.401 -21.260   6.387  0.00  0.00    +0.005 C 
ATOM      2  C   LIG    1       26.344 -20.668   7.159  0.00  0.00    -0.001 C 
ENDROOT
BRANCH   1   7
ATOM      3  C   LIG    1       24.270 -26.913   6.217  0.00  0.00    +0.044 C 
ATOM      4  C   LIG    1       24.571 -25.460   6.444  0.00  0.00    -0.050 A 
ATOM      5  C   LIG    1       25.894 -25.003   6.457  0.00  0.00    +0.004 A 
ATOM      6  C   LIG    1       26.170 -23.634   6.487  0.00  0.00    +0.009 A 
ATOM      7  C   LIG    1       25.124 -22.704   6.496  0.00  0.00    -0.016 A 
ATOM      8  C   LIG    1       23.803 -23.162   6.556  0.00  0.00    +0.009 A 
ATOM      9  C   LIG    1       23.529 -24.530   6.526  0.00  0.00    +0.004 A 
ENDBRANCH   1   7
BRANCH   1  10
ATOM     10  C   LIG    1       24.681 -20.379   5.446  0.00  0.00    +0.072 A 
ATOM     11  N   LIG    1       25.456 -19.595   4.649  0.00  0.00    -0.247 NA
ATOM     12  C   LIG    1       24.828 -18.669   3.892  0.00  0.00    +0.065 A 
ATOM     13  C   LIG    1       23.443 -18.525   3.877  0.00  0.00    +0.028 A 
ATOM     14  C   LIG    1       22.666 -19.374   4.661  0.00  0.00    +0.004 A 
ATOM     15  C   LIG    1       23.294 -20.318   5.462  0.00  0.00    +0.028 A 
BRANCH  12  16
ATOM     16  C   LIG    1       25.677 -17.780   3.088  0.00  0.00    +0.035 C 
ATOM     17  C   LIG    1       25.815 -16.444   3.092  0.00  0.00    +0.093 C 
BRANCH  17  18
ATOM     18  C   LIG    1       25.234 -15.340   3.892  0.00  0.00    +0.330 C 
ATOM     19  O   LIG    1       24.032 -15.252   4.050  0.00  0.00    -0.246 OA
BRANCH  18  20
ATOM     20  O   LIG    1       26.098 -14.391   4.301  0.00  0.00    -0.477 OA
ATOM     21  H   LIG    1       26.982 -14.754   4.516  0.00  0.00    +0.295 HD
ENDBRANCH  18  20
ENDBRANCH  17  18
ENDBRANCH  12  16
ENDBRANCH   1  10
BRANCH   2  22
ATOM     22  C   LIG    1       27.223 -21.292   8.214  0.00  0.00    +0.112 C 
BRANCH  22  23
ATOM     23  N   LIG    1       28.509 -20.590   8.353  0.00  0.00    -0.299 NA
ATOM     24  C   LIG    1       29.660 -21.494   8.355  0.00  0.00    +0.085 C 
ATOM     25  C   LIG    1       30.819 -20.541   8.132  0.00  0.00    +0.017 C 
ATOM     26  C   LIG    1       30.271 -19.533   7.136  0.00  0.00    +0.017 C 
ATOM     27  C   LIG    1       28.751 -19.663   7.234  0.00  0.00    +0.085 C 
ENDBRANCH  22  23
ENDBRANCH   2  22
TORSDOF 7
ENDMDL
MODEL 7
REMARK VINA RESULT:      -8.7      1.265      2.112
REMARK  Name = *****
REMARK                            x       y       z     vdW  Elec       q    Type
REMARK                         _______ _______ _______ _____ _____    ______ ____
ROOT
ATOM      1  C   LIG    1       25.497 -21.995   6.159  0.00  0.00    +0.005 C 
ATOM      2  C   LIG    1       25.342 -23.339   6.096  0.00  0.00    -0.001 C 
ENDROOT
BRANCH   1   7
ATOM      3  C   LIG    1       21.958 -17.989   3.992  0.00  0.00    +0.044 C 
ATOM      4  C   LIG    1       22.772 -19.154   4.472  0.00  0.00    -0.050 A 
ATOM      5  C   LIG    1       23.858 -19.620   3.722  0.00  0.00    +0.004 A 
ATOM      6  C   LIG    1       24.722 -20.583   4.250  0.00  0.00    +0.009 A 
ATOM      7  C   LIG    1       24.515 -21.086   5.539  0.00  0.00    -0.016 A 
ATOM      8  C   LIG    1       23.389 -20.674   6.260  0.00  0.00    +0.009 A 
ATOM      9  C   LIG    1       22.526 -19.712   5.732  0.00  0.00    +0.004 A 
ENDBRANCH   1   7
BRANCH   1  10
ATOM     10  C   LIG    1       26.693 -21.509   6.875  0.00  0.00    +0.072 A 
ATOM     11  N   LIG    1       27.369 -20.486   6.287  0.00  0.00    -0.247 NA
ATOM     12  C   LIG    1       28.550 -20.128   6.836  0.00  0.00    +0.065 A 
ATOM     13  C   LIG    1       29.061 -20.734   7.980  0.00  0.00    +0.028 A 
ATOM     14  C   LIG    1       28.326 -21.742   8.598  0.00  0.00    +0.004 A 
ATOM     15  C   LIG    1       27.120 -22.140   8.037  0.00  0.00    +0.028 A 
BRANCH  12  16
ATOM     16  C   LIG    1       29.307 -19.072   6.152  0.00  0.00    +0.035 C 
ATOM     17  C   LIG    1       30.258 -18.234   6.596  0.00  0.00    +0.093 C 
BRANCH  17  18
ATOM     18  C   LIG    1       30.956 -18.043   7.889  0.00  0.00    +0.330 C 
ATOM     19  O   LIG    1       30.353 -17.650   8.869  0.00  0.00    -0.246 OA
BRANCH  18  20
ATOM     20  O   LIG    1       32.294 -18.196   7.865  0.00  0.00    -0.477 OA
ATOM     21  H   LIG    1       32.609 -18.860   8.514  0.00  0.00    +0.295 HD
ENDBRANCH  18  20
ENDBRANCH  17  18
ENDBRANCH  12  16
ENDBRANCH   1  10
BRANCH   2  22
ATOM     22  C   LIG    1       24.227 -24.128   5.456  0.00  0.00    +0.112 C 
BRANCH  22  23
ATOM     23  N   LIG    1       24.450 -25.579   5.547  0.00  0.00    -0.299 NA
ATOM     24  C   LIG    1       25.300 -26.099   4.475  0.00  0.00    +0.085 C 
ATOM     25  C   LIG    1       25.668 -27.476   4.994  0.00  0.00    +0.017 C 
ATOM     26  C   LIG    1       25.865 -27.260   6.485  0.00  0.00    +0.017 C 
ATOM     27  C   LIG    1       25.136 -25.952   6.796  0.00  0.00    +0.085 C 
ENDBRANCH  22  23
ENDBRANCH   2  22
TORSDOF 7
ENDMDL
MODEL 8
REMARK VINA RESULT:      -8.7      1.702      4.685
REMARK  Name = *****
REMARK                            x       y       z     vdW  Elec       q    Type
REMARK                         _______ _______ _______ _____ _____    ______ ____
ROOT
ATOM      1  C   LIG    1       25.718 -21.475   6.092  0.00  0.00    +0.005 C 
ATOM      2  C   LIG    1       25.167 -20.744   5.093  0.00  0.00    -0.001 C 
ENDROOT
BRANCH   1   7
ATOM      3  C   LIG    1       24.211 -27.037   6.324  0.00  0.00    +0.044 C 
ATOM      4  C   LIG    1       24.600 -25.593   6.447  0.00  0.00    -0.050 A 
ATOM      5  C   LIG    1       25.950 -25.223   6.491  0.00  0.00    +0.004 A 
ATOM      6  C   LIG    1       26.317 -23.877   6.424  0.00  0.00    +0.009 A 
ATOM      7  C   LIG    1       25.338 -22.883   6.303  0.00  0.00    -0.016 A 
ATOM      8  C   LIG    1       23.988 -23.249   6.332  0.00  0.00    +0.009 A 
ATOM      9  C   LIG    1       23.622 -24.594   6.399  0.00  0.00    +0.004 A 
ENDBRANCH   1   7
BRANCH   1  10
ATOM     10  C   LIG    1       26.707 -20.779   6.939  0.00  0.00    +0.072 A 
ATOM     11  N   LIG    1       27.883 -20.450   6.340  0.00  0.00    -0.247 NA
ATOM     12  C   LIG    1       28.862 -19.956   7.129  0.00  0.00    +0.065 A 
ATOM     13  C   LIG    1       28.692 -19.743   8.494  0.00  0.00    +0.028 A 
ATOM     14  C   LIG    1       27.462 -20.037   9.077  0.00  0.00    +0.004 A 
ATOM     15  C   LIG    1       26.449 -20.566   8.288  0.00  0.00    +0.028 A 
BRANCH  12  16
ATOM     16  C   LIG    1       30.152 -19.671   6.486  0.00  0.00    +0.035 C 
ATOM     17  C   LIG    1       31.293 -19.160   6.977  0.00  0.00    +0.093 C 
BRANCH  17  18
ATOM     18  C   LIG    1       31.744 -18.721   8.319  0.00  0.00    +0.330 C 
ATOM     19  O   LIG    1       32.019 -19.534   9.179  0.00  0.00    -0.246 OA
BRANCH  18  20
ATOM     20  O   LIG    1       31.693 -17.395   8.553  0.00  0.00    -0.477 OA
ATOM     21  H   LIG    1       32.039 -16.866   7.804  0.00  0.00    +0.295 HD
ENDBRANCH  18  20
ENDBRANCH  17  18
ENDBRANCH  12  16
ENDBRANCH   1  10
BRANCH   2  22
ATOM     22  C   LIG    1       24.153 -21.174   4.063  0.00  0.00    +0.112 C 
BRANCH  22  23
ATOM     23  N   LIG    1       23.206 -20.098   3.732  0.00  0.00    -0.299 NA
ATOM     24  C   LIG    1       22.143 -19.941   4.727  0.00  0.00    +0.085 C 
ATOM     25  C   LIG    1       21.560 -18.589   4.364  0.00  0.00    +0.017 C 
ATOM     26  C   LIG    1       22.775 -17.762   3.980  0.00  0.00    +0.017 C 
ATOM     27  C   LIG    1       23.868 -18.784   3.668  0.00  0.00    +0.085 C 
ENDBRANCH  22  23
ENDBRANCH   2  22
TORSDOF 7
ENDMDL
MODEL 9
REMARK VINA RESULT:      -8.7      4.630      7.828
REMARK  Name = *****
REMARK                            x       y       z     vdW  Elec       q    Type
REMARK                         _______ _______ _______ _____ _____    ______ ____
ROOT
ATOM      1  C   LIG    1       24.821 -23.113   6.401  0.00  0.00    +0.005 C 
ATOM      2  C   LIG    1       23.521 -22.739   6.324  0.00  0.00    -0.001 C 
ENDROOT
BRANCH   1   7
ATOM      3  C   LIG    1       29.313 -19.753   7.741  0.00  0.00    +0.044 C 
ATOM      4  C   LIG    1       28.039 -20.496   7.465  0.00  0.00    -0.050 A 
ATOM      5  C   LIG    1       27.372 -20.332   6.245  0.00  0.00    +0.004 A 
ATOM      6  C   LIG    1       26.290 -21.152   5.914  0.00  0.00    +0.009 A 
ATOM      7  C   LIG    1       25.868 -22.153   6.797  0.00  0.00    -0.016 A 
ATOM      8  C   LIG    1       26.488 -22.268   8.046  0.00  0.00    +0.009 A 
ATOM      9  C   LIG    1       27.569 -21.448   8.375  0.00  0.00    +0.004 A 
ENDBRANCH   1   7
BRANCH   1  10
ATOM     10  C   LIG    1       25.115 -24.520   6.066  0.00  0.00    +0.072 A 
ATOM     11  N   LIG    1       25.443 -25.328   7.111  0.00  0.00    -0.247 NA
ATOM     12  C   LIG    1       25.868 -26.576   6.818  0.00  0.00    +0.065 A 
ATOM     13  C   LIG    1       25.940 -27.059   5.515  0.00  0.00    +0.028 A 
ATOM     14  C   LIG    1       25.549 -26.233   4.464  0.00  0.00    +0.004 A 
ATOM     15  C   LIG    1       25.129 -24.940   4.742  0.00  0.00    +0.028 A 
BRANCH  12  16
ATOM     16  C   LIG    1       26.288 -27.417   7.948  0.00  0.00    +0.035 C 
ATOM     17  C   LIG    1       25.948 -28.668   8.295  0.00  0.00    +0.093 C 
BRANCH  17  18
ATOM     18  C   LIG    1       25.079 -29.713   7.703  0.00  0.00    +0.330 C 
ATOM     19  O   LIG    1       23.906 -29.795   8.011  0.00  0.00    -0.246 OA
BRANCH  18  20
ATOM     20  O   LIG    1       25.699 -30.626   6.930  0.00  0.00    -0.477 OA
ATOM     21  H   LIG    1       26.399 -30.231   6.368  0.00  0.00    +0.295 HD
ENDBRANCH  18  20
ENDBRANCH  17  18
ENDBRANCH  12  16
ENDBRANCH   1  10
BRANCH   2  22
ATOM     22  C   LIG    1       22.912 -21.390   6.618  0.00  0.00    +0.112 C 
BRANCH  22  23
ATOM     23  N   LIG    1       22.585 -20.649   5.390  0.00  0.00    -0.299 NA
ATOM     24  C   LIG    1       22.560 -19.198   5.584  0.00  0.00    +0.085 C 
ATOM     25  C   LIG    1       22.578 -18.683   4.157  0.00  0.00    +0.017 C 
ATOM     26  C   LIG    1       23.520 -19.635   3.440  0.00  0.00    +0.017 C 
ATOM     27  C   LIG    1       23.580 -20.878   4.329  0.00  0.00    +0.085 C 
ENDBRANCH  22  23
ENDBRANCH   2  22
TORSDOF 7
ENDMDL
