MODEL 1
REMARK VINA RESULT:      -7.6      0.000      0.000
REMARK  Name = *****
REMARK                            x       y       z     vdW  Elec       q    Type
REMARK                         _______ _______ _______ _____ _____    ______ ____
ROOT
ATOM      1  C   LIG    1       25.728 -21.075   6.679  0.00  0.00    +0.051 C 
ATOM      2  C   LIG    1       24.686 -20.360   5.830  0.00  0.00    -0.026 A 
ATOM      3  C   LIG    1       25.025 -19.787   4.592  0.00  0.00    +0.017 A 
ATOM      4  C   LIG    1       24.038 -19.175   3.810  0.00  0.00    +0.015 A 
ATOM      5  C   LIG    1       22.719 -19.109   4.258  0.00  0.00    +0.001 A 
ATOM      6  C   LIG    1       22.380 -19.650   5.495  0.00  0.00    +0.000 A 
ATOM      7  S   LIG    1       26.711 -19.766   4.005  0.00  0.00    -0.089 S 
ATOM      8  C   LIG    1       27.581 -19.715   5.564  0.00  0.00    +0.017 A 
ATOM      9  C   LIG    1       28.819 -19.064   5.617  0.00  0.00    +0.015 A 
ATOM     10  C   LIG    1       29.516 -18.970   6.820  0.00  0.00    +0.001 A 
ATOM     11  C   LIG    1       28.980 -19.528   7.979  0.00  0.00    +0.000 A 
ATOM     12  C   LIG    1       27.753 -20.191   7.934  0.00  0.00    +0.005 A 
ATOM     13  C   LIG    1       23.355 -20.270   6.276  0.00  0.00    +0.005 A 
ATOM     14  C   LIG    1       27.041 -20.295   6.728  0.00  0.00    -0.026 A 
ENDROOT
BRANCH   1  15
ATOM     15  C   LIG    1       26.021 -22.526   6.206  0.00  0.00    +0.017 C 
BRANCH  15  19
ATOM     16  C   LIG    1       25.246 -25.358   4.379  0.00  0.00    +0.105 C 
ATOM     17  N   LIG    1       25.050 -25.727   5.772  0.00  0.00    -0.305 NA
ATOM     18  C   LIG    1       25.986 -25.095   6.706  0.00  0.00    +0.087 C 
ATOM     19  C   LIG    1       25.660 -23.665   7.186  0.00  0.00    +0.004 C 
ATOM     20  C   LIG    1       24.180 -23.572   7.599  0.00  0.00    +0.006 C 
ATOM     21  C   LIG    1       23.250 -24.165   6.545  0.00  0.00    +0.016 C 
ATOM     22  C   LIG    1       23.658 -25.597   6.207  0.00  0.00    +0.084 C 
ENDBRANCH  15  19
ENDBRANCH   1  15
TORSDOF 2
ENDMDL
MODEL 2
REMARK VINA RESULT:      -7.0      0.751      1.429
REMARK  Name = *****
REMARK                            x       y       z     vdW  Elec       q    Type
REMARK                         _______ _______ _______ _____ _____    ______ ____
ROOT
ATOM      1  C   LIG    1       25.346 -21.257   6.824  0.00  0.00    +0.051 C 
ATOM      2  C   LIG    1       24.432 -20.467   5.897  0.00  0.00    -0.026 A 
ATOM      3  C   LIG    1       24.906 -19.943   4.681  0.00  0.00    +0.017 A 
ATOM      4  C   LIG    1       24.034 -19.260   3.826  0.00  0.00    +0.015 A 
ATOM      5  C   LIG    1       22.698 -19.073   4.179  0.00  0.00    +0.001 A 
ATOM      6  C   LIG    1       22.227 -19.564   5.393  0.00  0.00    +0.000 A 
ATOM      7  S   LIG    1       26.624 -20.077   4.215  0.00  0.00    -0.089 S 
ATOM      8  C   LIG    1       27.384 -20.080   5.832  0.00  0.00    +0.017 A 
ATOM      9  C   LIG    1       28.668 -19.539   5.967  0.00  0.00    +0.015 A 
ATOM     10  C   LIG    1       29.285 -19.488   7.215  0.00  0.00    +0.001 A 
ATOM     11  C   LIG    1       28.623 -19.980   8.338  0.00  0.00    +0.000 A 
ATOM     12  C   LIG    1       27.348 -20.535   8.212  0.00  0.00    +0.005 A 
ATOM     13  C   LIG    1       23.086 -20.255   6.246  0.00  0.00    +0.005 A 
ATOM     14  C   LIG    1       26.716 -20.594   6.959  0.00  0.00    -0.026 A 
ENDROOT
BRANCH   1  15
ATOM     15  C   LIG    1       25.543 -22.735   6.384  0.00  0.00    +0.017 C 
BRANCH  15  19
ATOM     16  C   LIG    1       25.822 -26.064   7.279  0.00  0.00    +0.105 C 
ATOM     17  N   LIG    1       24.573 -25.962   6.542  0.00  0.00    -0.305 NA
ATOM     18  C   LIG    1       23.852 -24.701   6.739  0.00  0.00    +0.087 C 
ATOM     19  C   LIG    1       24.288 -23.489   5.890  0.00  0.00    +0.004 C 
ATOM     20  C   LIG    1       24.456 -23.910   4.418  0.00  0.00    +0.006 C 
ATOM     21  C   LIG    1       25.292 -25.178   4.274  0.00  0.00    +0.016 C 
ATOM     22  C   LIG    1       24.715 -26.306   5.126  0.00  0.00    +0.084 C 
ENDBRANCH  15  19
ENDBRANCH   1  15
TORSDOF 2
ENDMDL
MODEL 3
REMARK VINA RESULT:      -6.8      2.176      5.392
REMARK  Name = *****
REMARK                            x       y       z     vdW  Elec       q    Type
REMARK                         _______ _______ _______ _____ _____    ______ ____
ROOT
ATOM      1  C   LIG    1       25.641 -21.507   5.395  0.00  0.00    +0.051 C 
ATOM      2  C   LIG    1       24.614 -20.455   4.998  0.00  0.00    -0.026 A 
ATOM      3  C   LIG    1       23.415 -20.302   5.717  0.00  0.00    +0.017 A 
ATOM      4  C   LIG    1       22.508 -19.298   5.359  0.00  0.00    +0.015 A 
ATOM      5  C   LIG    1       22.772 -18.457   4.278  0.00  0.00    +0.001 A 
ATOM      6  C   LIG    1       23.943 -18.620   3.544  0.00  0.00    +0.000 A 
ATOM      7  S   LIG    1       22.983 -21.401   7.055  0.00  0.00    -0.089 S 
ATOM      8  C   LIG    1       23.807 -22.891   6.511  0.00  0.00    +0.017 A 
ATOM      9  C   LIG    1       23.253 -24.126   6.864  0.00  0.00    +0.015 A 
ATOM     10  C   LIG    1       23.842 -25.313   6.431  0.00  0.00    +0.001 A 
ATOM     11  C   LIG    1       24.991 -25.272   5.644  0.00  0.00    +0.000 A 
ATOM     12  C   LIG    1       25.559 -24.044   5.298  0.00  0.00    +0.005 A 
ATOM     13  C   LIG    1       24.857 -19.611   3.899  0.00  0.00    +0.005 A 
ATOM     14  C   LIG    1       24.977 -22.841   5.729  0.00  0.00    -0.026 A 
ENDROOT
BRANCH   1  15
ATOM     15  C   LIG    1       26.536 -21.076   6.591  0.00  0.00    +0.017 C 
BRANCH  15  19
ATOM     16  C   LIG    1       28.169 -19.400   9.137  0.00  0.00    +0.105 C 
ATOM     17  N   LIG    1       29.219 -20.007   8.333  0.00  0.00    -0.305 NA
ATOM     18  C   LIG    1       28.868 -21.308   7.757  0.00  0.00    +0.087 C 
ATOM     19  C   LIG    1       28.056 -21.312   6.444  0.00  0.00    +0.004 C 
ATOM     20  C   LIG    1       28.664 -20.309   5.446  0.00  0.00    +0.006 C 
ATOM     21  C   LIG    1       28.922 -18.947   6.083  0.00  0.00    +0.016 C 
ATOM     22  C   LIG    1       29.779 -19.091   7.339  0.00  0.00    +0.084 C 
ENDBRANCH  15  19
ENDBRANCH   1  15
TORSDOF 2
ENDMDL
MODEL 4
REMARK VINA RESULT:      -6.7      1.479      4.287
REMARK  Name = *****
REMARK                            x       y       z     vdW  Elec       q    Type
REMARK                         _______ _______ _______ _____ _____    ______ ____
ROOT
ATOM      1  C   LIG    1       25.561 -21.388   5.088  0.00  0.00    +0.051 C 
ATOM      2  C   LIG    1       26.245 -20.992   6.389  0.00  0.00    -0.026 A 
ATOM      3  C   LIG    1       25.497 -20.671   7.536  0.00  0.00    +0.017 A 
ATOM      4  C   LIG    1       26.152 -20.353   8.732  0.00  0.00    +0.015 A 
ATOM      5  C   LIG    1       27.545 -20.331   8.793  0.00  0.00    +0.001 A 
ATOM      6  C   LIG    1       28.293 -20.621   7.655  0.00  0.00    +0.000 A 
ATOM      7  S   LIG    1       23.714 -20.600   7.497  0.00  0.00    -0.089 S 
ATOM      8  C   LIG    1       23.461 -20.117   5.795  0.00  0.00    +0.017 A 
ATOM      9  C   LIG    1       22.338 -19.343   5.481  0.00  0.00    +0.015 A 
ATOM     10  C   LIG    1       22.120 -18.914   4.173  0.00  0.00    +0.001 A 
ATOM     11  C   LIG    1       23.023 -19.258   3.169  0.00  0.00    +0.000 A 
ATOM     12  C   LIG    1       24.139 -20.042   3.470  0.00  0.00    +0.005 A 
ATOM     13  C   LIG    1       27.649 -20.947   6.462  0.00  0.00    +0.005 A 
ATOM     14  C   LIG    1       24.369 -20.482   4.783  0.00  0.00    -0.026 A 
ENDROOT
BRANCH   1  15
ATOM     15  C   LIG    1       25.087 -22.868   5.065  0.00  0.00    +0.017 C 
BRANCH  15  19
ATOM     16  C   LIG    1       25.724 -26.175   4.279  0.00  0.00    +0.105 C 
ATOM     17  N   LIG    1       25.667 -26.124   5.731  0.00  0.00    -0.305 NA
ATOM     18  C   LIG    1       26.188 -24.886   6.317  0.00  0.00    +0.087 C 
ATOM     19  C   LIG    1       25.241 -23.670   6.378  0.00  0.00    +0.004 C 
ATOM     20  C   LIG    1       23.862 -24.102   6.911  0.00  0.00    +0.006 C 
ATOM     21  C   LIG    1       23.333 -25.342   6.199  0.00  0.00    +0.016 C 
ATOM     22  C   LIG    1       24.350 -26.479   6.264  0.00  0.00    +0.084 C 
ENDBRANCH  15  19
ENDBRANCH   1  15
TORSDOF 2
ENDMDL
MODEL 5
REMARK VINA RESULT:      -6.4      2.205      4.958
REMARK  Name = *****
REMARK                            x       y       z     vdW  Elec       q    Type
REMARK                         _______ _______ _______ _____ _____    ______ ____
ROOT
ATOM      1  C   LIG    1       25.543 -21.701   5.559  0.00  0.00    +0.051 C 
ATOM      2  C   LIG    1       25.443 -23.188   5.868  0.00  0.00    -0.026 A 
ATOM      3  C   LIG    1       25.646 -23.675   7.172  0.00  0.00    +0.017 A 
ATOM      4  C   LIG    1       25.503 -25.042   7.438  0.00  0.00    +0.015 A 
ATOM      5  C   LIG    1       25.183 -25.933   6.414  0.00  0.00    +0.001 A 
ATOM      6  C   LIG    1       25.008 -25.463   5.116  0.00  0.00    +0.000 A 
ATOM      7  S   LIG    1       26.140 -22.595   8.504  0.00  0.00    -0.089 S 
ATOM      8  C   LIG    1       27.064 -21.372   7.585  0.00  0.00    +0.017 A 
ATOM      9  C   LIG    1       28.131 -20.727   8.219  0.00  0.00    +0.015 A 
ATOM     10  C   LIG    1       28.901 -19.792   7.529  0.00  0.00    +0.001 A 
ATOM     11  C   LIG    1       28.606 -19.494   6.200  0.00  0.00    +0.000 A 
ATOM     12  C   LIG    1       27.534 -20.122   5.563  0.00  0.00    +0.005 A 
ATOM     13  C   LIG    1       25.138 -24.102   4.844  0.00  0.00    +0.005 A 
ATOM     14  C   LIG    1       26.749 -21.065   6.248  0.00  0.00    -0.026 A 
ENDROOT
BRANCH   1  15
ATOM     15  C   LIG    1       24.266 -20.903   5.943  0.00  0.00    +0.017 C 
BRANCH  15  19
ATOM     16  C   LIG    1       25.190 -18.631   3.505  0.00  0.00    +0.105 C 
ATOM     17  N   LIG    1       23.865 -19.095   3.123  0.00  0.00    -0.305 NA
ATOM     18  C   LIG    1       23.597 -20.499   3.444  0.00  0.00    +0.087 C 
ATOM     19  C   LIG    1       23.144 -20.830   4.882  0.00  0.00    +0.004 C 
ATOM     20  C   LIG    1       22.044 -19.847   5.326  0.00  0.00    +0.006 C 
ATOM     21  C   LIG    1       22.421 -18.396   5.048  0.00  0.00    +0.016 C 
ATOM     22  C   LIG    1       22.795 -18.206   3.579  0.00  0.00    +0.084 C 
ENDBRANCH  15  19
ENDBRANCH   1  15
TORSDOF 2
ENDMDL
MODEL 6
REMARK VINA RESULT:      -6.0      1.578      2.438
REMARK  Name = *****
REMARK                            x       y       z     vdW  Elec       q    Type
REMARK                         _______ _______ _______ _____ _____    ______ ____
ROOT
ATOM      1  C   LIG    1       25.202 -22.876   6.855  0.00  0.00    +0.051 C 
ATOM      2  C   LIG    1       24.003 -22.225   6.180  0.00  0.00    -0.026 A 
ATOM      3  C   LIG    1       24.169 -21.327   5.110  0.00  0.00    +0.017 A 
ATOM      4  C   LIG    1       23.048 -20.777   4.478  0.00  0.00    +0.015 A 
ATOM      5  C   LIG    1       21.762 -21.094   4.914  0.00  0.00    +0.001 A 
ATOM      6  C   LIG    1       21.589 -21.960   5.990  0.00  0.00    +0.000 A 
ATOM      7  S   LIG    1       25.790 -20.819   4.563  0.00  0.00    -0.089 S 
ATOM      8  C   LIG    1       26.689 -20.940   6.103  0.00  0.00    +0.017 A 
ATOM      9  C   LIG    1       27.765 -20.072   6.318  0.00  0.00    +0.015 A 
ATOM     10  C   LIG    1       28.472 -20.107   7.518  0.00  0.00    +0.001 A 
ATOM     11  C   LIG    1       28.108 -21.013   8.512  0.00  0.00    +0.000 A 
ATOM     12  C   LIG    1       27.044 -21.893   8.303  0.00  0.00    +0.005 A 
ATOM     13  C   LIG    1       22.700 -22.520   6.620  0.00  0.00    +0.005 A 
ATOM     14  C   LIG    1       26.325 -21.869   7.096  0.00  0.00    -0.026 A 
ENDROOT
BRANCH   1  15
ATOM     15  C   LIG    1       25.773 -24.087   6.066  0.00  0.00    +0.017 C 
BRANCH  15  19
ATOM     16  C   LIG    1       26.106 -27.145   7.646  0.00  0.00    +0.105 C 
ATOM     17  N   LIG    1       25.072 -27.336   6.641  0.00  0.00    -0.305 NA
ATOM     18  C   LIG    1       24.220 -26.165   6.416  0.00  0.00    +0.087 C 
ATOM     19  C   LIG    1       24.747 -25.072   5.462  0.00  0.00    +0.004 C 
ATOM     20  C   LIG    1       25.307 -25.716   4.180  0.00  0.00    +0.006 C 
ATOM     21  C   LIG    1       26.257 -26.870   4.483  0.00  0.00    +0.016 C 
ATOM     22  C   LIG    1       25.586 -27.899   5.391  0.00  0.00    +0.084 C 
ENDBRANCH  15  19
ENDBRANCH   1  15
TORSDOF 2
ENDMDL
MODEL 7
REMARK VINA RESULT:      -5.8      6.718     10.105
REMARK  Name = *****
REMARK                            x       y       z     vdW  Elec       q    Type
REMARK                         _______ _______ _______ _____ _____    ______ ____
ROOT
ATOM      1  C   LIG    1       25.476 -29.794   8.668  0.00  0.00    +0.051 C 
ATOM      2  C   LIG    1       25.330 -28.861   7.474  0.00  0.00    -0.026 A 
ATOM      3  C   LIG    1       24.719 -29.294   6.283  0.00  0.00    +0.017 A 
ATOM      4  C   LIG    1       24.557 -28.403   5.216  0.00  0.00    +0.015 A 
ATOM      5  C   LIG    1       25.016 -27.090   5.313  0.00  0.00    +0.001 A 
ATOM      6  C   LIG    1       25.647 -26.661   6.478  0.00  0.00    +0.000 A 
ATOM      7  S   LIG    1       24.187 -30.984   6.069  0.00  0.00    -0.089 S 
ATOM      8  C   LIG    1       25.376 -31.817   7.111  0.00  0.00    +0.017 A 
ATOM      9  C   LIG    1       25.761 -33.120   6.775  0.00  0.00    +0.015 A 
ATOM     10  C   LIG    1       26.711 -33.795   7.540  0.00  0.00    +0.001 A 
ATOM     11  C   LIG    1       27.281 -33.171   8.647  0.00  0.00    +0.000 A 
ATOM     12  C   LIG    1       26.894 -31.877   8.999  0.00  0.00    +0.005 A 
ATOM     13  C   LIG    1       25.804 -27.539   7.549  0.00  0.00    +0.005 A 
ATOM     14  C   LIG    1       25.935 -31.187   8.238  0.00  0.00    -0.026 A 
ENDROOT
BRANCH   1  15
ATOM     15  C   LIG    1       24.176 -29.930   9.508  0.00  0.00    +0.017 C 
BRANCH  15  19
ATOM     16  C   LIG    1       21.108 -31.140  10.550  0.00  0.00    +0.105 C 
ATOM     17  N   LIG    1       22.008 -31.338  11.675  0.00  0.00    -0.305 NA
ATOM     18  C   LIG    1       23.386 -31.667  11.301  0.00  0.00    +0.087 C 
ATOM     19  C   LIG    1       24.326 -30.498  10.938  0.00  0.00    +0.004 C 
ATOM     20  C   LIG    1       24.194 -29.372  11.981  0.00  0.00    +0.006 C 
ATOM     21  C   LIG    1       22.738 -29.014  12.261  0.00  0.00    +0.016 C 
ATOM     22  C   LIG    1       21.942 -30.255  12.658  0.00  0.00    +0.084 C 
ENDBRANCH  15  19
ENDBRANCH   1  15
TORSDOF 2
ENDMDL
MODEL 8
REMARK VINA RESULT:      -5.8      5.652      9.521
REMARK  Name = *****
REMARK                            x       y       z     vdW  Elec       q    Type
REMARK                         _______ _______ _______ _____ _____    ______ ____
ROOT
ATOM      1  C   LIG    1       26.048 -29.368   8.360  0.00  0.00    +0.051 C 
ATOM      2  C   LIG    1       25.454 -30.715   7.970  0.00  0.00    -0.026 A 
ATOM      3  C   LIG    1       24.237 -31.159   8.519  0.00  0.00    +0.017 A 
ATOM      4  C   LIG    1       23.690 -32.381   8.110  0.00  0.00    +0.015 A 
ATOM      5  C   LIG    1       24.353 -33.176   7.175  0.00  0.00    +0.001 A 
ATOM      6  C   LIG    1       25.571 -32.757   6.648  0.00  0.00    +0.000 A 
ATOM      7  S   LIG    1       23.387 -30.225   9.780  0.00  0.00    -0.089 S 
ATOM      8  C   LIG    1       24.781 -29.440  10.577  0.00  0.00    +0.017 A 
ATOM      9  C   LIG    1       24.692 -29.150  11.943  0.00  0.00    +0.015 A 
ATOM     10  C   LIG    1       25.768 -28.570  12.613  0.00  0.00    +0.001 A 
ATOM     11  C   LIG    1       26.940 -28.274  11.919  0.00  0.00    +0.000 A 
ATOM     12  C   LIG    1       27.033 -28.547  10.553  0.00  0.00    +0.005 A 
ATOM     13  C   LIG    1       26.118 -31.537   7.043  0.00  0.00    +0.005 A 
ATOM     14  C   LIG    1       25.955 -29.129   9.866  0.00  0.00    -0.026 A 
ENDROOT
BRANCH   1  15
ATOM     15  C   LIG    1       25.396 -28.167   7.619  0.00  0.00    +0.017 C 
BRANCH  15  19
ATOM     16  C   LIG    1       25.900 -24.784   7.115  0.00  0.00    +0.105 C 
ATOM     17  N   LIG    1       26.133 -25.410   5.823  0.00  0.00    -0.305 NA
ATOM     18  C   LIG    1       26.748 -26.738   5.893  0.00  0.00    +0.087 C 
ATOM     19  C   LIG    1       25.818 -27.942   6.150  0.00  0.00    +0.004 C 
ATOM     20  C   LIG    1       24.578 -27.854   5.240  0.00  0.00    +0.006 C 
ATOM     21  C   LIG    1       23.931 -26.474   5.280  0.00  0.00    +0.016 C 
ATOM     22  C   LIG    1       24.954 -25.387   4.955  0.00  0.00    +0.084 C 
ENDBRANCH  15  19
ENDBRANCH   1  15
TORSDOF 2
ENDMDL
MODEL 9
REMARK VINA RESULT:      -5.6      2.233      5.762
REMARK  Name = *****
REMARK                            x       y       z     vdW  Elec       q    Type
REMARK                         _______ _______ _______ _____ _____    ______ ____
ROOT
ATOM      1  C   LIG    1       25.715 -23.112   7.306  0.00  0.00    +0.051 C 
ATOM      2  C   LIG    1       25.536 -24.468   6.638  0.00  0.00    -0.026 A 
ATOM      3  C   LIG    1       25.218 -24.569   5.272  0.00  0.00    +0.017 A 
ATOM      4  C   LIG    1       25.103 -25.829   4.671  0.00  0.00    +0.015 A 
ATOM      5  C   LIG    1       25.281 -26.990   5.422  0.00  0.00    +0.001 A 
ATOM      6  C   LIG    1       25.569 -26.899   6.781  0.00  0.00    +0.000 A 
ATOM      7  S   LIG    1       24.896 -23.121   4.279  0.00  0.00    -0.089 S 
ATOM      8  C   LIG    1       24.231 -22.030   5.530  0.00  0.00    +0.017 A 
ATOM      9  C   LIG    1       23.284 -21.075   5.147  0.00  0.00    +0.015 A 
ATOM     10  C   LIG    1       22.713 -20.227   6.094  0.00  0.00    +0.001 A 
ATOM     11  C   LIG    1       23.089 -20.328   7.432  0.00  0.00    +0.000 A 
ATOM     12  C   LIG    1       24.044 -21.269   7.823  0.00  0.00    +0.005 A 
ATOM     13  C   LIG    1       25.694 -25.649   7.385  0.00  0.00    +0.005 A 
ATOM     14  C   LIG    1       24.628 -22.128   6.877  0.00  0.00    -0.026 A 
ENDROOT
BRANCH   1  15
ATOM     15  C   LIG    1       27.106 -22.471   7.042  0.00  0.00    +0.017 C 
BRANCH  15  19
ATOM     16  C   LIG    1       28.216 -19.644   5.389  0.00  0.00    +0.105 C 
ATOM     17  N   LIG    1       28.468 -19.395   6.800  0.00  0.00    -0.305 NA
ATOM     18  C   LIG    1       27.467 -19.965   7.706  0.00  0.00    +0.087 C 
ATOM     19  C   LIG    1       27.615 -21.453   8.087  0.00  0.00    +0.004 C 
ATOM     20  C   LIG    1       29.076 -21.757   8.470  0.00  0.00    +0.006 C 
ATOM     21  C   LIG    1       30.064 -21.216   7.442  0.00  0.00    +0.016 C 
ATOM     22  C   LIG    1       29.836 -19.725   7.203  0.00  0.00    +0.084 C 
ENDBRANCH  15  19
ENDBRANCH   1  15
TORSDOF 2
ENDMDL
