MODEL 1
REMARK VINA RESULT:       3.0      0.000      0.000
REMARK  Name = *****
REMARK                            x       y       z     vdW  Elec       q    Type
REMARK                         _______ _______ _______ _____ _____    ______ ____
ROOT
ATOM      1  C   LIG    1       26.467 -19.845   5.187  0.00  0.00    +0.008 C 
ATOM      2  C   LIG    1       25.188 -19.751   4.358  0.00  0.00    -0.003 C 
ATOM      3  C   LIG    1       24.061 -19.014   5.115  0.00  0.00    +0.067 C 
ATOM      4  C   LIG    1       23.303 -18.230   4.012  0.00  0.00    -0.017 C 
ATOM      5  C   LIG    1       24.461 -17.748   3.101  0.00  0.00    +0.002 C 
ATOM      6  C   LIG    1       25.225 -16.483   3.598  0.00  0.00    +0.034 C 
ATOM      7  C   LIG    1       24.299 -15.332   4.069  0.00  0.00    +0.153 C 
ATOM      8  C   LIG    1       23.295 -15.899   5.110  0.00  0.00    +0.153 C 
ATOM      9  F   LIG    1       23.540 -14.971   2.972  0.00  0.00    -0.238 F 
ATOM     10  C   LIG    1       25.103 -14.028   4.525  0.00  0.00    +0.044 C 
ATOM     11  C   LIG    1       26.281 -13.688   3.565  0.00  0.00    -0.053 C 
ATOM     12  C   LIG    1       27.080 -12.636   3.871  0.00  0.00    +0.051 C 
ATOM     13  C   LIG    1       27.680 -12.792   5.249  0.00  0.00    +0.179 C 
ATOM     14  C   LIG    1       26.909 -13.594   6.243  0.00  0.00    +0.047 C 
ATOM     15  O   LIG    1       28.718 -12.223   5.559  0.00  0.00    -0.288 OA
ATOM     16  C   LIG    1       27.024 -14.855   2.948  0.00  0.00    +0.032 C 
ATOM     17  C   LIG    1       24.135 -12.810   4.551  0.00  0.00    +0.023 C 
ATOM     18  C   LIG    1       25.721 -14.138   5.923  0.00  0.00    -0.009 C 
ATOM     19  C   LIG    1       26.114 -15.960   2.457  0.00  0.00    +0.011 C 
ATOM     20  C   LIG    1       22.348 -19.148   3.209  0.00  0.00    +0.012 C 
ATOM     21  C   LIG    1       22.474 -17.053   4.533  0.00  0.00    +0.042 C 
ATOM     22  C   LIG    1       25.397 -18.974   3.046  0.00  0.00    +0.008 C 
ENDROOT
BRANCH   3  23
ATOM     23  C   LIG    1       23.199 -19.980   5.930  0.00  0.00    +0.162 C 
ATOM     24  O   LIG    1       22.732 -19.688   7.034  0.00  0.00    -0.295 OA
BRANCH  23  25
ATOM     25  C   LIG    1       22.954 -21.364   5.340  0.00  0.00    +0.230 C 
BRANCH  25  26
ATOM     26  O   LIG    1       21.578 -21.571   5.060  0.00  0.00    -0.388 OA
ATOM     27  H   LIG    1       21.087 -20.912   5.594  0.00  0.00    +0.210 HD
ENDBRANCH  25  26
ENDBRANCH  23  25
ENDBRANCH   3  23
BRANCH   8  28
ATOM     28  O   LIG    1       22.355 -14.929   5.569  0.00  0.00    -0.389 OA
ATOM     29  H   LIG    1       21.781 -14.703   4.812  0.00  0.00    +0.210 HD
ENDBRANCH   8  28
TORSDOF 4
ENDMDL
MODEL 2
REMARK VINA RESULT:       4.5      1.241      1.471
REMARK  Name = *****
REMARK                            x       y       z     vdW  Elec       q    Type
REMARK                         _______ _______ _______ _____ _____    ______ ____
ROOT
ATOM      1  C   LIG    1       26.505 -20.026   6.958  0.00  0.00    +0.008 C 
ATOM      2  C   LIG    1       25.796 -20.360   5.648  0.00  0.00    -0.003 C 
ATOM      3  C   LIG    1       24.437 -19.635   5.526  0.00  0.00    +0.067 C 
ATOM      4  C   LIG    1       24.311 -19.304   4.015  0.00  0.00    -0.017 C 
ATOM      5  C   LIG    1       25.763 -18.906   3.647  0.00  0.00    +0.002 C 
ATOM      6  C   LIG    1       26.177 -17.450   4.021  0.00  0.00    +0.034 C 
ATOM      7  C   LIG    1       25.130 -16.376   3.626  0.00  0.00    +0.153 C 
ATOM      8  C   LIG    1       23.749 -16.796   4.200  0.00  0.00    +0.153 C 
ATOM      9  F   LIG    1       25.003 -16.446   2.252  0.00  0.00    -0.238 F 
ATOM     10  C   LIG    1       25.599 -14.888   3.973  0.00  0.00    +0.044 C 
ATOM     11  C   LIG    1       27.094 -14.635   3.617  0.00  0.00    -0.053 C 
ATOM     12  C   LIG    1       27.633 -13.427   3.916  0.00  0.00    +0.051 C 
ATOM     13  C   LIG    1       27.482 -13.113   5.386  0.00  0.00    +0.179 C 
ATOM     14  C   LIG    1       26.329 -13.732   6.102  0.00  0.00    +0.047 C 
ATOM     15  O   LIG    1       28.231 -12.326   5.948  0.00  0.00    -0.288 OA
ATOM     16  C   LIG    1       28.052 -15.791   3.811  0.00  0.00    +0.032 C 
ATOM     17  C   LIG    1       24.733 -13.875   3.168  0.00  0.00    +0.023 C 
ATOM     18  C   LIG    1       25.453 -14.521   5.454  0.00  0.00    -0.009 C 
ATOM     19  C   LIG    1       27.507 -17.117   3.325  0.00  0.00    +0.011 C 
ATOM     20  C   LIG    1       23.878 -20.542   3.191  0.00  0.00    +0.012 C 
ATOM     21  C   LIG    1       23.324 -18.177   3.698  0.00  0.00    +0.042 C 
ATOM     22  C   LIG    1       26.615 -19.939   4.415  0.00  0.00    +0.008 C 
ENDROOT
BRANCH   3  23
ATOM     23  C   LIG    1       23.293 -20.472   6.102  0.00  0.00    +0.162 C 
ATOM     24  O   LIG    1       23.447 -21.251   7.046  0.00  0.00    -0.295 OA
BRANCH  23  25
ATOM     25  C   LIG    1       21.928 -20.339   5.437  0.00  0.00    +0.230 C 
BRANCH  25  26
ATOM     26  O   LIG    1       21.503 -21.572   4.876  0.00  0.00    -0.388 OA
ATOM     27  H   LIG    1       22.192 -21.830   4.229  0.00  0.00    +0.210 HD
ENDBRANCH  25  26
ENDBRANCH  23  25
ENDBRANCH   3  23
BRANCH   8  28
ATOM     28  O   LIG    1       22.699 -15.900   3.845  0.00  0.00    -0.389 OA
ATOM     29  H   LIG    1       22.370 -15.499   4.673  0.00  0.00    +0.210 HD
ENDBRANCH   8  28
TORSDOF 4
ENDMDL
MODEL 3
REMARK VINA RESULT:       5.8      1.864      6.790
REMARK  Name = *****
REMARK                            x       y       z     vdW  Elec       q    Type
REMARK                         _______ _______ _______ _____ _____    ______ ____
ROOT
ATOM      1  C   LIG    1       23.968 -13.841   5.963  0.00  0.00    +0.008 C 
ATOM      2  C   LIG    1       24.710 -13.856   4.628  0.00  0.00    -0.003 C 
ATOM      3  C   LIG    1       26.087 -14.548   4.741  0.00  0.00    +0.067 C 
ATOM      4  C   LIG    1       26.266 -15.273   3.381  0.00  0.00    -0.017 C 
ATOM      5  C   LIG    1       24.835 -15.797   3.101  0.00  0.00    +0.002 C 
ATOM      6  C   LIG    1       24.440 -17.108   3.847  0.00  0.00    +0.034 C 
ATOM      7  C   LIG    1       25.520 -18.219   3.785  0.00  0.00    +0.153 C 
ATOM      8  C   LIG    1       26.874 -17.620   4.255  0.00  0.00    +0.153 C 
ATOM      9  F   LIG    1       25.688 -18.521   2.447  0.00  0.00    -0.238 F 
ATOM     10  C   LIG    1       25.072 -19.569   4.512  0.00  0.00    +0.044 C 
ATOM     11  C   LIG    1       23.594 -19.951   4.203  0.00  0.00    -0.053 C 
ATOM     12  C   LIG    1       23.071 -21.048   4.806  0.00  0.00    +0.051 C 
ATOM     13  C   LIG    1       23.183 -20.946   6.310  0.00  0.00    +0.179 C 
ATOM     14  C   LIG    1       24.301 -20.123   6.858  0.00  0.00    +0.047 C 
ATOM     15  O   LIG    1       22.433 -21.572   7.047  0.00  0.00    -0.288 OA
ATOM     16  C   LIG    1       22.607 -18.813   4.052  0.00  0.00    +0.032 C 
ATOM     17  C   LIG    1       25.983 -20.737   4.035  0.00  0.00    +0.023 C 
ATOM     18  C   LIG    1       25.179 -19.515   6.041  0.00  0.00    -0.009 C 
ATOM     19  C   LIG    1       23.139 -17.655   3.236  0.00  0.00    +0.011 C 
ATOM     20  C   LIG    1       26.698 -14.294   2.261  0.00  0.00    +0.012 C 
ATOM     21  C   LIG    1       27.285 -16.416   3.407  0.00  0.00    +0.042 C 
ATOM     22  C   LIG    1       23.938 -14.619   3.538  0.00  0.00    +0.008 C 
ENDROOT
BRANCH   3  23
ATOM     23  C   LIG    1       27.195 -13.554   5.094  0.00  0.00    +0.162 C 
ATOM     24  O   LIG    1       27.214 -12.927   6.157  0.00  0.00    -0.295 OA
BRANCH  23  25
ATOM     25  C   LIG    1       28.287 -13.327   4.055  0.00  0.00    +0.230 C 
BRANCH  25  26
ATOM     26  O   LIG    1       29.156 -12.273   4.439  0.00  0.00    -0.388 OA
ATOM     27  H   LIG    1       28.641 -11.698   5.043  0.00  0.00    +0.210 HD
ENDBRANCH  25  26
ENDBRANCH  23  25
ENDBRANCH   3  23
BRANCH   8  28
ATOM     28  O   LIG    1       27.953 -18.549   4.183  0.00  0.00    -0.389 OA
ATOM     29  H   LIG    1       28.684 -18.183   4.718  0.00  0.00    +0.210 HD
ENDBRANCH   8  28
TORSDOF 4
ENDMDL
