MODEL 1
REMARK VINA RESULT:      -6.2      0.000      0.000
REMARK  Name = *****
REMARK                            x       y       z     vdW  Elec       q    Type
REMARK                         _______ _______ _______ _____ _____    ______ ____
ROOT
ATOM      1  C   LIG    1       24.933 -19.702   3.850  0.00  0.00    +0.027 C 
ATOM      2  C   LIG    1       24.793 -21.106   4.457  0.00  0.00    +0.084 C 
ATOM      3  C   LIG    1       25.304 -21.200   5.930  0.00  0.00    +0.165 C 
ATOM      4  O   LIG    1       24.451 -20.445   6.813  0.00  0.00    -0.369 OA
ATOM      5  C   LIG    1       23.107 -20.935   6.754  0.00  0.00    +0.176 C 
ATOM      6  C   LIG    1       22.539 -20.862   5.329  0.00  0.00    +0.109 C 
ATOM      7  N   LIG    1       23.379 -21.561   4.339  0.00  0.00    -0.309 NA
ATOM      8  H   LIG    1       23.352 -22.560   4.550  0.00  0.00    +0.122 HD
ENDROOT
BRANCH   3   9
ATOM      9  C   LIG    1       26.754 -20.777   6.093  0.00  0.00    -0.017 A 
ATOM     10  C   LIG    1       27.278 -19.657   5.429  0.00  0.00    +0.006 A 
ATOM     11  C   LIG    1       28.619 -19.299   5.581  0.00  0.00    +0.000 A 
ATOM     12  C   LIG    1       29.456 -20.057   6.397  0.00  0.00    +0.000 A 
ATOM     13  C   LIG    1       28.953 -21.173   7.062  0.00  0.00    +0.000 A 
ATOM     14  C   LIG    1       27.612 -21.532   6.911  0.00  0.00    +0.006 A 
ENDBRANCH   3   9
TORSDOF 1
ENDMDL
MODEL 2
REMARK VINA RESULT:      -3.5      6.242      7.400
REMARK  Name = *****
REMARK                            x       y       z     vdW  Elec       q    Type
REMARK                         _______ _______ _______ _____ _____    ______ ____
ROOT
ATOM      1  C   LIG    1       23.461 -14.121   4.427  0.00  0.00    +0.027 C 
ATOM      2  C   LIG    1       24.637 -13.133   4.414  0.00  0.00    +0.084 C 
ATOM      3  C   LIG    1       25.739 -13.493   3.367  0.00  0.00    +0.165 C 
ATOM      4  O   LIG    1       25.239 -13.326   2.026  0.00  0.00    -0.369 OA
ATOM      5  C   LIG    1       24.817 -11.975   1.812  0.00  0.00    +0.176 C 
ATOM      6  C   LIG    1       23.723 -11.558   2.806  0.00  0.00    +0.109 C 
ATOM      7  N   LIG    1       24.123 -11.749   4.213  0.00  0.00    -0.309 NA
ATOM      8  H   LIG    1       24.884 -11.100   4.417  0.00  0.00    +0.122 HD
ENDROOT
BRANCH   3   9
ATOM      9  C   LIG    1       26.317 -14.885   3.554  0.00  0.00    -0.017 A 
ATOM     10  C   LIG    1       25.629 -16.035   3.136  0.00  0.00    +0.006 A 
ATOM     11  C   LIG    1       26.173 -17.305   3.336  0.00  0.00    +0.000 A 
ATOM     12  C   LIG    1       27.411 -17.444   3.958  0.00  0.00    +0.000 A 
ATOM     13  C   LIG    1       28.107 -16.314   4.380  0.00  0.00    +0.000 A 
ATOM     14  C   LIG    1       27.564 -15.043   4.182  0.00  0.00    +0.006 A 
ENDBRANCH   3   9
TORSDOF 1
ENDMDL
MODEL 3
REMARK VINA RESULT:      -3.5      2.901      4.591
REMARK  Name = *****
REMARK                            x       y       z     vdW  Elec       q    Type
REMARK                         _______ _______ _______ _____ _____    ______ ____
ROOT
ATOM      1  C   LIG    1       22.584 -18.970   4.810  0.00  0.00    +0.027 C 
ATOM      2  C   LIG    1       23.456 -19.473   3.651  0.00  0.00    +0.084 C 
ATOM      3  C   LIG    1       24.922 -18.931   3.696  0.00  0.00    +0.165 C 
ATOM      4  O   LIG    1       25.633 -19.485   4.821  0.00  0.00    -0.369 OA
ATOM      5  C   LIG    1       25.667 -20.914   4.740  0.00  0.00    +0.176 C 
ATOM      6  C   LIG    1       24.254 -21.513   4.701  0.00  0.00    +0.109 C 
ATOM      7  N   LIG    1       23.425 -20.962   3.611  0.00  0.00    -0.309 NA
ATOM      8  H   LIG    1       23.831 -21.261   2.724  0.00  0.00    +0.122 HD
ENDROOT
BRANCH   3   9
ATOM      9  C   LIG    1       25.004 -17.415   3.702  0.00  0.00    -0.017 A 
ATOM     10  C   LIG    1       23.899 -16.615   4.035  0.00  0.00    +0.006 A 
ATOM     11  C   LIG    1       23.994 -15.222   4.016  0.00  0.00    +0.000 A 
ATOM     12  C   LIG    1       25.194 -14.609   3.663  0.00  0.00    +0.000 A 
ATOM     13  C   LIG    1       26.300 -15.388   3.329  0.00  0.00    +0.000 A 
ATOM     14  C   LIG    1       26.206 -16.781   3.347  0.00  0.00    +0.006 A 
ENDBRANCH   3   9
TORSDOF 1
ENDMDL
MODEL 4
REMARK VINA RESULT:      -3.5      2.866      4.566
REMARK  Name = *****
REMARK                            x       y       z     vdW  Elec       q    Type
REMARK                         _______ _______ _______ _____ _____    ______ ____
ROOT
ATOM      1  C   LIG    1       22.590 -18.990   4.810  0.00  0.00    +0.027 C 
ATOM      2  C   LIG    1       23.465 -19.518   3.664  0.00  0.00    +0.084 C 
ATOM      3  C   LIG    1       24.932 -18.982   3.705  0.00  0.00    +0.165 C 
ATOM      4  O   LIG    1       25.636 -19.518   4.842  0.00  0.00    -0.369 OA
ATOM      5  C   LIG    1       25.664 -20.948   4.789  0.00  0.00    +0.176 C 
ATOM      6  C   LIG    1       24.248 -21.542   4.756  0.00  0.00    +0.109 C 
ATOM      7  N   LIG    1       23.427 -21.007   3.652  0.00  0.00    -0.309 NA
ATOM      8  H   LIG    1       23.834 -21.325   2.772  0.00  0.00    +0.122 HD
ENDROOT
BRANCH   3   9
ATOM      9  C   LIG    1       25.021 -17.467   3.683  0.00  0.00    -0.017 A 
ATOM     10  C   LIG    1       26.208 -16.799   3.341  0.00  0.00    +0.006 A 
ATOM     11  C   LIG    1       26.270 -15.404   3.345  0.00  0.00    +0.000 A 
ATOM     12  C   LIG    1       25.147 -14.657   3.693  0.00  0.00    +0.000 A 
ATOM     13  C   LIG    1       23.962 -15.303   4.036  0.00  0.00    +0.000 A 
ATOM     14  C   LIG    1       23.899 -16.698   4.033  0.00  0.00    +0.006 A 
ENDBRANCH   3   9
TORSDOF 1
ENDMDL
MODEL 5
REMARK VINA RESULT:      -3.4      5.060      6.834
REMARK  Name = *****
REMARK                            x       y       z     vdW  Elec       q    Type
REMARK                         _______ _______ _______ _____ _____    ______ ____
ROOT
ATOM      1  C   LIG    1       23.590 -13.998   3.375  0.00  0.00    +0.027 C 
ATOM      2  C   LIG    1       24.847 -14.227   4.225  0.00  0.00    +0.084 C 
ATOM      3  C   LIG    1       25.690 -15.462   3.768  0.00  0.00    +0.165 C 
ATOM      4  O   LIG    1       26.284 -15.221   2.478  0.00  0.00    -0.369 OA
ATOM      5  C   LIG    1       27.133 -14.068   2.523  0.00  0.00    +0.176 C 
ATOM      6  C   LIG    1       26.362 -12.813   2.957  0.00  0.00    +0.109 C 
ATOM      7  N   LIG    1       25.668 -12.984   4.248  0.00  0.00    -0.309 NA
ATOM      8  H   LIG    1       26.376 -13.088   4.976  0.00  0.00    +0.122 HD
ENDROOT
BRANCH   3   9
ATOM      9  C   LIG    1       24.902 -16.760   3.763  0.00  0.00    -0.017 A 
ATOM     10  C   LIG    1       23.559 -16.813   4.167  0.00  0.00    +0.006 A 
ATOM     11  C   LIG    1       22.861 -18.022   4.170  0.00  0.00    +0.000 A 
ATOM     12  C   LIG    1       23.496 -19.196   3.771  0.00  0.00    +0.000 A 
ATOM     13  C   LIG    1       24.829 -19.162   3.369  0.00  0.00    +0.000 A 
ATOM     14  C   LIG    1       25.529 -17.953   3.366  0.00  0.00    +0.006 A 
ENDBRANCH   3   9
TORSDOF 1
ENDMDL
MODEL 6
REMARK VINA RESULT:      -3.3      4.984      6.764
REMARK  Name = *****
REMARK                            x       y       z     vdW  Elec       q    Type
REMARK                         _______ _______ _______ _____ _____    ______ ____
ROOT
ATOM      1  C   LIG    1       23.589 -14.197   3.652  0.00  0.00    +0.027 C 
ATOM      2  C   LIG    1       24.940 -14.396   4.354  0.00  0.00    +0.084 C 
ATOM      3  C   LIG    1       25.799 -15.545   3.734  0.00  0.00    +0.165 C 
ATOM      4  O   LIG    1       26.241 -15.189   2.410  0.00  0.00    -0.369 OA
ATOM      5  C   LIG    1       27.022 -13.990   2.445  0.00  0.00    +0.176 C 
ATOM      6  C   LIG    1       26.231 -12.815   3.037  0.00  0.00    +0.109 C 
ATOM      7  N   LIG    1       25.685 -13.107   4.377  0.00  0.00    -0.309 NA
ATOM      8  H   LIG    1       26.470 -13.209   5.022  0.00  0.00    +0.122 HD
ENDROOT
BRANCH   3   9
ATOM      9  C   LIG    1       25.091 -16.888   3.722  0.00  0.00    -0.017 A 
ATOM     10  C   LIG    1       25.748 -18.068   3.340  0.00  0.00    +0.006 A 
ATOM     11  C   LIG    1       25.070 -19.289   3.320  0.00  0.00    +0.000 A 
ATOM     12  C   LIG    1       23.725 -19.346   3.679  0.00  0.00    +0.000 A 
ATOM     13  C   LIG    1       23.058 -18.185   4.059  0.00  0.00    +0.000 A 
ATOM     14  C   LIG    1       23.734 -16.963   4.079  0.00  0.00    +0.006 A 
ENDBRANCH   3   9
TORSDOF 1
ENDMDL
MODEL 7
REMARK VINA RESULT:      -3.3      4.625      6.383
REMARK  Name = *****
REMARK                            x       y       z     vdW  Elec       q    Type
REMARK                         _______ _______ _______ _____ _____    ______ ____
ROOT
ATOM      1  C   LIG    1       27.502 -15.784   4.231  0.00  0.00    +0.027 C 
ATOM      2  C   LIG    1       26.619 -15.320   3.064  0.00  0.00    +0.084 C 
ATOM      3  C   LIG    1       25.095 -15.577   3.299  0.00  0.00    +0.165 C 
ATOM      4  O   LIG    1       24.596 -14.737   4.358  0.00  0.00    -0.369 OA
ATOM      5  C   LIG    1       24.792 -13.355   4.038  0.00  0.00    +0.176 C 
ATOM      6  C   LIG    1       26.274 -13.032   3.804  0.00  0.00    +0.109 C 
ATOM      7  N   LIG    1       26.892 -13.885   2.771  0.00  0.00    -0.309 NA
ATOM      8  H   LIG    1       26.459 -13.660   1.874  0.00  0.00    +0.122 HD
ENDROOT
BRANCH   3   9
ATOM      9  C   LIG    1       24.764 -17.034   3.568  0.00  0.00    -0.017 A 
ATOM     10  C   LIG    1       25.692 -18.061   3.328  0.00  0.00    +0.006 A 
ATOM     11  C   LIG    1       25.358 -19.395   3.567  0.00  0.00    +0.000 A 
ATOM     12  C   LIG    1       24.092 -19.723   4.047  0.00  0.00    +0.000 A 
ATOM     13  C   LIG    1       23.159 -18.717   4.289  0.00  0.00    +0.000 A 
ATOM     14  C   LIG    1       23.491 -17.382   4.050  0.00  0.00    +0.006 A 
ENDBRANCH   3   9
TORSDOF 1
ENDMDL
MODEL 8
REMARK VINA RESULT:      -3.2      2.131      5.397
REMARK  Name = *****
REMARK                            x       y       z     vdW  Elec       q    Type
REMARK                         _______ _______ _______ _____ _____    ______ ____
ROOT
ATOM      1  C   LIG    1       25.121 -20.831   3.493  0.00  0.00    +0.027 C 
ATOM      2  C   LIG    1       25.197 -19.927   4.731  0.00  0.00    +0.084 C 
ATOM      3  C   LIG    1       23.945 -20.040   5.660  0.00  0.00    +0.165 C 
ATOM      4  O   LIG    1       23.891 -21.338   6.283  0.00  0.00    -0.369 OA
ATOM      5  C   LIG    1       25.070 -21.572   7.061  0.00  0.00    +0.176 C 
ATOM      6  C   LIG    1       26.341 -21.484   6.204  0.00  0.00    +0.109 C 
ATOM      7  N   LIG    1       26.456 -20.205   5.476  0.00  0.00    -0.309 NA
ATOM      8  H   LIG    1       26.586 -19.461   6.163  0.00  0.00    +0.122 HD
ENDROOT
BRANCH   3   9
ATOM      9  C   LIG    1       22.638 -19.730   4.950  0.00  0.00    -0.017 A 
ATOM     10  C   LIG    1       21.662 -20.715   4.733  0.00  0.00    +0.006 A 
ATOM     11  C   LIG    1       20.476 -20.410   4.062  0.00  0.00    +0.000 A 
ATOM     12  C   LIG    1       20.250 -19.116   3.597  0.00  0.00    +0.000 A 
ATOM     13  C   LIG    1       21.209 -18.127   3.803  0.00  0.00    +0.000 A 
ATOM     14  C   LIG    1       22.396 -18.431   4.474  0.00  0.00    +0.006 A 
ENDBRANCH   3   9
TORSDOF 1
ENDMDL
