MODEL 1
REMARK VINA RESULT:      10.0      0.000      0.000
REMARK  Name = *****
REMARK                            x       y       z     vdW  Elec       q    Type
REMARK                         _______ _______ _______ _____ _____    ______ ____
ROOT
ATOM      1  C   UNK A  0       26.579 -18.302   4.254  0.00  0.00    +0.061 A 
ATOM      2  C   UNK A  0       25.239 -18.756   4.014  0.00  0.00    +0.049 A 
ATOM      3  I   UNK A  0       24.935 -20.925   4.137  0.00  0.00    -0.041 I 
ATOM      4  C   UNK A  0       24.167 -17.877   3.638  0.00  0.00    +0.065 A 
ATOM      5  C   UNK A  0       24.529 -16.530   3.324  0.00  0.00    +0.040 A 
ATOM      6  I   UNK A  0       23.072 -14.947   2.959  0.00  0.00    -0.042 I 
ATOM      7  C   UNK A  0       25.880 -16.085   3.420  0.00  0.00    +0.065 A 
ATOM      8  C   UNK A  0       26.847 -16.933   4.015  0.00  0.00    +0.049 A 
ATOM      9  I   UNK A  0       28.407 -15.848   5.101  0.00  0.00    -0.041 I 
ENDROOT
BRANCH   1  11
ATOM     10  C   UNK A  0       27.354 -20.099   5.881  0.00  0.00    +0.246 C 
ATOM     11  N   UNK A  0       27.519 -19.236   4.810  0.00  0.00    -0.282 N 
ATOM     12  H   UNK A  0       28.494 -19.123   4.528  0.00  0.00    +0.155 HD
ATOM     13  O   UNK A  0       26.452 -20.017   6.723  0.00  0.00    -0.273 OA
BRANCH  10  15
ATOM     14  C   UNK A  0       29.471 -20.775   7.060  0.00  0.00    +0.047 C 
ATOM     15  C   UNK A  0       28.451 -21.185   6.004  0.00  0.00    +0.197 C 
BRANCH  15  16
ATOM     16  O   UNK A  0       29.131 -21.496   4.794  0.00  0.00    -0.383 OA
ATOM     17  H   UNK A  0       29.913 -20.913   4.749  0.00  0.00    +0.210 HD
ENDBRANCH  15  16
ENDBRANCH  10  15
ENDBRANCH   1  11
BRANCH   4  18
ATOM     18  C   UNK A  0       22.714 -18.352   3.691  0.00  0.00    +0.246 C 
ATOM     19  N   SER A  1       22.369 -19.227   4.687  0.00  0.00    -0.304 N 
ATOM     20  H   SER A  1       23.132 -19.712   5.165  0.00  0.00    +0.149 HD
ATOM     21  O   UNK A  0       21.868 -17.967   2.889  0.00  0.00    -0.270 OA
BRANCH  19  22
ATOM     22  CA  SER A  1       21.062 -19.910   4.797  0.00  0.00    +0.124 C 
BRANCH  22  23
ATOM     23  C   SER A  1       21.332 -21.382   5.151  0.00  0.00    +0.180 C 
BRANCH  23  24
ATOM     24  O   SER A  1       22.562 -21.571   5.830  0.00  0.00    -0.393 OA
ATOM     25  H   SER A  1       23.271 -21.540   5.165  0.00  0.00    +0.209 HD
ENDBRANCH  23  24
ENDBRANCH  22  23
BRANCH  22  26
ATOM     26  CB  SER A  1       20.196 -19.832   3.511  0.00  0.00    +0.180 C 
BRANCH  26  27
ATOM     27  OG  SER A  1       19.699 -18.527   3.236  0.00  0.00    -0.393 OA
ATOM     28  H   SER A  1       19.056 -18.602   2.508  0.00  0.00    +0.209 HD
ENDBRANCH  26  27
ENDBRANCH  22  26
ENDBRANCH  19  22
ENDBRANCH   4  18
BRANCH   7  29
ATOM     29  C   UNK A  0       26.294 -14.722   2.928  0.00  0.00    +0.246 C 
ATOM     30  N   SER A  1       25.859 -13.680   3.696  0.00  0.00    -0.304 N 
ATOM     31  H   SER A  1       25.197 -13.854   4.475  0.00  0.00    +0.149 HD
ATOM     32  O   UNK A  0       26.974 -14.567   1.957  0.00  0.00    -0.270 OA
BRANCH  30  33
ATOM     33  CA  SER A  1       26.150 -12.259   3.407  0.00  0.00    +0.124 C 
BRANCH  33  34
ATOM     34  C   SER A  1       25.129 -11.712   2.391  0.00  0.00    +0.180 C 
BRANCH  34  35
ATOM     35  O   SER A  1       23.774 -11.881   2.791  0.00  0.00    -0.393 OA
ATOM     36  H   SER A  1       23.507 -11.076   3.273  0.00  0.00    +0.209 HD
ENDBRANCH  34  35
ENDBRANCH  33  34
BRANCH  33  37
ATOM     37  CB  SER A  1       27.603 -12.029   2.911  0.00  0.00    +0.180 C 
BRANCH  37  38
ATOM     38  OG  SER A  1       28.572 -12.741   3.682  0.00  0.00    -0.393 OA
ATOM     39  H   SER A  1       29.263 -12.097   3.949  0.00  0.00    +0.209 HD
ENDBRANCH  37  38
ENDBRANCH  33  37
ENDBRANCH  30  33
ENDBRANCH   7  29
TORSDOF 15
ENDMDL
MODEL 2
REMARK VINA RESULT:      10.6      1.150      1.833
REMARK  Name = *****
REMARK                            x       y       z     vdW  Elec       q    Type
REMARK                         _______ _______ _______ _____ _____    ______ ____
ROOT
ATOM      1  C   UNK A  0       26.651 -18.538   4.261  0.00  0.00    +0.061 A 
ATOM      2  C   UNK A  0       25.303 -19.030   4.207  0.00  0.00    +0.049 A 
ATOM      3  I   UNK A  0       25.081 -21.208   4.333  0.00  0.00    -0.041 I 
ATOM      4  C   UNK A  0       24.164 -18.178   4.006  0.00  0.00    +0.065 A 
ATOM      5  C   UNK A  0       24.439 -16.817   3.668  0.00  0.00    +0.040 A 
ATOM      6  I   UNK A  0       22.900 -15.274   3.546  0.00  0.00    -0.042 I 
ATOM      7  C   UNK A  0       25.777 -16.332   3.577  0.00  0.00    +0.065 A 
ATOM      8  C   UNK A  0       26.843 -17.158   4.011  0.00  0.00    +0.049 A 
ATOM      9  I   UNK A  0       28.513 -16.042   4.881  0.00  0.00    -0.041 I 
ENDROOT
BRANCH   1  11
ATOM     10  C   UNK A  0       28.484 -19.419   5.791  0.00  0.00    +0.246 C 
ATOM     11  N   UNK A  0       27.687 -19.451   4.658  0.00  0.00    -0.282 N 
ATOM     12  H   UNK A  0       28.030 -20.091   3.940  0.00  0.00    +0.155 HD
ATOM     13  O   UNK A  0       28.628 -18.435   6.527  0.00  0.00    -0.273 OA
BRANCH  10  15
ATOM     14  C   UNK A  0       29.419 -21.518   4.766  0.00  0.00    +0.047 C 
ATOM     15  C   UNK A  0       29.269 -20.727   6.060  0.00  0.00    +0.197 C 
BRANCH  15  16
ATOM     16  O   UNK A  0       28.711 -21.570   7.062  0.00  0.00    -0.383 OA
ATOM     17  H   UNK A  0       27.741 -21.481   7.000  0.00  0.00    +0.210 HD
ENDBRANCH  15  16
ENDBRANCH  10  15
ENDBRANCH   1  11
BRANCH   4  18
ATOM     18  C   UNK A  0       22.748 -18.697   4.259  0.00  0.00    +0.246 C 
ATOM     19  N   SER A  1       22.075 -19.247   3.199  0.00  0.00    -0.304 N 
ATOM     20  H   SER A  1       22.436 -19.047   2.264  0.00  0.00    +0.149 HD
ATOM     21  O   UNK A  0       22.217 -18.645   5.364  0.00  0.00    -0.270 OA
BRANCH  19  22
ATOM     22  CA  SER A  1       20.653 -19.651   3.218  0.00  0.00    +0.124 C 
BRANCH  22  23
ATOM     23  C   SER A  1       19.824 -18.425   3.634  0.00  0.00    +0.180 C 
BRANCH  23  24
ATOM     24  O   SER A  1       19.369 -17.665   2.527  0.00  0.00    -0.393 OA
ATOM     25  H   SER A  1       18.945 -18.280   1.904  0.00  0.00    +0.209 HD
ENDBRANCH  23  24
ENDBRANCH  22  23
BRANCH  22  26
ATOM     26  CB  SER A  1       20.344 -20.837   4.171  0.00  0.00    +0.180 C 
BRANCH  26  27
ATOM     27  OG  SER A  1       21.455 -21.234   4.968  0.00  0.00    -0.393 OA
ATOM     28  H   SER A  1       21.414 -20.733   5.802  0.00  0.00    +0.209 HD
ENDBRANCH  26  27
ENDBRANCH  22  26
ENDBRANCH  19  22
ENDBRANCH   4  18
BRANCH   7  29
ATOM     29  C   UNK A  0       26.077 -14.950   3.056  0.00  0.00    +0.246 C 
ATOM     30  N   SER A  1       26.416 -14.039   4.014  0.00  0.00    -0.304 N 
ATOM     31  H   SER A  1       26.340 -14.291   5.017  0.00  0.00    +0.149 HD
ATOM     32  O   UNK A  0       26.048 -14.681   1.891  0.00  0.00    -0.270 OA
BRANCH  30  33
ATOM     33  CA  SER A  1       26.756 -12.627   3.732  0.00  0.00    +0.124 C 
BRANCH  33  34
ATOM     34  C   SER A  1       25.766 -12.046   2.704  0.00  0.00    +0.180 C 
BRANCH  34  35
ATOM     35  O   SER A  1       24.401 -12.320   3.002  0.00  0.00    -0.393 OA
ATOM     36  H   SER A  1       24.174 -13.170   2.582  0.00  0.00    +0.209 HD
ENDBRANCH  34  35
ENDBRANCH  33  34
BRANCH  33  37
ATOM     37  CB  SER A  1       28.221 -12.442   3.256  0.00  0.00    +0.180 C 
BRANCH  37  38
ATOM     38  OG  SER A  1       29.178 -12.723   4.279  0.00  0.00    -0.393 OA
ATOM     39  H   SER A  1       28.689 -13.102   5.040  0.00  0.00    +0.209 HD
ENDBRANCH  37  38
ENDBRANCH  33  37
ENDBRANCH  30  33
ENDBRANCH   7  29
TORSDOF 15
ENDMDL
MODEL 3
REMARK VINA RESULT:      11.4      0.883      6.551
REMARK  Name = *****
REMARK                            x       y       z     vdW  Elec       q    Type
REMARK                         _______ _______ _______ _____ _____    ______ ____
ROOT
ATOM      1  C   UNK A  0       26.183 -18.568   4.539  0.00  0.00    +0.061 A 
ATOM      2  C   UNK A  0       26.505 -17.200   4.247  0.00  0.00    +0.049 A 
ATOM      3  I   UNK A  0       28.542 -16.572   4.762  0.00  0.00    -0.041 I 
ATOM      4  C   UNK A  0       25.549 -16.263   3.726  0.00  0.00    +0.065 A 
ATOM      5  C   UNK A  0       24.189 -16.700   3.679  0.00  0.00    +0.040 A 
ATOM      6  I   UNK A  0       22.593 -15.565   2.717  0.00  0.00    -0.042 I 
ATOM      7  C   UNK A  0       23.818 -18.012   4.096  0.00  0.00    +0.065 A 
ATOM      8  C   UNK A  0       24.833 -18.960   4.380  0.00  0.00    +0.049 A 
ATOM      9  I   UNK A  0       24.271 -21.015   3.878  0.00  0.00    -0.041 I 
ENDROOT
BRANCH   1  11
ATOM     10  C   UNK A  0       27.403 -20.271   5.984  0.00  0.00    +0.246 C 
ATOM     11  N   UNK A  0       27.261 -19.458   4.872  0.00  0.00    -0.282 N 
ATOM     12  H   UNK A  0       28.127 -19.342   4.342  0.00  0.00    +0.155 HD
ATOM     13  O   UNK A  0       26.747 -20.164   7.028  0.00  0.00    -0.273 OA
BRANCH  10  15
ATOM     14  C   UNK A  0       29.471 -21.222   7.056  0.00  0.00    +0.047 C 
ATOM     15  C   UNK A  0       28.526 -21.331   5.865  0.00  0.00    +0.197 C 
BRANCH  15  16
ATOM     16  O   UNK A  0       29.283 -21.276   4.661  0.00  0.00    -0.383 OA
ATOM     17  H   UNK A  0       29.732 -22.138   4.567  0.00  0.00    +0.210 HD
ENDBRANCH  15  16
ENDBRANCH  10  15
ENDBRANCH   1  11
BRANCH   4  18
ATOM     18  C   UNK A  0       26.006 -14.921   3.150  0.00  0.00    +0.246 C 
ATOM     19  N   SER A  1       25.921 -13.820   3.962  0.00  0.00    -0.304 N 
ATOM     20  H   SER A  1       25.327 -13.898   4.791  0.00  0.00    +0.149 HD
ATOM     21  O   UNK A  0       26.447 -14.812   2.010  0.00  0.00    -0.270 OA
BRANCH  19  22
ATOM     22  CA  SER A  1       26.165 -12.428   3.528  0.00  0.00    +0.124 C 
BRANCH  22  23
ATOM     23  C   SER A  1       25.263 -12.153   2.313  0.00  0.00    +0.180 C 
BRANCH  23  24
ATOM     24  O   SER A  1       23.940 -11.794   2.678  0.00  0.00    -0.393 OA
ATOM     25  H   SER A  1       23.335 -12.256   2.073  0.00  0.00    +0.209 HD
ENDBRANCH  23  24
ENDBRANCH  22  23
BRANCH  22  26
ATOM     26  CB  SER A  1       27.643 -12.129   3.158  0.00  0.00    +0.180 C 
BRANCH  26  27
ATOM     27  OG  SER A  1       28.545 -13.166   3.530  0.00  0.00    -0.393 OA
ATOM     28  H   SER A  1       29.227 -13.228   2.837  0.00  0.00    +0.209 HD
ENDBRANCH  26  27
ENDBRANCH  22  26
ENDBRANCH  19  22
ENDBRANCH   4  18
BRANCH   7  29
ATOM     29  C   UNK A  0       22.372 -18.419   4.213  0.00  0.00    +0.246 C 
ATOM     30  N   SER A  1       21.885 -19.114   3.143  0.00  0.00    -0.304 N 
ATOM     31  H   SER A  1       22.465 -19.221   2.290  0.00  0.00    +0.149 HD
ATOM     32  O   UNK A  0       21.712 -18.178   5.180  0.00  0.00    -0.270 OA
BRANCH  30  33
ATOM     33  CA  SER A  1       20.498 -19.617   3.043  0.00  0.00    +0.124 C 
BRANCH  33  34
ATOM     34  C   SER A  1       19.530 -18.441   2.813  0.00  0.00    +0.180 C 
BRANCH  34  35
ATOM     35  O   SER A  1       19.363 -17.603   3.951  0.00  0.00    -0.393 OA
ATOM     36  H   SER A  1       18.424 -17.648   4.215  0.00  0.00    +0.209 HD
ENDBRANCH  34  35
ENDBRANCH  33  34
BRANCH  33  37
ATOM     37  CB  SER A  1       20.069 -20.454   4.278  0.00  0.00    +0.180 C 
BRANCH  37  38
ATOM     38  OG  SER A  1       21.040 -21.434   4.649  0.00  0.00    -0.393 OA
ATOM     39  H   SER A  1       21.118 -22.066   3.903  0.00  0.00    +0.209 HD
ENDBRANCH  37  38
ENDBRANCH  33  37
ENDBRANCH  30  33
ENDBRANCH   7  29
TORSDOF 15
ENDMDL
MODEL 4
REMARK VINA RESULT:      11.8      0.952      6.530
REMARK  Name = *****
REMARK                            x       y       z     vdW  Elec       q    Type
REMARK                         _______ _______ _______ _____ _____    ______ ____
ROOT
ATOM      1  C   UNK A  0       26.165 -18.537   4.714  0.00  0.00    +0.061 A 
ATOM      2  C   UNK A  0       26.536 -17.244   4.213  0.00  0.00    +0.049 A 
ATOM      3  I   UNK A  0       28.645 -16.697   4.466  0.00  0.00    -0.041 I 
ATOM      4  C   UNK A  0       25.592 -16.319   3.651  0.00  0.00    +0.065 A 
ATOM      5  C   UNK A  0       24.210 -16.663   3.778  0.00  0.00    +0.040 A 
ATOM      6  I   UNK A  0       22.600 -15.556   2.808  0.00  0.00    -0.042 I 
ATOM      7  C   UNK A  0       23.805 -17.882   4.399  0.00  0.00    +0.065 A 
ATOM      8  C   UNK A  0       24.786 -18.853   4.722  0.00  0.00    +0.049 A 
ATOM      9  I   UNK A  0       24.063 -20.912   4.552  0.00  0.00    -0.041 I 
ENDROOT
BRANCH   1  11
ATOM     10  C   UNK A  0       27.246 -20.379   6.098  0.00  0.00    +0.246 C 
ATOM     11  N   UNK A  0       27.217 -19.449   5.072  0.00  0.00    -0.282 N 
ATOM     12  H   UNK A  0       28.135 -19.267   4.664  0.00  0.00    +0.155 HD
ATOM     13  O   UNK A  0       26.470 -20.394   7.062  0.00  0.00    -0.273 OA
BRANCH  10  15
ATOM     14  C   UNK A  0       29.450 -21.116   7.061  0.00  0.00    +0.047 C 
ATOM     15  C   UNK A  0       28.398 -21.409   5.997  0.00  0.00    +0.197 C 
BRANCH  15  16
ATOM     16  O   UNK A  0       29.029 -21.486   4.725  0.00  0.00    -0.383 OA
ATOM     17  H   UNK A  0       28.979 -20.595   4.328  0.00  0.00    +0.210 HD
ENDBRANCH  15  16
ENDBRANCH  10  15
ENDBRANCH   1  11
BRANCH   4  18
ATOM     18  C   UNK A  0       26.070 -15.098   2.863  0.00  0.00    +0.246 C 
ATOM     19  N   SER A  1       25.776 -13.860   3.372  0.00  0.00    -0.304 N 
ATOM     20  H   SER A  1       25.046 -13.812   4.086  0.00  0.00    +0.149 HD
ATOM     21  O   UNK A  0       26.705 -15.200   1.818  0.00  0.00    -0.270 OA
BRANCH  19  22
ATOM     22  CA  SER A  1       26.017 -12.580   2.672  0.00  0.00    +0.124 C 
BRANCH  22  23
ATOM     23  C   SER A  1       27.317 -11.979   3.230  0.00  0.00    +0.180 C 
BRANCH  23  24
ATOM     24  O   SER A  1       28.342 -12.944   3.404  0.00  0.00    -0.393 OA
ATOM     25  H   SER A  1       28.731 -12.802   4.284  0.00  0.00    +0.209 HD
ENDBRANCH  23  24
ENDBRANCH  22  23
BRANCH  22  26
ATOM     26  CB  SER A  1       24.862 -11.552   2.817  0.00  0.00    +0.180 C 
BRANCH  26  27
ATOM     27  OG  SER A  1       23.836 -11.705   1.842  0.00  0.00    -0.393 OA
ATOM     28  H   SER A  1       23.215 -10.963   1.948  0.00  0.00    +0.209 HD
ENDBRANCH  26  27
ENDBRANCH  22  26
ENDBRANCH  19  22
ENDBRANCH   4  18
BRANCH   7  29
ATOM     29  C   UNK A  0       22.355 -18.170   4.690  0.00  0.00    +0.246 C 
ATOM     30  N   SER A  1       21.743 -18.992   3.788  0.00  0.00    -0.304 N 
ATOM     31  H   SER A  1       22.241 -19.272   2.923  0.00  0.00    +0.149 HD
ATOM     32  O   UNK A  0       21.793 -17.735   5.651  0.00  0.00    -0.270 OA
BRANCH  30  33
ATOM     33  CA  SER A  1       20.328 -19.413   3.878  0.00  0.00    +0.124 C 
BRANCH  33  34
ATOM     34  C   SER A  1       20.240 -20.951   3.907  0.00  0.00    +0.180 C 
BRANCH  34  35
ATOM     35  O   SER A  1       21.244 -21.569   4.704  0.00  0.00    -0.393 OA
ATOM     36  H   SER A  1       21.518 -22.387   4.248  0.00  0.00    +0.209 HD
ENDBRANCH  34  35
ENDBRANCH  33  34
BRANCH  33  37
ATOM     37  CB  SER A  1       19.451 -18.829   2.739  0.00  0.00    +0.180 C 
BRANCH  37  38
ATOM     38  OG  SER A  1       19.902 -17.550   2.290  0.00  0.00    -0.393 OA
ATOM     39  H   SER A  1       19.148 -17.118   1.834  0.00  0.00    +0.209 HD
ENDBRANCH  37  38
ENDBRANCH  33  37
ENDBRANCH  30  33
ENDBRANCH   7  29
TORSDOF 15
ENDMDL
MODEL 5
REMARK VINA RESULT:      12.5      1.482      7.609
REMARK  Name = *****
REMARK                            x       y       z     vdW  Elec       q    Type
REMARK                         _______ _______ _______ _____ _____    ______ ____
ROOT
ATOM      1  C   UNK A  0       24.716 -15.951   3.807  0.00  0.00    +0.061 A 
ATOM      2  C   UNK A  0       25.995 -16.535   4.097  0.00  0.00    +0.049 A 
ATOM      3  I   UNK A  0       27.685 -15.138   4.156  0.00  0.00    -0.041 I 
ATOM      4  C   UNK A  0       26.194 -17.947   4.263  0.00  0.00    +0.065 A 
ATOM      5  C   UNK A  0       25.084 -18.789   3.940  0.00  0.00    +0.040 A 
ATOM      6  I   UNK A  0       25.049 -20.936   4.331  0.00  0.00    -0.042 I 
ATOM      7  C   UNK A  0       23.839 -18.241   3.513  0.00  0.00    +0.065 A 
ATOM      8  C   UNK A  0       23.636 -16.841   3.592  0.00  0.00    +0.049 A 
ATOM      9  I   UNK A  0       21.566 -16.283   4.032  0.00  0.00    -0.041 I 
ENDROOT
BRANCH   1  11
ATOM     10  C   UNK A  0       25.139 -13.577   2.992  0.00  0.00    +0.246 C 
ATOM     11  N   UNK A  0       24.601 -14.520   3.854  0.00  0.00    -0.282 N 
ATOM     12  H   UNK A  0       24.257 -14.119   4.728  0.00  0.00    +0.155 HD
ATOM     13  O   UNK A  0       26.049 -13.797   2.183  0.00  0.00    -0.273 OA
BRANCH  10  15
ATOM     14  C   UNK A  0       24.133 -11.924   4.600  0.00  0.00    +0.047 C 
ATOM     15  C   UNK A  0       24.553 -12.152   3.153  0.00  0.00    +0.197 C 
BRANCH  15  16
ATOM     16  O   UNK A  0       23.458 -11.850   2.295  0.00  0.00    -0.383 OA
ATOM     17  H   UNK A  0       23.404 -12.571   1.638  0.00  0.00    +0.210 HD
ENDBRANCH  15  16
ENDBRANCH  10  15
ENDBRANCH   1  11
BRANCH   4  18
ATOM     18  C   UNK A  0       27.492 -18.487   4.865  0.00  0.00    +0.246 C 
ATOM     19  N   SER A  1       27.395 -19.277   5.981  0.00  0.00    -0.304 N 
ATOM     20  H   SER A  1       26.511 -19.249   6.495  0.00  0.00    +0.149 HD
ATOM     21  O   UNK A  0       28.592 -18.243   4.378  0.00  0.00    -0.270 OA
BRANCH  19  22
ATOM     22  CA  SER A  1       28.541 -19.752   6.784  0.00  0.00    +0.124 C 
BRANCH  22  23
ATOM     23  C   SER A  1       29.469 -18.550   7.030  0.00  0.00    +0.180 C 
BRANCH  23  24
ATOM     24  O   SER A  1       28.844 -17.306   6.763  0.00  0.00    -0.393 OA
ATOM     25  H   SER A  1       28.140 -17.466   6.110  0.00  0.00    +0.209 HD
ENDBRANCH  23  24
ENDBRANCH  22  23
BRANCH  22  26
ATOM     26  CB  SER A  1       29.344 -20.904   6.124  0.00  0.00    +0.180 C 
BRANCH  26  27
ATOM     27  OG  SER A  1       28.785 -21.359   4.896  0.00  0.00    -0.393 OA
ATOM     28  H   SER A  1       29.005 -20.704   4.210  0.00  0.00    +0.209 HD
ENDBRANCH  26  27
ENDBRANCH  22  26
ENDBRANCH  19  22
ENDBRANCH   4  18
BRANCH   7  29
ATOM     29  C   UNK A  0       22.726 -19.122   3.009  0.00  0.00    +0.246 C 
ATOM     30  N   SER A  1       21.782 -19.443   3.941  0.00  0.00    -0.304 N 
ATOM     31  H   SER A  1       21.927 -19.181   4.934  0.00  0.00    +0.149 HD
ATOM     32  O   UNK A  0       22.660 -19.488   1.872  0.00  0.00    -0.270 OA
BRANCH  30  33
ATOM     33  CA  SER A  1       20.601 -20.290   3.668  0.00  0.00    +0.124 C 
BRANCH  33  34
ATOM     34  C   SER A  1       19.363 -19.402   3.437  0.00  0.00    +0.180 C 
BRANCH  34  35
ATOM     35  O   SER A  1       19.676 -18.049   3.123  0.00  0.00    -0.393 OA
ATOM     36  H   SER A  1       18.921 -17.499   3.407  0.00  0.00    +0.209 HD
ENDBRANCH  34  35
ENDBRANCH  33  34
BRANCH  33  37
ATOM     37  CB  SER A  1       20.333 -21.333   4.785  0.00  0.00    +0.180 C 
BRANCH  37  38
ATOM     38  OG  SER A  1       21.473 -21.562   5.616  0.00  0.00    -0.393 OA
ATOM     39  H   SER A  1       21.455 -22.506   5.883  0.00  0.00    +0.209 HD
ENDBRANCH  37  38
ENDBRANCH  33  37
ENDBRANCH  30  33
ENDBRANCH   7  29
TORSDOF 15
ENDMDL
MODEL 6
REMARK VINA RESULT:      13.0      1.248      6.507
REMARK  Name = *****
REMARK                            x       y       z     vdW  Elec       q    Type
REMARK                         _______ _______ _______ _____ _____    ______ ____
ROOT
ATOM      1  C   UNK A  0       26.372 -18.700   4.621  0.00  0.00    +0.061 A 
ATOM      2  C   UNK A  0       26.508 -17.312   4.282  0.00  0.00    +0.049 A 
ATOM      3  I   UNK A  0       28.521 -16.471   4.508  0.00  0.00    -0.041 I 
ATOM      4  C   UNK A  0       25.399 -16.487   3.892  0.00  0.00    +0.065 A 
ATOM      5  C   UNK A  0       24.097 -17.060   4.035  0.00  0.00    +0.040 A 
ATOM      6  I   UNK A  0       22.276 -16.111   3.296  0.00  0.00    -0.042 I 
ATOM      7  C   UNK A  0       23.924 -18.395   4.505  0.00  0.00    +0.065 A 
ATOM      8  C   UNK A  0       25.060 -19.230   4.651  0.00  0.00    +0.049 A 
ATOM      9  I   UNK A  0       24.649 -21.340   4.241  0.00  0.00    -0.041 I 
ENDROOT
BRANCH   1  11
ATOM     10  C   UNK A  0       28.384 -19.553   5.925  0.00  0.00    +0.246 C 
ATOM     11  N   UNK A  0       27.571 -19.470   4.807  0.00  0.00    -0.282 N 
ATOM     12  H   UNK A  0       28.002 -19.849   3.963  0.00  0.00    +0.155 HD
ATOM     13  O   UNK A  0       28.368 -18.757   6.872  0.00  0.00    -0.273 OA
BRANCH  10  15
ATOM     14  C   UNK A  0       29.198 -21.552   4.632  0.00  0.00    +0.047 C 
ATOM     15  C   UNK A  0       29.406 -20.717   5.890  0.00  0.00    +0.197 C 
BRANCH  15  16
ATOM     16  O   UNK A  0       29.386 -21.572   7.027  0.00  0.00    -0.383 OA
ATOM     17  H   UNK A  0       29.960 -21.161   7.702  0.00  0.00    +0.210 HD
ENDBRANCH  15  16
ENDBRANCH  10  15
ENDBRANCH   1  11
BRANCH   4  18
ATOM     18  C   UNK A  0       25.632 -15.117   3.253  0.00  0.00    +0.246 C 
ATOM     19  N   SER A  1       25.501 -14.012   4.053  0.00  0.00    -0.304 N 
ATOM     20  H   SER A  1       25.008 -14.137   4.941  0.00  0.00    +0.149 HD
ATOM     21  O   UNK A  0       25.939 -14.988   2.071  0.00  0.00    -0.270 OA
BRANCH  19  22
ATOM     22  CA  SER A  1       25.533 -12.613   3.576  0.00  0.00    +0.124 C 
BRANCH  22  23
ATOM     23  C   SER A  1       24.245 -12.363   2.774  0.00  0.00    +0.180 C 
BRANCH  23  24
ATOM     24  O   SER A  1       23.616 -13.562   2.351  0.00  0.00    -0.393 OA
ATOM     25  H   SER A  1       23.114 -13.911   3.107  0.00  0.00    +0.209 HD
ENDBRANCH  23  24
ENDBRANCH  22  23
BRANCH  22  26
ATOM     26  CB  SER A  1       26.768 -12.270   2.700  0.00  0.00    +0.180 C 
BRANCH  26  27
ATOM     27  OG  SER A  1       27.934 -13.012   3.042  0.00  0.00    -0.393 OA
ATOM     28  H   SER A  1       28.705 -12.435   2.896  0.00  0.00    +0.209 HD
ENDBRANCH  26  27
ENDBRANCH  22  26
ENDBRANCH  19  22
ENDBRANCH   4  18
BRANCH   7  29
ATOM     29  C   UNK A  0       22.557 -18.944   4.821  0.00  0.00    +0.246 C 
ATOM     30  N   SER A  1       21.654 -18.853   3.802  0.00  0.00    -0.304 N 
ATOM     31  H   SER A  1       21.897 -18.328   2.941  0.00  0.00    +0.149 HD
ATOM     32  O   UNK A  0       22.293 -19.447   5.873  0.00  0.00    -0.270 OA
BRANCH  30  33
ATOM     33  CA  SER A  1       20.257 -19.332   3.886  0.00  0.00    +0.124 C 
BRANCH  33  34
ATOM     34  C   SER A  1       20.234 -20.871   3.950  0.00  0.00    +0.180 C 
BRANCH  34  35
ATOM     35  O   SER A  1       20.977 -21.412   5.037  0.00  0.00    -0.393 OA
ATOM     36  H   SER A  1       20.342 -21.647   5.740  0.00  0.00    +0.209 HD
ENDBRANCH  34  35
ENDBRANCH  33  34
BRANCH  33  37
ATOM     37  CB  SER A  1       19.369 -18.812   2.724  0.00  0.00    +0.180 C 
BRANCH  37  38
ATOM     38  OG  SER A  1       19.825 -17.569   2.189  0.00  0.00    -0.393 OA
ATOM     39  H   SER A  1       19.687 -16.885   2.880  0.00  0.00    +0.209 HD
ENDBRANCH  37  38
ENDBRANCH  33  37
ENDBRANCH  30  33
ENDBRANCH   7  29
TORSDOF 15
ENDMDL
