MODEL 1
REMARK VINA RESULT:      -3.7      0.000      0.000
REMARK  Name = *****
REMARK                            x       y       z     vdW  Elec       q    Type
REMARK                         _______ _______ _______ _____ _____    ______ ____
ROOT
ATOM      1  C   LIG    1       23.495 -20.812   6.824  0.00  0.00    +0.151 C 
ATOM      2  N   LIG    1       24.369 -20.523   5.713  0.00  0.00    -0.330 N 
ATOM      3  C   LIG    1       25.780 -20.499   5.734  0.00  0.00    +0.158 C 
ATOM      4  S   LIG    1       26.836 -20.785   6.973  0.00  0.00    -0.013 S 
ATOM      5  N   LIG    1       26.149 -20.164   4.420  0.00  0.00    -0.340 N 
ATOM      6  H   LIG    1       27.103 -20.064   4.106  0.00  0.00    +0.167 HD
ATOM      7  C   LIG    1       25.017 -19.999   3.661  0.00  0.00    +0.102 C 
ATOM      8  C   LIG    1       23.946 -20.214   4.435  0.00  0.00    +0.105 C 
ENDROOT
TORSDOF 0
ENDMDL
MODEL 2
REMARK VINA RESULT:      -3.7      1.872      2.523
REMARK  Name = *****
REMARK                            x       y       z     vdW  Elec       q    Type
REMARK                         _______ _______ _______ _____ _____    ______ ____
ROOT
ATOM      1  C   LIG    1       24.024 -21.057   7.062  0.00  0.00    +0.151 C 
ATOM      2  N   LIG    1       25.255 -20.691   6.404  0.00  0.00    -0.330 N 
ATOM      3  C   LIG    1       25.425 -20.405   5.032  0.00  0.00    +0.158 C 
ATOM      4  S   LIG    1       24.326 -20.392   3.799  0.00  0.00    -0.013 S 
ATOM      5  N   LIG    1       26.793 -20.113   4.898  0.00  0.00    -0.340 N 
ATOM      6  H   LIG    1       27.238 -19.868   4.026  0.00  0.00    +0.167 HD
ATOM      7  C   LIG    1       27.401 -20.221   6.123  0.00  0.00    +0.102 C 
ATOM      8  C   LIG    1       26.479 -20.567   7.031  0.00  0.00    +0.105 C 
ENDROOT
TORSDOF 0
ENDMDL
MODEL 3
REMARK VINA RESULT:      -3.3      7.032      7.481
REMARK  Name = *****
REMARK                            x       y       z     vdW  Elec       q    Type
REMARK                         _______ _______ _______ _____ _____    ______ ____
ROOT
ATOM      1  C   LIG    1       23.856 -14.474   4.098  0.00  0.00    +0.151 C 
ATOM      2  N   LIG    1       25.154 -14.154   3.556  0.00  0.00    -0.330 N 
ATOM      3  C   LIG    1       25.466 -13.086   2.688  0.00  0.00    +0.158 C 
ATOM      4  S   LIG    1       24.496 -11.911   2.047  0.00  0.00    -0.013 S 
ATOM      5  N   LIG    1       26.846 -13.212   2.451  0.00  0.00    -0.340 N 
ATOM      6  H   LIG    1       27.379 -12.592   1.860  0.00  0.00    +0.167 HD
ATOM      7  C   LIG    1       27.325 -14.297   3.141  0.00  0.00    +0.102 C 
ATOM      8  C   LIG    1       26.311 -14.865   3.807  0.00  0.00    +0.105 C 
ENDROOT
TORSDOF 0
ENDMDL
MODEL 4
REMARK VINA RESULT:      -3.3      1.795      2.040
REMARK  Name = *****
REMARK                            x       y       z     vdW  Elec       q    Type
REMARK                         _______ _______ _______ _____ _____    ______ ____
ROOT
ATOM      1  C   LIG    1       22.227 -19.160   4.732  0.00  0.00    +0.151 C 
ATOM      2  N   LIG    1       23.563 -19.703   4.712  0.00  0.00    -0.330 N 
ATOM      3  C   LIG    1       24.117 -20.616   5.636  0.00  0.00    +0.158 C 
ATOM      4  S   LIG    1       23.447 -21.325   6.969  0.00  0.00    -0.013 S 
ATOM      5  N   LIG    1       25.431 -20.824   5.184  0.00  0.00    -0.340 N 
ATOM      6  H   LIG    1       26.097 -21.432   5.637  0.00  0.00    +0.167 HD
ATOM      7  C   LIG    1       25.645 -20.076   4.054  0.00  0.00    +0.102 C 
ATOM      8  C   LIG    1       24.524 -19.401   3.767  0.00  0.00    +0.105 C 
ENDROOT
TORSDOF 0
ENDMDL
MODEL 5
REMARK VINA RESULT:      -3.3      1.923      2.467
REMARK  Name = *****
REMARK                            x       y       z     vdW  Elec       q    Type
REMARK                         _______ _______ _______ _____ _____    ______ ____
ROOT
ATOM      1  C   LIG    1       22.853 -20.843   6.001  0.00  0.00    +0.151 C 
ATOM      2  N   LIG    1       24.292 -20.740   5.978  0.00  0.00    -0.330 N 
ATOM      3  C   LIG    1       25.096 -20.404   4.867  0.00  0.00    +0.158 C 
ATOM      4  S   LIG    1       24.671 -20.033   3.314  0.00  0.00    -0.013 S 
ATOM      5  N   LIG    1       26.412 -20.446   5.356  0.00  0.00    -0.340 N 
ATOM      6  H   LIG    1       27.231 -20.253   4.799  0.00  0.00    +0.167 HD
ATOM      7  C   LIG    1       26.390 -20.788   6.685  0.00  0.00    +0.102 C 
ATOM      8  C   LIG    1       25.117 -20.965   7.062  0.00  0.00    +0.105 C 
ENDROOT
TORSDOF 0
ENDMDL
MODEL 6
REMARK VINA RESULT:      -3.2      2.249      3.419
REMARK  Name = *****
REMARK                            x       y       z     vdW  Elec       q    Type
REMARK                         _______ _______ _______ _____ _____    ______ ____
ROOT
ATOM      1  C   LIG    1       25.495 -20.018   4.070  0.00  0.00    +0.151 C 
ATOM      2  N   LIG    1       24.728 -20.487   5.197  0.00  0.00    -0.330 N 
ATOM      3  C   LIG    1       23.394 -20.146   5.511  0.00  0.00    +0.158 C 
ATOM      4  S   LIG    1       22.332 -19.154   4.724  0.00  0.00    -0.013 S 
ATOM      5  N   LIG    1       23.116 -20.851   6.694  0.00  0.00    -0.340 N 
ATOM      6  H   LIG    1       22.232 -20.817   7.180  0.00  0.00    +0.167 HD
ATOM      7  C   LIG    1       24.224 -21.572   7.062  0.00  0.00    +0.102 C 
ATOM      8  C   LIG    1       25.195 -21.355   6.164  0.00  0.00    +0.105 C 
ENDROOT
TORSDOF 0
ENDMDL
MODEL 7
REMARK VINA RESULT:      -3.2      0.939      2.381
REMARK  Name = *****
REMARK                            x       y       z     vdW  Elec       q    Type
REMARK                         _______ _______ _______ _____ _____    ______ ____
ROOT
ATOM      1  C   LIG    1       24.998 -19.814   3.696  0.00  0.00    +0.151 C 
ATOM      2  N   LIG    1       24.516 -20.303   4.964  0.00  0.00    -0.330 N 
ATOM      3  C   LIG    1       25.293 -20.604   6.104  0.00  0.00    +0.158 C 
ATOM      4  S   LIG    1       26.924 -20.494   6.344  0.00  0.00    -0.013 S 
ATOM      5  N   LIG    1       24.363 -21.044   7.061  0.00  0.00    -0.340 N 
ATOM      6  H   LIG    1       24.607 -21.339   7.995  0.00  0.00    +0.167 HD
ATOM      7  C   LIG    1       23.103 -21.006   6.519  0.00  0.00    +0.102 C 
ATOM      8  C   LIG    1       23.191 -20.561   5.259  0.00  0.00    +0.105 C 
ENDROOT
TORSDOF 0
ENDMDL
MODEL 8
REMARK VINA RESULT:      -3.1      1.689      2.337
REMARK  Name = *****
REMARK                            x       y       z     vdW  Elec       q    Type
REMARK                         _______ _______ _______ _____ _____    ______ ____
ROOT
ATOM      1  C   LIG    1       26.362 -20.422   6.199  0.00  0.00    +0.151 C 
ATOM      2  N   LIG    1       25.216 -20.450   5.324  0.00  0.00    -0.330 N 
ATOM      3  C   LIG    1       23.925 -20.927   5.639  0.00  0.00    +0.158 C 
ATOM      4  S   LIG    1       23.337 -21.571   7.043  0.00  0.00    -0.013 S 
ATOM      5  N   LIG    1       23.181 -20.741   4.462  0.00  0.00    -0.340 N 
ATOM      6  H   LIG    1       22.207 -20.989   4.361  0.00  0.00    +0.167 HD
ATOM      7  C   LIG    1       23.986 -20.185   3.501  0.00  0.00    +0.102 C 
ATOM      8  C   LIG    1       25.210 -20.007   4.016  0.00  0.00    +0.105 C 
ENDROOT
TORSDOF 0
ENDMDL
MODEL 9
REMARK VINA RESULT:      -3.1      2.215      2.594
REMARK  Name = *****
REMARK                            x       y       z     vdW  Elec       q    Type
REMARK                         _______ _______ _______ _____ _____    ______ ____
ROOT
ATOM      1  C   LIG    1       22.354 -18.803   4.431  0.00  0.00    +0.151 C 
ATOM      2  N   LIG    1       23.450 -19.732   4.552  0.00  0.00    -0.330 N 
ATOM      3  C   LIG    1       24.772 -19.543   4.093  0.00  0.00    +0.158 C 
ATOM      4  S   LIG    1       25.458 -18.258   3.313  0.00  0.00    -0.013 S 
ATOM      5  N   LIG    1       25.443 -20.726   4.445  0.00  0.00    -0.340 N 
ATOM      6  H   LIG    1       26.417 -20.906   4.251  0.00  0.00    +0.167 HD
ATOM      7  C   LIG    1       24.567 -21.572   5.078  0.00  0.00    +0.102 C 
ATOM      8  C   LIG    1       23.368 -20.977   5.145  0.00  0.00    +0.105 C 
ENDROOT
TORSDOF 0
ENDMDL
