MODEL 1
REMARK VINA RESULT:      -9.0      0.000      0.000
REMARK  Name = *****
REMARK                            x       y       z     vdW  Elec       q    Type
REMARK                         _______ _______ _______ _____ _____    ______ ____
ROOT
ATOM      1  C   LIG    1       26.924 -21.499   6.742  0.00  0.00    +0.020 C 
ATOM      2  C   LIG    1       26.067 -20.992   5.714  0.00  0.00    +0.060 C 
ATOM      3  C   LIG    1       26.515 -19.885   4.953  0.00  0.00    +0.046 C 
ATOM      4  C   LIG    1       25.589 -19.223   4.014  0.00  0.00    +0.190 C 
ATOM      5  C   LIG    1       24.157 -19.455   4.231  0.00  0.00    +0.084 C 
ATOM      6  C   LIG    1       23.805 -20.533   4.945  0.00  0.00    +0.131 C 
ATOM      7  O   LIG    1       25.983 -18.467   3.137  0.00  0.00    -0.287 OA
ATOM      8  C   LIG    1       27.781 -19.330   5.114  0.00  0.00    +0.029 C 
ATOM      9  C   LIG    1       28.606 -19.813   6.118  0.00  0.00    +0.065 C 
ATOM     10  C   LIG    1       29.908 -19.166   6.333  0.00  0.00    +0.193 C 
ATOM     11  O   LIG    1       30.294 -18.224   5.655  0.00  0.00    -0.287 OA
ATOM     12  C   LIG    1       30.733 -19.696   7.415  0.00  0.00    +0.105 C 
ATOM     13  C   LIG    1       30.246 -20.695   8.162  0.00  0.00    +0.215 C 
ATOM     14  O   LIG    1       28.992 -21.283   8.000  0.00  0.00    -0.448 OA
ATOM     15  N   LIG    1       24.727 -21.483   5.467  0.00  0.00    -0.335 NA
ATOM     16  C   LIG    1       28.191 -20.864   6.947  0.00  0.00    +0.145 C 
ENDROOT
BRANCH   6  17
ATOM     17  C   LIG    1       22.324 -20.776   5.035  0.00  0.00    +0.354 C 
ATOM     18  O   LIG    1       21.467 -20.043   4.568  0.00  0.00    -0.243 OA
BRANCH  17  19
ATOM     19  O   LIG    1       22.039 -21.928   5.675  0.00  0.00    -0.476 OA
ATOM     20  H   LIG    1       21.665 -22.572   5.045  0.00  0.00    +0.295 HD
ENDBRANCH  17  19
ENDBRANCH   6  17
BRANCH  13  21
ATOM     21  C   LIG    1       31.141 -21.189   9.244  0.00  0.00    +0.373 C 
ATOM     22  O   LIG    1       30.896 -22.154   9.963  0.00  0.00    -0.242 OA
BRANCH  21  23
ATOM     23  O   LIG    1       32.269 -20.462   9.344  0.00  0.00    -0.475 OA
ATOM     24  H   LIG    1       32.598 -20.144   8.477  0.00  0.00    +0.295 HD
ENDBRANCH  21  23
ENDBRANCH  13  21
BRANCH  15  25
ATOM     25  C   LIG    1       24.762 -22.820   4.772  0.00  0.00    +0.119 C 
ATOM     26  C   LIG    1       24.481 -24.002   5.705  0.00  0.00    +0.027 C 
ENDBRANCH  15  25
BRANCH   1  27
ATOM     27  C   LIG    1       26.522 -22.655   7.644  0.00  0.00    +0.041 C 
BRANCH  27  29
ATOM     28  C   LIG    1       25.509 -20.817   9.139  0.00  0.00    +0.004 C 
ATOM     29  C   LIG    1       25.670 -22.303   8.870  0.00  0.00    +0.001 C 
ENDBRANCH  27  29
ENDBRANCH   1  27
TORSDOF 7
ENDMDL
MODEL 2
REMARK VINA RESULT:      -7.1      1.551      6.641
REMARK  Name = *****
REMARK                            x       y       z     vdW  Elec       q    Type
REMARK                         _______ _______ _______ _____ _____    ______ ____
ROOT
ATOM      1  C   LIG    1       26.741 -20.535   7.298  0.00  0.00    +0.020 C 
ATOM      2  C   LIG    1       28.060 -19.991   7.190  0.00  0.00    +0.060 C 
ATOM      3  C   LIG    1       28.424 -19.349   5.982  0.00  0.00    +0.046 C 
ATOM      4  C   LIG    1       29.826 -18.940   5.767  0.00  0.00    +0.190 C 
ATOM      5  C   LIG    1       30.837 -19.597   6.603  0.00  0.00    +0.084 C 
ATOM      6  C   LIG    1       30.423 -20.168   7.742  0.00  0.00    +0.131 C 
ATOM      7  O   LIG    1       30.144 -18.143   4.896  0.00  0.00    -0.287 OA
ATOM      8  C   LIG    1       27.526 -19.158   4.936  0.00  0.00    +0.029 C 
ATOM      9  C   LIG    1       26.252 -19.696   5.036  0.00  0.00    +0.065 C 
ATOM     10  C   LIG    1       25.338 -19.561   3.893  0.00  0.00    +0.193 C 
ATOM     11  O   LIG    1       25.656 -18.983   2.862  0.00  0.00    -0.287 OA
ATOM     12  C   LIG    1       24.015 -20.161   4.037  0.00  0.00    +0.105 C 
ATOM     13  C   LIG    1       23.732 -20.825   5.164  0.00  0.00    +0.215 C 
ATOM     14  O   LIG    1       24.607 -21.004   6.234  0.00  0.00    -0.448 OA
ATOM     15  N   LIG    1       29.080 -20.141   8.209  0.00  0.00    -0.335 NA
ATOM     16  C   LIG    1       25.856 -20.401   6.181  0.00  0.00    +0.145 C 
ENDROOT
BRANCH   6  17
ATOM     17  C   LIG    1       31.521 -20.724   8.605  0.00  0.00    +0.354 C 
ATOM     18  O   LIG    1       32.258 -20.057   9.314  0.00  0.00    -0.243 OA
BRANCH  17  19
ATOM     19  O   LIG    1       31.588 -22.069   8.533  0.00  0.00    -0.476 OA
ATOM     20  H   LIG    1       32.454 -22.338   8.174  0.00  0.00    +0.295 HD
ENDBRANCH  17  19
ENDBRANCH   6  17
BRANCH  13  21
ATOM     21  C   LIG    1       22.364 -21.407   5.244  0.00  0.00    +0.373 C 
ATOM     22  O   LIG    1       21.376 -20.945   4.679  0.00  0.00    -0.242 OA
BRANCH  21  23
ATOM     23  O   LIG    1       22.326 -22.517   6.003  0.00  0.00    -0.475 OA
ATOM     24  H   LIG    1       22.336 -22.325   6.965  0.00  0.00    +0.295 HD
ENDBRANCH  21  23
ENDBRANCH  13  21
BRANCH  15  25
ATOM     25  C   LIG    1       28.807 -19.235   9.382  0.00  0.00    +0.119 C 
ATOM     26  C   LIG    1       29.693 -17.985   9.407  0.00  0.00    +0.027 C 
ENDBRANCH  15  25
BRANCH   1  27
ATOM     27  C   LIG    1       26.264 -21.281   8.534  0.00  0.00    +0.041 C 
BRANCH  27  29
ATOM     28  C   LIG    1       25.849 -23.540   7.364  0.00  0.00    +0.004 C 
ATOM     29  C   LIG    1       26.469 -22.802   8.538  0.00  0.00    +0.001 C 
ENDBRANCH  27  29
ENDBRANCH   1  27
TORSDOF 7
ENDMDL
MODEL 3
REMARK VINA RESULT:      -6.5      9.375     11.063
REMARK  Name = *****
REMARK                            x       y       z     vdW  Elec       q    Type
REMARK                         _______ _______ _______ _____ _____    ______ ____
ROOT
ATOM      1  C   LIG    1       22.798 -28.180  13.125  0.00  0.00    +0.020 C 
ATOM      2  C   LIG    1       22.618 -29.369  12.350  0.00  0.00    +0.060 C 
ATOM      3  C   LIG    1       23.712 -29.845  11.588  0.00  0.00    +0.046 C 
ATOM      4  C   LIG    1       23.512 -30.957  10.639  0.00  0.00    +0.190 C 
ATOM      5  C   LIG    1       22.132 -31.217  10.215  0.00  0.00    +0.084 C 
ATOM      6  C   LIG    1       21.147 -30.754  10.995  0.00  0.00    +0.131 C 
ATOM      7  O   LIG    1       24.449 -31.592  10.175  0.00  0.00    -0.287 OA
ATOM      8  C   LIG    1       24.969 -29.248  11.631  0.00  0.00    +0.029 C 
ATOM      9  C   LIG    1       25.139 -28.089  12.372  0.00  0.00    +0.065 C 
ATOM     10  C   LIG    1       26.447 -27.420  12.345  0.00  0.00    +0.193 C 
ATOM     11  O   LIG    1       27.394 -27.852  11.700  0.00  0.00    -0.287 OA
ATOM     12  C   LIG    1       26.573 -26.191  13.124  0.00  0.00    +0.105 C 
ATOM     13  C   LIG    1       25.496 -25.731  13.772  0.00  0.00    +0.215 C 
ATOM     14  O   LIG    1       24.236 -26.329  13.765  0.00  0.00    -0.448 OA
ATOM     15  N   LIG    1       21.353 -30.065  12.222  0.00  0.00    -0.335 NA
ATOM     16  C   LIG    1       24.074 -27.533  13.094  0.00  0.00    +0.145 C 
ENDROOT
BRANCH   6  17
ATOM     17  C   LIG    1       19.762 -31.150  10.565  0.00  0.00    +0.354 C 
ATOM     18  O   LIG    1       19.226 -32.215  10.831  0.00  0.00    -0.243 OA
BRANCH  17  19
ATOM     19  O   LIG    1       19.151 -30.173   9.865  0.00  0.00    -0.476 OA
ATOM     20  H   LIG    1       19.534 -30.120   8.969  0.00  0.00    +0.295 HD
ENDBRANCH  17  19
ENDBRANCH   6  17
BRANCH  13  21
ATOM     21  C   LIG    1       25.696 -24.477  14.550  0.00  0.00    +0.373 C 
ATOM     22  O   LIG    1       26.602 -23.673  14.350  0.00  0.00    -0.242 OA
BRANCH  21  23
ATOM     23  O   LIG    1       24.759 -24.312  15.500  0.00  0.00    -0.475 OA
ATOM     24  H   LIG    1       24.575 -25.131  16.005  0.00  0.00    +0.295 HD
ENDBRANCH  21  23
ENDBRANCH  13  21
BRANCH  15  25
ATOM     25  C   LIG    1       21.036 -30.840  13.475  0.00  0.00    +0.119 C 
ATOM     26  C   LIG    1       19.649 -30.530  14.050  0.00  0.00    +0.027 C 
ENDBRANCH  15  25
BRANCH   1  27
ATOM     27  C   LIG    1       21.675 -27.562  13.944  0.00  0.00    +0.041 C 
BRANCH  27  29
ATOM     28  C   LIG    1       19.277 -26.626  13.833  0.00  0.00    +0.004 C 
ATOM     29  C   LIG    1       20.639 -26.734  13.172  0.00  0.00    +0.001 C 
ENDBRANCH  27  29
ENDBRANCH   1  27
TORSDOF 7
ENDMDL
MODEL 4
REMARK VINA RESULT:      -6.0      8.900     12.016
REMARK  Name = *****
REMARK                            x       y       z     vdW  Elec       q    Type
REMARK                         _______ _______ _______ _____ _____    ______ ____
ROOT
ATOM      1  C   LIG    1       24.776 -29.383  11.832  0.00  0.00    +0.020 C 
ATOM      2  C   LIG    1       24.261 -28.359  12.689  0.00  0.00    +0.060 C 
ATOM      3  C   LIG    1       22.856 -28.215  12.793  0.00  0.00    +0.046 C 
ATOM      4  C   LIG    1       22.293 -27.061  13.519  0.00  0.00    +0.190 C 
ATOM      5  C   LIG    1       23.182 -25.910  13.713  0.00  0.00    +0.084 C 
ATOM      6  C   LIG    1       24.501 -26.125  13.619  0.00  0.00    +0.131 C 
ATOM      7  O   LIG    1       21.127 -27.031  13.887  0.00  0.00    -0.287 OA
ATOM      8  C   LIG    1       21.967 -29.080  12.160  0.00  0.00    +0.029 C 
ATOM      9  C   LIG    1       22.466 -30.063  11.320  0.00  0.00    +0.065 C 
ATOM     10  C   LIG    1       21.518 -30.917  10.592  0.00  0.00    +0.193 C 
ATOM     11  O   LIG    1       20.305 -30.799  10.706  0.00  0.00    -0.287 OA
ATOM     12  C   LIG    1       22.090 -31.925   9.704  0.00  0.00    +0.105 C 
ATOM     13  C   LIG    1       23.421 -31.983   9.574  0.00  0.00    +0.215 C 
ATOM     14  O   LIG    1       24.330 -31.145  10.219  0.00  0.00    -0.448 OA
ATOM     15  N   LIG    1       25.091 -27.397  13.385  0.00  0.00    -0.335 NA
ATOM     16  C   LIG    1       23.847 -30.211  11.125  0.00  0.00    +0.145 C 
ENDROOT
BRANCH   6  17
ATOM     17  C   LIG    1       25.359 -24.932  13.940  0.00  0.00    +0.354 C 
ATOM     18  O   LIG    1       25.199 -24.194  14.900  0.00  0.00    -0.243 OA
BRANCH  17  19
ATOM     19  O   LIG    1       26.362 -24.778  13.052  0.00  0.00    -0.476 OA
ATOM     20  H   LIG    1       25.994 -24.595  12.167  0.00  0.00    +0.295 HD
ENDBRANCH  17  19
ENDBRANCH   6  17
BRANCH  13  21
ATOM     21  C   LIG    1       23.935 -33.036   8.655  0.00  0.00    +0.373 C 
ATOM     22  O   LIG    1       25.045 -33.554   8.744  0.00  0.00    -0.242 OA
BRANCH  21  23
ATOM     23  O   LIG    1       23.037 -33.372   7.712  0.00  0.00    -0.475 OA
ATOM     24  H   LIG    1       23.096 -34.313   7.444  0.00  0.00    +0.295 HD
ENDBRANCH  21  23
ENDBRANCH  13  21
BRANCH  15  25
ATOM     25  C   LIG    1       25.778 -28.034  14.566  0.00  0.00    +0.119 C 
ATOM     26  C   LIG    1       27.301 -27.859  14.554  0.00  0.00    +0.027 C 
ENDBRANCH  15  25
BRANCH   1  27
ATOM     27  C   LIG    1       26.267 -29.594  11.616  0.00  0.00    +0.041 C 
BRANCH  27  29
ATOM     28  C   LIG    1       26.536 -28.478   9.309  0.00  0.00    +0.004 C 
ATOM     29  C   LIG    1       26.989 -28.548  10.757  0.00  0.00    +0.001 C 
ENDBRANCH  27  29
ENDBRANCH   1  27
TORSDOF 7
ENDMDL
