MODEL 1
REMARK VINA RESULT:      44.1      0.000      0.000
REMARK  Name = *****
REMARK                            x       y       z     vdW  Elec       q    Type
REMARK                         _______ _______ _______ _____ _____    ______ ____
ROOT
ATOM      1  C   LIG    1       20.700 -17.706   4.492  0.00  0.00    +0.132 C 
ATOM      2  C   LIG    1       22.231 -17.596   4.820  0.00  0.00    +0.012 C 
ATOM      3  C   LIG    1       22.658 -18.626   5.880  0.00  0.00    +0.015 C 
ATOM      4  C   LIG    1       22.321 -16.154   5.367  0.00  0.00    +0.006 C 
ATOM      5  C   LIG    1       23.762 -15.600   5.485  0.00  0.00    +0.020 C 
ATOM      6  C   LIG    1       24.605 -15.797   4.218  0.00  0.00    -0.055 C 
ATOM      7  C   LIG    1       24.557 -17.215   3.630  0.00  0.00    +0.046 C 
ATOM      8  C   LIG    1       25.345 -14.797   3.672  0.00  0.00    -0.044 C 
ATOM      9  C   LIG    1       25.494 -13.512   4.359  0.00  0.00    -0.041 C 
ATOM     10  C   LIG    1       26.021 -12.424   3.779  0.00  0.00    +0.050 C 
ATOM     11  C   LIG    1       26.629 -12.509   2.437  0.00  0.00    +0.157 C 
ATOM     12  O   LIG    1       26.880 -11.482   1.812  0.00  0.00    -0.293 OA
ATOM     13  C   LIG    1       27.063 -13.870   1.976  0.00  0.00    +0.083 C 
ATOM     14  C   LIG    1       25.061 -13.461   5.803  0.00  0.00    +0.036 C 
ATOM     15  C   LIG    1       26.031 -14.932   2.322  0.00  0.00    +0.043 C 
ATOM     16  C   LIG    1       23.715 -14.137   5.968  0.00  0.00    +0.013 C 
ATOM     17  C   LIG    1       21.383 -15.353   4.441  0.00  0.00    +0.008 C 
ATOM     18  C   LIG    1       23.104 -17.729   3.538  0.00  0.00    +0.023 C 
ATOM     19  C   LIG    1       20.338 -16.337   3.902  0.00  0.00    +0.049 C 
ENDROOT
BRANCH   7  20
ATOM     20  C   LIG    1       25.550 -18.207   4.249  0.00  0.00    -0.040 A 
ATOM     21  C   LIG    1       25.190 -19.495   4.668  0.00  0.00    +0.006 A 
ATOM     22  C   LIG    1       26.129 -20.372   5.234  0.00  0.00    +0.023 A 
ATOM     23  C   LIG    1       27.460 -19.989   5.433  0.00  0.00    +0.029 A 
ATOM     24  C   LIG    1       27.811 -18.689   5.048  0.00  0.00    +0.023 A 
ATOM     25  C   LIG    1       26.879 -17.814   4.474  0.00  0.00    +0.006 A 
BRANCH  23  26
ATOM     26  N   LIG    1       28.438 -20.829   5.989  0.00  0.00    -0.336 N 
ATOM     27  C   LIG    1       29.188 -21.568   4.969  0.00  0.00    +0.129 C 
ATOM     28  C   LIG    1       29.263 -20.276   7.062  0.00  0.00    +0.129 C 
ENDBRANCH  23  26
ENDBRANCH   7  20
BRANCH   1  31
ATOM     29  C   LIG    1       19.417 -20.820   2.172  0.00  0.00    +0.106 C 
ATOM     30  C   LIG    1       19.950 -19.718   2.938  0.00  0.00    -0.103 C 
ATOM     31  C   LIG    1       20.391 -18.810   3.569  0.00  0.00    -0.067 C 
ENDBRANCH   1  31
BRANCH   1  32
ATOM     32  O   LIG    1       19.943 -17.874   5.691  0.00  0.00    -0.376 OA
ATOM     33  H   LIG    1       19.173 -18.423   5.463  0.00  0.00    +0.211 HD
ENDBRANCH   1  32
TORSDOF 4
ENDMDL
