MODEL 1
REMARK VINA RESULT:      -9.9      0.000      0.000
REMARK  Name = *****
REMARK                            x       y       z     vdW  Elec       q    Type
REMARK                         _______ _______ _______ _____ _____    ______ ____
ROOT
ATOM      1  N   UNK A  0       25.558 -23.324   5.786  0.00  0.00    -0.342 N 
ATOM      2  H   UNK A  0       25.601 -22.889   6.705  0.00  0.00    +0.146 HD
ENDROOT
BRANCH   1   3
ATOM      3  C   UNK A  0       25.436 -24.714   5.880  0.00  0.00    +0.027 A 
ATOM      4  C   UNK A  0       24.554 -25.392   5.028  0.00  0.00    +0.024 A 
ATOM      5  C   UNK A  0       24.342 -26.774   5.154  0.00  0.00    +0.015 A 
ATOM      6  C   UNK A  0       24.989 -27.497   6.162  0.00  0.00    +0.037 A 
ATOM      7  C   UNK A  0       25.866 -26.833   7.016  0.00  0.00    +0.015 A 
ATOM      8  C   UNK A  0       26.063 -25.457   6.886  0.00  0.00    +0.024 A 
BRANCH   6   9
ATOM      9  C   UNK A  0       24.679 -28.954   6.311  0.00  0.00    +0.245 C 
ATOM     10  N   GLU A  1       25.669 -29.742   6.863  0.00  0.00    -0.298 N 
ATOM     11  H   GLU A  1       26.611 -29.389   6.938  0.00  0.00    +0.150 HD
ATOM     12  O   UNK A  0       23.592 -29.390   5.984  0.00  0.00    -0.270 OA
BRANCH  10  13
ATOM     13  CA  GLU A  1       25.474 -31.179   7.035  0.00  0.00    +0.182 C 
BRANCH  13  14
ATOM     14  C   GLU A  1       25.980 -31.920   5.782  0.00  0.00    +0.325 C 
ATOM     15  O   GLU A  1       27.007 -32.571   5.737  0.00  0.00    -0.249 OA
BRANCH  14  16
ATOM     16  OXT GLU A  1       25.120 -31.858   4.729  0.00  0.00    -0.479 OA
ATOM     17  HXT GLU A  1       25.538 -31.965   3.854  0.00  0.00    +0.295 HD
ENDBRANCH  14  16
ENDBRANCH  13  14
BRANCH  13  18
ATOM     18  CB  GLU A  1       26.234 -31.699   8.264  0.00  0.00    +0.045 C 
BRANCH  18  19
ATOM     19  CG  GLU A  1       25.974 -30.885   9.526  0.00  0.00    +0.123 C 
BRANCH  19  20
ATOM     20  CD  GLU A  1       27.184 -30.066   9.899  0.00  0.00    +0.305 C 
ATOM     21  OE1 GLU A  1       28.055 -30.362  10.696  0.00  0.00    -0.251 OA
BRANCH  20  22
ATOM     22  OE2 GLU A  1       27.229 -28.884   9.235  0.00  0.00    -0.481 OA
ATOM     23  HE2 GLU A  1       28.018 -28.437   9.607  0.00  0.00    +0.295 HD
ENDBRANCH  20  22
ENDBRANCH  19  20
ENDBRANCH  18  19
ENDBRANCH  13  18
ENDBRANCH  10  13
ENDBRANCH   6   9
ENDBRANCH   1   3
BRANCH   1  24
ATOM     24  C   UNK A  0       24.673 -22.591   4.869  0.00  0.00    +0.126 C 
BRANCH  24  32
ATOM     25  C   UNK A  0       28.962 -20.035   6.676  0.00  0.00    +0.195 C 
ATOM     26  N   UNK A  0       28.405 -20.396   7.853  0.00  0.00    -0.294 N 
ATOM     27  H   UNK A  0       28.949 -20.340   8.698  0.00  0.00    +0.172 HD
ATOM     28  C   UNK A  0       27.053 -20.431   8.017  0.00  0.00    +0.276 C 
ATOM     29  O   UNK A  0       26.574 -20.383   9.142  0.00  0.00    -0.266 OA
ATOM     30  C   UNK A  0       26.252 -20.502   6.755  0.00  0.00    +0.142 C 
ATOM     31  N   UNK A  0       24.899 -20.897   6.718  0.00  0.00    -0.261 N 
ATOM     32  C   UNK A  0       24.309 -21.164   5.372  0.00  0.00    +0.115 C 
ATOM     33  C   UNK A  0       24.814 -20.128   4.349  0.00  0.00    +0.127 C 
ATOM     34  N   UNK A  0       26.267 -20.099   4.403  0.00  0.00    -0.326 N 
ATOM     35  H   UNK A  0       26.742 -19.465   3.765  0.00  0.00    +0.148 HD
ATOM     36  C   UNK A  0       24.110 -21.172   7.821  0.00  0.00    +0.333 C 
ATOM     37  O   UNK A  0       22.943 -21.555   7.775  0.00  0.00    -0.279 OA
ATOM     38  C   UNK A  0       26.930 -20.152   5.625  0.00  0.00    +0.149 C 
ATOM     39  N   UNK A  0       28.271 -19.863   5.601  0.00  0.00    -0.199 NA
BRANCH  25  40
ATOM     40  N   UNK A  0       30.305 -19.863   6.673  0.00  0.00    -0.329 N 
ATOM     41  H   UNK A  0       30.645 -19.043   7.160  0.00  0.00    +0.145 HD
ATOM     42  H   UNK A  0       30.786 -20.708   6.972  0.00  0.00    +0.145 HD
ENDBRANCH  25  40
ENDBRANCH  24  32
ENDBRANCH   1  24
TORSDOF 12
ENDMDL
MODEL 2
REMARK VINA RESULT:      -9.3      1.205      2.561
REMARK  Name = *****
REMARK                            x       y       z     vdW  Elec       q    Type
REMARK                         _______ _______ _______ _____ _____    ______ ____
ROOT
ATOM      1  N   UNK A  0       24.117 -23.679   5.990  0.00  0.00    -0.342 N 
ATOM      2  H   UNK A  0       23.102 -23.632   5.920  0.00  0.00    +0.146 HD
ENDROOT
BRANCH   1   3
ATOM      3  C   UNK A  0       24.572 -25.001   6.014  0.00  0.00    +0.027 A 
ATOM      4  C   UNK A  0       23.891 -25.982   5.280  0.00  0.00    +0.024 A 
ATOM      5  C   UNK A  0       24.267 -27.332   5.351  0.00  0.00    +0.015 A 
ATOM      6  C   UNK A  0       25.316 -27.728   6.189  0.00  0.00    +0.037 A 
ATOM      7  C   UNK A  0       25.998 -26.762   6.924  0.00  0.00    +0.015 A 
ATOM      8  C   UNK A  0       25.610 -25.423   6.852  0.00  0.00    +0.024 A 
BRANCH   6   9
ATOM      9  C   UNK A  0       25.638 -29.187   6.295  0.00  0.00    +0.245 C 
ATOM     10  N   GLU A  1       25.779 -29.695   7.570  0.00  0.00    -0.298 N 
ATOM     11  H   GLU A  1       25.887 -29.070   8.354  0.00  0.00    +0.150 HD
ATOM     12  O   UNK A  0       25.733 -29.871   5.295  0.00  0.00    -0.270 OA
BRANCH  10  13
ATOM     13  CA  GLU A  1       26.111 -31.101   7.783  0.00  0.00    +0.182 C 
BRANCH  13  14
ATOM     14  C   GLU A  1       26.978 -31.240   9.049  0.00  0.00    +0.325 C 
ATOM     15  O   GLU A  1       27.339 -32.302   9.523  0.00  0.00    -0.249 OA
BRANCH  14  16
ATOM     16  OXT GLU A  1       27.389 -30.047   9.560  0.00  0.00    -0.479 OA
ATOM     17  HXT GLU A  1       26.877 -29.275   9.258  0.00  0.00    +0.295 HD
ENDBRANCH  14  16
ENDBRANCH  13  14
BRANCH  13  18
ATOM     18  CB  GLU A  1       24.843 -31.952   7.952  0.00  0.00    +0.045 C 
BRANCH  18  19
ATOM     19  CG  GLU A  1       24.671 -33.004   6.862  0.00  0.00    +0.123 C 
BRANCH  19  20
ATOM     20  CD  GLU A  1       23.395 -32.780   6.092  0.00  0.00    +0.305 C 
ATOM     21  OE1 GLU A  1       22.532 -33.602   5.841  0.00  0.00    -0.251 OA
BRANCH  20  22
ATOM     22  OE2 GLU A  1       23.273 -31.499   5.661  0.00  0.00    -0.481 OA
ATOM     23  HE2 GLU A  1       23.581 -30.966   6.423  0.00  0.00    +0.295 HD
ENDBRANCH  20  22
ENDBRANCH  19  20
ENDBRANCH  18  19
ENDBRANCH  13  18
ENDBRANCH  10  13
ENDBRANCH   6   9
ENDBRANCH   1   3
BRANCH   1  24
ATOM     24  C   UNK A  0       24.776 -22.713   5.098  0.00  0.00    +0.126 C 
BRANCH  24  32
ATOM     25  C   UNK A  0       29.081 -20.094   6.774  0.00  0.00    +0.195 C 
ATOM     26  N   UNK A  0       28.477 -20.315   7.962  0.00  0.00    -0.294 N 
ATOM     27  H   UNK A  0       28.996 -20.184   8.815  0.00  0.00    +0.172 HD
ATOM     28  C   UNK A  0       27.120 -20.296   8.082  0.00  0.00    +0.276 C 
ATOM     29  O   UNK A  0       26.608 -20.117   9.179  0.00  0.00    -0.266 OA
ATOM     30  C   UNK A  0       26.357 -20.479   6.808  0.00  0.00    +0.142 C 
ATOM     31  N   UNK A  0       24.995 -20.839   6.766  0.00  0.00    -0.261 N 
ATOM     32  C   UNK A  0       24.440 -21.232   5.436  0.00  0.00    +0.115 C 
ATOM     33  C   UNK A  0       25.007 -20.324   4.328  0.00  0.00    +0.127 C 
ATOM     34  N   UNK A  0       26.457 -20.327   4.428  0.00  0.00    -0.326 N 
ATOM     35  H   UNK A  0       26.971 -19.777   3.744  0.00  0.00    +0.148 HD
ATOM     36  C   UNK A  0       24.163 -20.976   7.865  0.00  0.00    +0.333 C 
ATOM     37  O   UNK A  0       22.988 -21.331   7.819  0.00  0.00    -0.279 OA
ATOM     38  C   UNK A  0       27.081 -20.269   5.672  0.00  0.00    +0.149 C 
ATOM     39  N   UNK A  0       28.429 -20.019   5.663  0.00  0.00    -0.199 NA
BRANCH  25  40
ATOM     40  N   UNK A  0       30.429 -19.960   6.798  0.00  0.00    -0.329 N 
ATOM     41  H   UNK A  0       30.945 -20.767   7.125  0.00  0.00    +0.145 HD
ATOM     42  H   UNK A  0       30.782 -19.620   5.908  0.00  0.00    +0.145 HD
ENDBRANCH  25  40
ENDBRANCH  24  32
ENDBRANCH   1  24
TORSDOF 12
ENDMDL
MODEL 3
REMARK VINA RESULT:      -9.2      2.725     10.024
REMARK  Name = *****
REMARK                            x       y       z     vdW  Elec       q    Type
REMARK                         _______ _______ _______ _____ _____    ______ ____
ROOT
ATOM      1  N   UNK A  0       25.748 -29.118   6.342  0.00  0.00    -0.342 N 
ATOM      2  H   UNK A  0       26.135 -29.411   5.447  0.00  0.00    +0.146 HD
ENDROOT
BRANCH   1   3
ATOM      3  C   UNK A  0       25.426 -27.757   6.344  0.00  0.00    +0.027 A 
ATOM      4  C   UNK A  0       26.183 -26.867   7.117  0.00  0.00    +0.024 A 
ATOM      5  C   UNK A  0       25.834 -25.510   7.210  0.00  0.00    +0.015 A 
ATOM      6  C   UNK A  0       24.696 -25.029   6.554  0.00  0.00    +0.037 A 
ATOM      7  C   UNK A  0       23.935 -25.906   5.786  0.00  0.00    +0.015 A 
ATOM      8  C   UNK A  0       24.287 -27.254   5.705  0.00  0.00    +0.024 A 
BRANCH   6   9
ATOM      9  C   UNK A  0       24.314 -23.593   6.740  0.00  0.00    +0.245 C 
ATOM     10  N   GLU A  1       25.344 -22.673   6.710  0.00  0.00    -0.298 N 
ATOM     11  H   GLU A  1       26.300 -22.983   6.790  0.00  0.00    +0.150 HD
ATOM     12  O   UNK A  0       23.149 -23.277   6.878  0.00  0.00    -0.270 OA
BRANCH  10  13
ATOM     13  CA  GLU A  1       25.081 -21.249   6.899  0.00  0.00    +0.182 C 
BRANCH  13  14
ATOM     14  C   GLU A  1       26.017 -20.694   7.990  0.00  0.00    +0.325 C 
ATOM     15  O   GLU A  1       25.812 -20.792   9.186  0.00  0.00    -0.249 OA
BRANCH  14  16
ATOM     16  OXT GLU A  1       27.162 -20.147   7.499  0.00  0.00    -0.479 OA
ATOM     17  HXT GLU A  1       27.972 -20.388   7.986  0.00  0.00    +0.295 HD
ENDBRANCH  14  16
ENDBRANCH  13  14
BRANCH  13  18
ATOM     18  CB  GLU A  1       25.310 -20.464   5.600  0.00  0.00    +0.045 C 
BRANCH  18  19
ATOM     19  CG  GLU A  1       24.260 -20.747   4.530  0.00  0.00    +0.123 C 
BRANCH  19  20
ATOM     20  CD  GLU A  1       22.882 -20.372   5.013  0.00  0.00    +0.305 C 
ATOM     21  OE1 GLU A  1       22.509 -19.279   5.397  0.00  0.00    -0.251 OA
BRANCH  20  22
ATOM     22  OE2 GLU A  1       22.027 -21.425   4.992  0.00  0.00    -0.481 OA
ATOM     23  HE2 GLU A  1       22.364 -21.985   4.262  0.00  0.00    +0.295 HD
ENDBRANCH  20  22
ENDBRANCH  19  20
ENDBRANCH  18  19
ENDBRANCH  13  18
ENDBRANCH  10  13
ENDBRANCH   6   9
ENDBRANCH   1   3
BRANCH   1  24
ATOM     24  C   UNK A  0       24.769 -30.084   6.863  0.00  0.00    +0.126 C 
BRANCH  24  32
ATOM     25  C   UNK A  0       21.219 -30.679  10.767  0.00  0.00    +0.195 C 
ATOM     26  N   UNK A  0       22.025 -29.755  11.337  0.00  0.00    -0.294 N 
ATOM     27  H   UNK A  0       21.709 -29.256  12.151  0.00  0.00    +0.172 HD
ATOM     28  C   UNK A  0       23.371 -29.762  11.127  0.00  0.00    +0.276 C 
ATOM     29  O   UNK A  0       24.113 -29.191  11.915  0.00  0.00    -0.266 OA
ATOM     30  C   UNK A  0       23.832 -30.518   9.921  0.00  0.00    +0.142 C 
ATOM     31  N   UNK A  0       25.108 -30.351   9.344  0.00  0.00    -0.261 N 
ATOM     32  C   UNK A  0       25.332 -30.977   8.006  0.00  0.00    +0.115 C 
ATOM     33  C   UNK A  0       24.656 -32.360   7.940  0.00  0.00    +0.127 C 
ATOM     34  N   UNK A  0       23.266 -32.213   8.339  0.00  0.00    -0.326 N 
ATOM     35  H   UNK A  0       22.688 -33.050   8.328  0.00  0.00    +0.148 HD
ATOM     36  C   UNK A  0       26.125 -29.562   9.853  0.00  0.00    +0.333 C 
ATOM     37  O   UNK A  0       27.219 -29.393   9.319  0.00  0.00    -0.279 OA
ATOM     38  C   UNK A  0       22.920 -31.393   9.409  0.00  0.00    +0.149 C 
ATOM     39  N   UNK A  0       21.635 -31.511   9.873  0.00  0.00    -0.199 NA
BRANCH  25  40
ATOM     40  N   UNK A  0       19.929 -30.690  11.179  0.00  0.00    -0.329 N 
ATOM     41  H   UNK A  0       19.285 -30.146  10.619  0.00  0.00    +0.145 HD
ATOM     42  H   UNK A  0       19.596 -31.639  11.325  0.00  0.00    +0.145 HD
ENDBRANCH  25  40
ENDBRANCH  24  32
ENDBRANCH   1  24
TORSDOF 12
ENDMDL
MODEL 4
REMARK VINA RESULT:      -9.1      2.801     10.041
REMARK  Name = *****
REMARK                            x       y       z     vdW  Elec       q    Type
REMARK                         _______ _______ _______ _____ _____    ______ ____
ROOT
ATOM      1  N   UNK A  0       25.585 -28.789   5.780  0.00  0.00    -0.342 N 
ATOM      2  H   UNK A  0       25.527 -29.160   4.834  0.00  0.00    +0.146 HD
ENDROOT
BRANCH   1   3
ATOM      3  C   UNK A  0       25.609 -27.391   5.785  0.00  0.00    +0.027 A 
ATOM      4  C   UNK A  0       25.907 -26.707   6.971  0.00  0.00    +0.024 A 
ATOM      5  C   UNK A  0       25.854 -25.305   7.033  0.00  0.00    +0.015 A 
ATOM      6  C   UNK A  0       25.467 -24.565   5.911  0.00  0.00    +0.037 A 
ATOM      7  C   UNK A  0       25.165 -25.234   4.728  0.00  0.00    +0.015 A 
ATOM      8  C   UNK A  0       25.214 -26.629   4.679  0.00  0.00    +0.024 A 
BRANCH   6   9
ATOM      9  C   UNK A  0       25.349 -23.078   6.039  0.00  0.00    +0.245 C 
ATOM     10  N   GLU A  1       26.342 -22.440   6.755  0.00  0.00    -0.298 N 
ATOM     11  H   GLU A  1       26.966 -22.975   7.339  0.00  0.00    +0.150 HD
ATOM     12  O   UNK A  0       24.433 -22.483   5.504  0.00  0.00    -0.270 OA
BRANCH  10  13
ATOM     13  CA  GLU A  1       26.311 -20.994   6.954  0.00  0.00    +0.182 C 
BRANCH  13  14
ATOM     14  C   GLU A  1       25.510 -20.668   8.229  0.00  0.00    +0.325 C 
ATOM     15  O   GLU A  1       26.010 -20.425   9.312  0.00  0.00    -0.249 OA
BRANCH  14  16
ATOM     16  OXT GLU A  1       24.167 -20.587   8.023  0.00  0.00    -0.479 OA
ATOM     17  HXT GLU A  1       23.874 -20.850   7.131  0.00  0.00    +0.295 HD
ENDBRANCH  14  16
ENDBRANCH  13  14
BRANCH  13  18
ATOM     18  CB  GLU A  1       27.729 -20.422   7.096  0.00  0.00    +0.045 C 
BRANCH  18  19
ATOM     19  CG  GLU A  1       28.249 -19.771   5.819  0.00  0.00    +0.123 C 
BRANCH  19  20
ATOM     20  CD  GLU A  1       29.396 -18.839   6.117  0.00  0.00    +0.305 C 
ATOM     21  OE1 GLU A  1       30.071 -18.802   7.128  0.00  0.00    -0.251 OA
BRANCH  20  22
ATOM     22  OE2 GLU A  1       29.632 -17.974   5.098  0.00  0.00    -0.481 OA
ATOM     23  HE2 GLU A  1       30.382 -17.431   5.421  0.00  0.00    +0.295 HD
ENDBRANCH  20  22
ENDBRANCH  19  20
ENDBRANCH  18  19
ENDBRANCH  13  18
ENDBRANCH  10  13
ENDBRANCH   6   9
ENDBRANCH   1   3
BRANCH   1  24
ATOM     24  C   UNK A  0       24.681 -29.490   6.705  0.00  0.00    +0.126 C 
BRANCH  24  32
ATOM     25  C   UNK A  0       21.410 -31.247  10.501  0.00  0.00    +0.195 C 
ATOM     26  N   UNK A  0       22.065 -30.290  11.195  0.00  0.00    -0.294 N 
ATOM     27  H   UNK A  0       21.695 -29.976  12.077  0.00  0.00    +0.172 HD
ATOM     28  C   UNK A  0       23.385 -30.035  10.978  0.00  0.00    +0.276 C 
ATOM     29  O   UNK A  0       24.045 -29.464  11.837  0.00  0.00    -0.266 OA
ATOM     30  C   UNK A  0       23.929 -30.517   9.670  0.00  0.00    +0.142 C 
ATOM     31  N   UNK A  0       25.139 -30.051   9.116  0.00  0.00    -0.261 N 
ATOM     32  C   UNK A  0       25.424 -30.428   7.699  0.00  0.00    +0.115 C 
ATOM     33  C   UNK A  0       24.990 -31.884   7.434  0.00  0.00    +0.127 C 
ATOM     34  N   UNK A  0       23.609 -32.037   7.859  0.00  0.00    -0.326 N 
ATOM     35  H   UNK A  0       23.182 -32.951   7.728  0.00  0.00    +0.148 HD
ATOM     36  C   UNK A  0       26.024 -29.180   9.729  0.00  0.00    +0.333 C 
ATOM     37  O   UNK A  0       27.056 -28.749   9.219  0.00  0.00    -0.279 OA
ATOM     38  C   UNK A  0       23.163 -31.453   9.041  0.00  0.00    +0.149 C 
ATOM     39  N   UNK A  0       21.933 -31.857   9.491  0.00  0.00    -0.199 NA
BRANCH  25  40
ATOM     40  N   UNK A  0       20.155 -31.539  10.915  0.00  0.00    -0.329 N 
ATOM     41  H   UNK A  0       19.880 -32.511  10.834  0.00  0.00    +0.145 HD
ATOM     42  H   UNK A  0       19.979 -31.173  11.847  0.00  0.00    +0.145 HD
ENDBRANCH  25  40
ENDBRANCH  24  32
ENDBRANCH   1  24
TORSDOF 12
ENDMDL
MODEL 5
REMARK VINA RESULT:      -9.1      1.643      2.328
REMARK  Name = *****
REMARK                            x       y       z     vdW  Elec       q    Type
REMARK                         _______ _______ _______ _____ _____    ______ ____
ROOT
ATOM      1  N   UNK A  0       25.512 -23.346   5.796  0.00  0.00    -0.342 N 
ATOM      2  H   UNK A  0       25.672 -22.827   6.658  0.00  0.00    +0.146 HD
ENDROOT
BRANCH   1   3
ATOM      3  C   UNK A  0       25.308 -24.707   6.045  0.00  0.00    +0.027 A 
ATOM      4  C   UNK A  0       26.181 -25.393   6.901  0.00  0.00    +0.024 A 
ATOM      5  C   UNK A  0       26.058 -26.777   7.104  0.00  0.00    +0.015 A 
ATOM      6  C   UNK A  0       25.076 -27.504   6.423  0.00  0.00    +0.037 A 
ATOM      7  C   UNK A  0       24.206 -26.833   5.568  0.00  0.00    +0.015 A 
ATOM      8  C   UNK A  0       24.341 -25.458   5.368  0.00  0.00    +0.024 A 
BRANCH   6   9
ATOM      9  C   UNK A  0       25.027 -28.990   6.608  0.00  0.00    +0.245 C 
ATOM     10  N   GLU A  1       25.458 -29.473   7.827  0.00  0.00    -0.298 N 
ATOM     11  H   GLU A  1       25.984 -28.878   8.449  0.00  0.00    +0.150 HD
ATOM     12  O   UNK A  0       24.596 -29.707   5.726  0.00  0.00    -0.270 OA
BRANCH  10  13
ATOM     13  CA  GLU A  1       25.468 -30.907   8.102  0.00  0.00    +0.182 C 
BRANCH  13  14
ATOM     14  C   GLU A  1       26.694 -31.257   8.968  0.00  0.00    +0.325 C 
ATOM     15  O   GLU A  1       27.030 -32.390   9.258  0.00  0.00    -0.249 OA
BRANCH  14  16
ATOM     16  OXT GLU A  1       27.440 -30.173   9.319  0.00  0.00    -0.479 OA
ATOM     17  HXT GLU A  1       26.958 -29.494   9.826  0.00  0.00    +0.295 HD
ENDBRANCH  14  16
ENDBRANCH  13  14
BRANCH  13  18
ATOM     18  CB  GLU A  1       24.195 -31.339   8.844  0.00  0.00    +0.045 C 
BRANCH  18  19
ATOM     19  CG  GLU A  1       23.608 -30.244   9.727  0.00  0.00    +0.123 C 
BRANCH  19  20
ATOM     20  CD  GLU A  1       22.504 -30.786  10.598  0.00  0.00    +0.305 C 
ATOM     21  OE1 GLU A  1       22.584 -31.119  11.766  0.00  0.00    -0.251 OA
BRANCH  20  22
ATOM     22  OE2 GLU A  1       21.327 -30.888   9.931  0.00  0.00    -0.481 OA
ATOM     23  HE2 GLU A  1       21.561 -30.660   9.007  0.00  0.00    +0.295 HD
ENDBRANCH  20  22
ENDBRANCH  19  20
ENDBRANCH  18  19
ENDBRANCH  13  18
ENDBRANCH  10  13
ENDBRANCH   6   9
ENDBRANCH   1   3
BRANCH   1  24
ATOM     24  C   UNK A  0       24.593 -22.641   4.890  0.00  0.00    +0.126 C 
BRANCH  24  32
ATOM     25  C   UNK A  0       28.884 -20.059   6.654  0.00  0.00    +0.195 C 
ATOM     26  N   UNK A  0       28.328 -20.403   7.837  0.00  0.00    -0.294 N 
ATOM     27  H   UNK A  0       28.873 -20.334   8.680  0.00  0.00    +0.172 HD
ATOM     28  C   UNK A  0       26.977 -20.435   8.002  0.00  0.00    +0.276 C 
ATOM     29  O   UNK A  0       26.499 -20.370   9.128  0.00  0.00    -0.266 OA
ATOM     30  C   UNK A  0       26.174 -20.524   6.742  0.00  0.00    +0.142 C 
ATOM     31  N   UNK A  0       24.821 -20.919   6.713  0.00  0.00    -0.261 N 
ATOM     32  C   UNK A  0       24.230 -21.207   5.372  0.00  0.00    +0.115 C 
ATOM     33  C   UNK A  0       24.734 -20.187   4.333  0.00  0.00    +0.127 C 
ATOM     34  N   UNK A  0       26.186 -20.157   4.384  0.00  0.00    -0.326 N 
ATOM     35  H   UNK A  0       26.662 -19.533   3.737  0.00  0.00    +0.148 HD
ATOM     36  C   UNK A  0       24.033 -21.178   7.821  0.00  0.00    +0.333 C 
ATOM     37  O   UNK A  0       22.866 -21.562   7.781  0.00  0.00    -0.279 OA
ATOM     38  C   UNK A  0       26.851 -20.192   5.607  0.00  0.00    +0.149 C 
ATOM     39  N   UNK A  0       28.192 -19.904   5.577  0.00  0.00    -0.199 NA
BRANCH  25  40
ATOM     40  N   UNK A  0       30.228 -19.889   6.647  0.00  0.00    -0.329 N 
ATOM     41  H   UNK A  0       30.600 -19.368   5.862  0.00  0.00    +0.145 HD
ATOM     42  H   UNK A  0       30.557 -19.522   7.536  0.00  0.00    +0.145 HD
ENDBRANCH  25  40
ENDBRANCH  24  32
ENDBRANCH   1  24
TORSDOF 12
ENDMDL
MODEL 6
REMARK VINA RESULT:      -8.7      2.751      9.272
REMARK  Name = *****
REMARK                            x       y       z     vdW  Elec       q    Type
REMARK                         _______ _______ _______ _____ _____    ______ ____
ROOT
ATOM      1  N   UNK A  0       24.949 -29.545   7.205  0.00  0.00    -0.342 N 
ATOM      2  H   UNK A  0       24.859 -30.117   6.367  0.00  0.00    +0.146 HD
ENDROOT
BRANCH   1   3
ATOM      3  C   UNK A  0       25.091 -28.190   6.892  0.00  0.00    +0.027 A 
ATOM      4  C   UNK A  0       26.089 -27.434   7.521  0.00  0.00    +0.024 A 
ATOM      5  C   UNK A  0       26.203 -26.053   7.296  0.00  0.00    +0.015 A 
ATOM      6  C   UNK A  0       25.293 -25.398   6.459  0.00  0.00    +0.037 A 
ATOM      7  C   UNK A  0       24.295 -26.139   5.831  0.00  0.00    +0.015 A 
ATOM      8  C   UNK A  0       24.187 -27.511   6.068  0.00  0.00    +0.024 A 
BRANCH   6   9
ATOM      9  C   UNK A  0       25.402 -23.913   6.305  0.00  0.00    +0.245 C 
ATOM     10  N   GLU A  1       26.284 -23.269   7.149  0.00  0.00    -0.298 N 
ATOM     11  H   GLU A  1       26.647 -23.746   7.960  0.00  0.00    +0.150 HD
ATOM     12  O   UNK A  0       24.758 -23.333   5.453  0.00  0.00    -0.270 OA
BRANCH  10  13
ATOM     13  CA  GLU A  1       26.451 -21.819   7.093  0.00  0.00    +0.182 C 
BRANCH  13  14
ATOM     14  C   GLU A  1       25.558 -21.156   8.160  0.00  0.00    +0.325 C 
ATOM     15  O   GLU A  1       25.954 -20.770   9.244  0.00  0.00    -0.249 OA
BRANCH  14  16
ATOM     16  OXT GLU A  1       24.276 -20.956   7.748  0.00  0.00    -0.479 OA
ATOM     17  HXT GLU A  1       23.939 -20.052   7.888  0.00  0.00    +0.295 HD
ENDBRANCH  14  16
ENDBRANCH  13  14
BRANCH  13  18
ATOM     18  CB  GLU A  1       27.911 -21.417   7.346  0.00  0.00    +0.045 C 
BRANCH  18  19
ATOM     19  CG  GLU A  1       28.346 -20.188   6.555  0.00  0.00    +0.123 C 
BRANCH  19  20
ATOM     20  CD  GLU A  1       29.332 -19.361   7.341  0.00  0.00    +0.305 C 
ATOM     21  OE1 GLU A  1       29.609 -19.471   8.521  0.00  0.00    -0.251 OA
BRANCH  20  22
ATOM     22  OE2 GLU A  1       29.927 -18.410   6.578  0.00  0.00    -0.481 OA
ATOM     23  HE2 GLU A  1       29.746 -18.700   5.659  0.00  0.00    +0.295 HD
ENDBRANCH  20  22
ENDBRANCH  19  20
ENDBRANCH  18  19
ENDBRANCH  13  18
ENDBRANCH  10  13
ENDBRANCH   6   9
ENDBRANCH   1   3
BRANCH   1  24
ATOM     24  C   UNK A  0       23.991 -29.941   8.248  0.00  0.00    +0.126 C 
BRANCH  24  32
ATOM     25  C   UNK A  0       26.148 -27.579  12.486  0.00  0.00    +0.195 C 
ATOM     26  N   UNK A  0       27.273 -27.882  11.803  0.00  0.00    -0.294 N 
ATOM     27  H   UNK A  0       28.144 -27.450  12.064  0.00  0.00    +0.172 HD
ATOM     28  C   UNK A  0       27.372 -29.027  11.071  0.00  0.00    +0.276 C 
ATOM     29  O   UNK A  0       28.475 -29.472  10.783  0.00  0.00    -0.266 OA
ATOM     30  C   UNK A  0       26.072 -29.669  10.699  0.00  0.00    +0.142 C 
ATOM     31  N   UNK A  0       25.949 -30.629   9.674  0.00  0.00    -0.261 N 
ATOM     32  C   UNK A  0       24.563 -30.987   9.247  0.00  0.00    +0.115 C 
ATOM     33  C   UNK A  0       23.630 -31.075  10.470  0.00  0.00    +0.127 C 
ATOM     34  N   UNK A  0       23.753 -29.843  11.231  0.00  0.00    -0.326 N 
ATOM     35  H   UNK A  0       23.178 -29.753  12.065  0.00  0.00    +0.148 HD
ATOM     36  C   UNK A  0       26.996 -31.175   8.951  0.00  0.00    +0.333 C 
ATOM     37  O   UNK A  0       26.872 -31.981   8.031  0.00  0.00    -0.279 OA
ATOM     38  C   UNK A  0       24.999 -29.255  11.430  0.00  0.00    +0.149 C 
ATOM     39  N   UNK A  0       25.054 -28.252  12.363  0.00  0.00    -0.199 NA
BRANCH  25  40
ATOM     40  N   UNK A  0       26.217 -26.512  13.318  0.00  0.00    -0.329 N 
ATOM     41  H   UNK A  0       27.117 -26.352  13.753  0.00  0.00    +0.145 HD
ATOM     42  H   UNK A  0       25.857 -25.673  12.872  0.00  0.00    +0.145 HD
ENDBRANCH  25  40
ENDBRANCH  24  32
ENDBRANCH   1  24
TORSDOF 12
ENDMDL
MODEL 7
REMARK VINA RESULT:      -8.5      2.793      9.690
REMARK  Name = *****
REMARK                            x       y       z     vdW  Elec       q    Type
REMARK                         _______ _______ _______ _____ _____    ______ ____
ROOT
ATOM      1  N   UNK A  0       25.692 -29.077   6.430  0.00  0.00    -0.342 N 
ATOM      2  H   UNK A  0       26.067 -29.448   5.560  0.00  0.00    +0.146 HD
ENDROOT
BRANCH   1   3
ATOM      3  C   UNK A  0       25.417 -27.709   6.331  0.00  0.00    +0.027 A 
ATOM      4  C   UNK A  0       26.226 -26.789   7.010  0.00  0.00    +0.024 A 
ATOM      5  C   UNK A  0       25.926 -25.417   7.004  0.00  0.00    +0.015 A 
ATOM      6  C   UNK A  0       24.787 -24.948   6.342  0.00  0.00    +0.037 A 
ATOM      7  C   UNK A  0       23.974 -25.855   5.667  0.00  0.00    +0.015 A 
ATOM      8  C   UNK A  0       24.277 -27.218   5.685  0.00  0.00    +0.024 A 
BRANCH   6   9
ATOM      9  C   UNK A  0       24.460 -23.489   6.422  0.00  0.00    +0.245 C 
ATOM     10  N   GLU A  1       25.423 -22.616   5.956  0.00  0.00    -0.298 N 
ATOM     11  H   GLU A  1       26.364 -22.941   5.794  0.00  0.00    +0.150 HD
ATOM     12  O   UNK A  0       23.384 -23.121   6.850  0.00  0.00    -0.270 OA
BRANCH  10  13
ATOM     13  CA  GLU A  1       25.211 -21.172   6.006  0.00  0.00    +0.182 C 
BRANCH  13  14
ATOM     14  C   GLU A  1       23.888 -20.821   5.299  0.00  0.00    +0.325 C 
ATOM     15  O   GLU A  1       23.662 -21.029   4.121  0.00  0.00    -0.249 OA
BRANCH  14  16
ATOM     16  OXT GLU A  1       22.936 -20.327   6.138  0.00  0.00    -0.479 OA
ATOM     17  HXT GLU A  1       22.697 -20.916   6.877  0.00  0.00    +0.295 HD
ENDBRANCH  14  16
ENDBRANCH  13  14
BRANCH  13  18
ATOM     18  CB  GLU A  1       25.150 -20.670   7.456  0.00  0.00    +0.045 C 
BRANCH  18  19
ATOM     19  CG  GLU A  1       26.203 -21.302   8.360  0.00  0.00    +0.123 C 
BRANCH  19  20
ATOM     20  CD  GLU A  1       27.585 -20.819   7.999  0.00  0.00    +0.305 C 
ATOM     21  OE1 GLU A  1       28.118 -19.783   8.352  0.00  0.00    -0.251 OA
BRANCH  20  22
ATOM     22  OE2 GLU A  1       28.235 -21.687   7.185  0.00  0.00    -0.481 OA
ATOM     23  HE2 GLU A  1       28.805 -22.199   7.797  0.00  0.00    +0.295 HD
ENDBRANCH  20  22
ENDBRANCH  19  20
ENDBRANCH  18  19
ENDBRANCH  13  18
ENDBRANCH  10  13
ENDBRANCH   6   9
ENDBRANCH   1   3
BRANCH   1  24
ATOM     24  C   UNK A  0       24.680 -29.968   7.021  0.00  0.00    +0.126 C 
BRANCH  24  32
ATOM     25  C   UNK A  0       21.152 -30.570  10.943  0.00  0.00    +0.195 C 
ATOM     26  N   UNK A  0       21.969 -29.658  11.515  0.00  0.00    -0.294 N 
ATOM     27  H   UNK A  0       21.663 -29.164  12.337  0.00  0.00    +0.172 HD
ATOM     28  C   UNK A  0       23.313 -29.675  11.296  0.00  0.00    +0.276 C 
ATOM     29  O   UNK A  0       24.066 -29.117  12.085  0.00  0.00    -0.266 OA
ATOM     30  C   UNK A  0       23.760 -30.423  10.080  0.00  0.00    +0.142 C 
ATOM     31  N   UNK A  0       25.033 -30.261   9.496  0.00  0.00    -0.261 N 
ATOM     32  C   UNK A  0       25.243 -30.876   8.151  0.00  0.00    +0.115 C 
ATOM     33  C   UNK A  0       24.555 -32.253   8.077  0.00  0.00    +0.127 C 
ATOM     34  N   UNK A  0       23.169 -32.097   8.486  0.00  0.00    -0.326 N 
ATOM     35  H   UNK A  0       22.585 -32.929   8.471  0.00  0.00    +0.148 HD
ATOM     36  C   UNK A  0       26.061 -29.485  10.005  0.00  0.00    +0.333 C 
ATOM     37  O   UNK A  0       27.153 -29.320   9.466  0.00  0.00    -0.279 OA
ATOM     38  C   UNK A  0       22.838 -31.285   9.566  0.00  0.00    +0.149 C 
ATOM     39  N   UNK A  0       21.555 -31.397  10.038  0.00  0.00    -0.199 NA
BRANCH  25  40
ATOM     40  N   UNK A  0       19.865 -30.573  11.363  0.00  0.00    -0.329 N 
ATOM     41  H   UNK A  0       19.174 -30.814  10.663  0.00  0.00    +0.145 HD
ATOM     42  H   UNK A  0       19.755 -31.126  12.209  0.00  0.00    +0.145 HD
ENDBRANCH  25  40
ENDBRANCH  24  32
ENDBRANCH   1  24
TORSDOF 12
ENDMDL
MODEL 8
REMARK VINA RESULT:      -8.4      2.946     10.420
REMARK  Name = *****
REMARK                            x       y       z     vdW  Elec       q    Type
REMARK                         _______ _______ _______ _____ _____    ______ ____
ROOT
ATOM      1  N   UNK A  0       24.951 -30.380   7.679  0.00  0.00    -0.342 N 
ATOM      2  H   UNK A  0       24.429 -30.403   8.552  0.00  0.00    +0.146 HD
ENDROOT
BRANCH   1   3
ATOM      3  C   UNK A  0       25.068 -29.079   7.181  0.00  0.00    +0.027 A 
ATOM      4  C   UNK A  0       25.964 -28.184   7.782  0.00  0.00    +0.024 A 
ATOM      5  C   UNK A  0       26.042 -26.846   7.365  0.00  0.00    +0.015 A 
ATOM      6  C   UNK A  0       25.196 -26.372   6.356  0.00  0.00    +0.037 A 
ATOM      7  C   UNK A  0       24.300 -27.251   5.755  0.00  0.00    +0.015 A 
ATOM      8  C   UNK A  0       24.225 -28.579   6.182  0.00  0.00    +0.024 A 
BRANCH   6   9
ATOM      9  C   UNK A  0       25.257 -24.921   5.992  0.00  0.00    +0.245 C 
ATOM     10  N   GLU A  1       25.496 -24.037   7.025  0.00  0.00    -0.298 N 
ATOM     11  H   GLU A  1       25.401 -24.340   7.982  0.00  0.00    +0.150 HD
ATOM     12  O   UNK A  0       25.131 -24.570   4.836  0.00  0.00    -0.270 OA
BRANCH  10  13
ATOM     13  CA  GLU A  1       25.556 -22.598   6.780  0.00  0.00    +0.182 C 
BRANCH  13  14
ATOM     14  C   GLU A  1       24.131 -22.012   6.803  0.00  0.00    +0.325 C 
ATOM     15  O   GLU A  1       23.625 -21.474   7.771  0.00  0.00    -0.249 OA
BRANCH  14  16
ATOM     16  OXT GLU A  1       23.499 -22.070   5.599  0.00  0.00    -0.479 OA
ATOM     17  HXT GLU A  1       22.828 -22.773   5.524  0.00  0.00    +0.295 HD
ENDBRANCH  14  16
ENDBRANCH  13  14
BRANCH  13  18
ATOM     18  CB  GLU A  1       26.405 -21.888   7.845  0.00  0.00    +0.045 C 
BRANCH  18  19
ATOM     19  CG  GLU A  1       26.979 -20.557   7.371  0.00  0.00    +0.123 C 
BRANCH  19  20
ATOM     20  CD  GLU A  1       28.462 -20.485   7.636  0.00  0.00    +0.305 C 
ATOM     21  OE1 GLU A  1       29.036 -19.735   8.404  0.00  0.00    -0.251 OA
BRANCH  20  22
ATOM     22  OE2 GLU A  1       29.161 -21.380   6.894  0.00  0.00    -0.481 OA
ATOM     23  HE2 GLU A  1       30.096 -21.124   7.039  0.00  0.00    +0.295 HD
ENDBRANCH  20  22
ENDBRANCH  19  20
ENDBRANCH  18  19
ENDBRANCH  13  18
ENDBRANCH  10  13
ENDBRANCH   6   9
ENDBRANCH   1   3
BRANCH   1  24
ATOM     24  C   UNK A  0       26.148 -31.235   7.729  0.00  0.00    +0.126 C 
BRANCH  24  32
ATOM     25  C   UNK A  0       25.975 -33.374   2.872  0.00  0.00    +0.195 C 
ATOM     26  N   UNK A  0       24.650 -33.260   3.113  0.00  0.00    -0.294 N 
ATOM     27  H   UNK A  0       23.997 -33.353   2.353  0.00  0.00    +0.172 HD
ATOM     28  C   UNK A  0       24.139 -33.442   4.363  0.00  0.00    +0.276 C 
ATOM     29  O   UNK A  0       22.953 -33.711   4.502  0.00  0.00    -0.266 OA
ATOM     30  C   UNK A  0       25.119 -33.315   5.486  0.00  0.00    +0.142 C 
ATOM     31  N   UNK A  0       24.736 -33.116   6.828  0.00  0.00    -0.261 N 
ATOM     32  C   UNK A  0       25.818 -32.754   7.793  0.00  0.00    +0.115 C 
ATOM     33  C   UNK A  0       27.098 -33.558   7.491  0.00  0.00    +0.127 C 
ATOM     34  N   UNK A  0       27.428 -33.386   6.086  0.00  0.00    -0.326 N 
ATOM     35  H   UNK A  0       28.265 -33.852   5.745  0.00  0.00    +0.148 HD
ATOM     36  C   UNK A  0       23.436 -33.109   7.303  0.00  0.00    +0.333 C 
ATOM     37  O   UNK A  0       23.113 -32.894   8.469  0.00  0.00    -0.279 OA
ATOM     38  C   UNK A  0       26.428 -33.406   5.117  0.00  0.00    +0.149 C 
ATOM     39  N   UNK A  0       26.848 -33.494   3.815  0.00  0.00    -0.199 NA
BRANCH  25  40
ATOM     40  N   UNK A  0       26.355 -33.350   1.573  0.00  0.00    -0.329 N 
ATOM     41  H   UNK A  0       26.040 -32.550   1.037  0.00  0.00    +0.145 HD
ATOM     42  H   UNK A  0       27.357 -33.497   1.479  0.00  0.00    +0.145 HD
ENDBRANCH  25  40
ENDBRANCH  24  32
ENDBRANCH   1  24
TORSDOF 12
ENDMDL
MODEL 9
REMARK VINA RESULT:      -8.4      3.212      9.623
REMARK  Name = *****
REMARK                            x       y       z     vdW  Elec       q    Type
REMARK                         _______ _______ _______ _____ _____    ______ ____
ROOT
ATOM      1  N   UNK A  0       24.977 -29.565   7.119  0.00  0.00    -0.342 N 
ATOM      2  H   UNK A  0       24.914 -30.148   6.287  0.00  0.00    +0.146 HD
ENDROOT
BRANCH   1   3
ATOM      3  C   UNK A  0       25.108 -28.212   6.791  0.00  0.00    +0.027 A 
ATOM      4  C   UNK A  0       26.098 -27.440   7.415  0.00  0.00    +0.024 A 
ATOM      5  C   UNK A  0       26.200 -26.061   7.175  0.00  0.00    +0.015 A 
ATOM      6  C   UNK A  0       25.288 -25.424   6.327  0.00  0.00    +0.037 A 
ATOM      7  C   UNK A  0       24.299 -26.180   5.704  0.00  0.00    +0.015 A 
ATOM      8  C   UNK A  0       24.201 -27.550   5.956  0.00  0.00    +0.024 A 
BRANCH   6   9
ATOM      9  C   UNK A  0       25.383 -23.939   6.156  0.00  0.00    +0.245 C 
ATOM     10  N   GLU A  1       26.123 -23.257   7.102  0.00  0.00    -0.298 N 
ATOM     11  H   GLU A  1       26.378 -23.709   7.966  0.00  0.00    +0.150 HD
ATOM     12  O   UNK A  0       24.855 -23.392   5.209  0.00  0.00    -0.270 OA
BRANCH  10  13
ATOM     13  CA  GLU A  1       26.263 -21.804   7.037  0.00  0.00    +0.182 C 
BRANCH  13  14
ATOM     14  C   GLU A  1       25.329 -21.150   8.074  0.00  0.00    +0.325 C 
ATOM     15  O   GLU A  1       24.134 -20.983   7.913  0.00  0.00    -0.249 OA
BRANCH  14  16
ATOM     16  OXT GLU A  1       25.947 -20.845   9.247  0.00  0.00    -0.479 OA
ATOM     17  HXT GLU A  1       25.397 -20.969  10.043  0.00  0.00    +0.295 HD
ENDBRANCH  14  16
ENDBRANCH  13  14
BRANCH  13  18
ATOM     18  CB  GLU A  1       27.708 -21.373   7.326  0.00  0.00    +0.045 C 
BRANCH  18  19
ATOM     19  CG  GLU A  1       28.156 -20.170   6.502  0.00  0.00    +0.123 C 
BRANCH  19  20
ATOM     20  CD  GLU A  1       29.315 -19.466   7.161  0.00  0.00    +0.305 C 
ATOM     21  OE1 GLU A  1       30.308 -19.017   6.619  0.00  0.00    -0.251 OA
BRANCH  20  22
ATOM     22  OE2 GLU A  1       29.160 -19.369   8.505  0.00  0.00    -0.481 OA
ATOM     23  HE2 GLU A  1       30.071 -19.220   8.836  0.00  0.00    +0.295 HD
ENDBRANCH  20  22
ENDBRANCH  19  20
ENDBRANCH  18  19
ENDBRANCH  13  18
ENDBRANCH  10  13
ENDBRANCH   6   9
ENDBRANCH   1   3
BRANCH   1  24
ATOM     24  C   UNK A  0       24.000 -29.959   8.145  0.00  0.00    +0.126 C 
BRANCH  24  32
ATOM     25  C   UNK A  0       22.331 -28.476  12.963  0.00  0.00    +0.195 C 
ATOM     26  N   UNK A  0       23.571 -27.938  12.980  0.00  0.00    -0.294 N 
ATOM     27  H   UNK A  0       23.807 -27.258  13.684  0.00  0.00    +0.172 HD
ATOM     28  C   UNK A  0       24.621 -28.558  12.374  0.00  0.00    +0.276 C 
ATOM     29  O   UNK A  0       25.767 -28.280  12.707  0.00  0.00    -0.266 OA
ATOM     30  C   UNK A  0       24.260 -29.575  11.338  0.00  0.00    +0.142 C 
ATOM     31  N   UNK A  0       25.170 -30.053  10.373  0.00  0.00    -0.261 N 
ATOM     32  C   UNK A  0       24.604 -30.867   9.255  0.00  0.00    +0.115 C 
ATOM     33  C   UNK A  0       23.506 -31.812   9.782  0.00  0.00    +0.127 C 
ATOM     34  N   UNK A  0       22.544 -31.025  10.534  0.00  0.00    -0.326 N 
ATOM     35  H   UNK A  0       21.749 -31.520  10.932  0.00  0.00    +0.148 HD
ATOM     36  C   UNK A  0       26.516 -29.735  10.306  0.00  0.00    +0.333 C 
ATOM     37  O   UNK A  0       27.289 -30.125   9.434  0.00  0.00    -0.279 OA
ATOM     38  C   UNK A  0       22.972 -30.017  11.393  0.00  0.00    +0.149 C 
ATOM     39  N   UNK A  0       22.028 -29.505  12.246  0.00  0.00    -0.199 NA
BRANCH  25  40
ATOM     40  N   UNK A  0       21.401 -27.872  13.740  0.00  0.00    -0.329 N 
ATOM     41  H   UNK A  0       21.590 -27.877  14.735  0.00  0.00    +0.145 HD
ATOM     42  H   UNK A  0       21.186 -26.939  13.400  0.00  0.00    +0.145 HD
ENDBRANCH  25  40
ENDBRANCH  24  32
ENDBRANCH   1  24
TORSDOF 12
ENDMDL
