MODEL 1
REMARK VINA RESULT:      -2.7      0.000      0.000
REMARK  Name = *****
REMARK                            x       y       z     vdW  Elec       q    Type
REMARK                         _______ _______ _______ _____ _____    ______ ____
ROOT
ATOM      1  N   LIG    1       24.448 -18.137   3.834  0.00  0.00    -0.307 N 
ATOM      2  C   LIG    1       24.958 -16.866   3.725  0.00  0.00    +0.170 A 
ATOM      3  N   LIG    1       26.214 -16.513   3.356  0.00  0.00    -0.196 NA
ATOM      4  C   LIG    1       26.405 -15.220   3.338  0.00  0.00    +0.195 C 
ATOM      5  N   LIG    1       25.430 -14.291   3.644  0.00  0.00    -0.293 N 
ATOM      6  H   LIG    1       25.650 -13.309   3.651  0.00  0.00    +0.172 HD
ATOM      7  C   LIG    1       24.142 -14.606   4.041  0.00  0.00    +0.280 C 
ATOM      8  O   LIG    1       23.318 -13.738   4.324  0.00  0.00    -0.265 OA
ATOM      9  C   LIG    1       23.915 -16.033   4.072  0.00  0.00    +0.172 A 
ATOM     10  N   LIG    1       22.789 -16.737   4.392  0.00  0.00    -0.229 NA
ATOM     11  C   LIG    1       23.137 -17.997   4.231  0.00  0.00    +0.202 A 
ENDROOT
BRANCH   1  14
ATOM     12  C   LIG    1       23.458 -21.106   2.677  0.00  0.00    +0.010 C 
ATOM     13  C   LIG    1       24.274 -20.628   3.629  0.00  0.00    -0.046 C 
ATOM     14  C   LIG    1       25.140 -19.379   3.490  0.00  0.00    +0.118 C 
ATOM     15  C   LIG    1       26.299 -19.719   4.432  0.00  0.00    +0.061 C 
ATOM     16  C   LIG    1       25.618 -20.422   5.599  0.00  0.00    +0.126 C 
ATOM     17  C   LIG    1       24.573 -21.337   4.939  0.00  0.00    +0.070 C 
BRANCH  16  18
ATOM     18  O   LIG    1       26.547 -21.156   6.382  0.00  0.00    -0.391 OA
ATOM     19  H   LIG    1       26.449 -22.104   6.176  0.00  0.00    +0.210 HD
ENDBRANCH  16  18
BRANCH  17  20
ATOM     20  C   LIG    1       23.379 -21.572   5.872  0.00  0.00    +0.166 C 
BRANCH  20  21
ATOM     21  O   LIG    1       23.491 -20.778   7.051  0.00  0.00    -0.394 OA
ATOM     22  H   LIG    1       22.614 -20.392   7.242  0.00  0.00    +0.209 HD
ENDBRANCH  20  21
ENDBRANCH  17  20
ENDBRANCH   1  14
BRANCH   4  23
ATOM     23  N   LIG    1       27.616 -14.707   3.002  0.00  0.00    -0.329 N 
ATOM     24  H   LIG    1       28.396 -15.351   2.995  0.00  0.00    +0.145 HD
ATOM     25  H   LIG    1       27.823 -13.842   3.491  0.00  0.00    +0.145 HD
ENDBRANCH   4  23
TORSDOF 5
ENDMDL
MODEL 2
REMARK VINA RESULT:      -2.3      2.381      6.332
REMARK  Name = *****
REMARK                            x       y       z     vdW  Elec       q    Type
REMARK                         _______ _______ _______ _____ _____    ______ ____
ROOT
ATOM      1  N   LIG    1       26.609 -16.234   3.641  0.00  0.00    -0.307 N 
ATOM      2  C   LIG    1       27.040 -17.419   4.186  0.00  0.00    +0.170 A 
ATOM      3  N   LIG    1       28.219 -17.655   4.813  0.00  0.00    -0.196 NA
ATOM      4  C   LIG    1       28.344 -18.887   5.233  0.00  0.00    +0.195 C 
ATOM      5  N   LIG    1       27.374 -19.858   5.081  0.00  0.00    -0.293 N 
ATOM      6  H   LIG    1       27.546 -20.799   5.392  0.00  0.00    +0.172 HD
ATOM      7  C   LIG    1       26.165 -19.665   4.435  0.00  0.00    +0.280 C 
ATOM      8  O   LIG    1       25.344 -20.572   4.306  0.00  0.00    -0.265 OA
ATOM      9  C   LIG    1       26.012 -18.309   3.957  0.00  0.00    +0.172 A 
ATOM     10  N   LIG    1       24.972 -17.724   3.292  0.00  0.00    -0.229 NA
ATOM     11  C   LIG    1       25.356 -16.476   3.125  0.00  0.00    +0.202 A 
ENDROOT
BRANCH   1  14
ATOM     12  C   LIG    1       27.169 -13.997   6.054  0.00  0.00    +0.010 C 
ATOM     13  C   LIG    1       26.775 -14.003   4.771  0.00  0.00    -0.046 C 
ATOM     14  C   LIG    1       27.308 -14.951   3.699  0.00  0.00    +0.118 C 
ATOM     15  C   LIG    1       27.134 -14.097   2.439  0.00  0.00    +0.061 C 
ATOM     16  C   LIG    1       25.809 -13.383   2.670  0.00  0.00    +0.126 C 
ATOM     17  C   LIG    1       25.847 -12.972   4.152  0.00  0.00    +0.070 C 
BRANCH  16  18
ATOM     18  O   LIG    1       25.660 -12.262   1.813  0.00  0.00    -0.391 OA
ATOM     19  H   LIG    1       25.878 -12.534   0.903  0.00  0.00    +0.210 HD
ENDBRANCH  16  18
BRANCH  17  20
ATOM     20  C   LIG    1       24.432 -12.894   4.739  0.00  0.00    +0.166 C 
BRANCH  20  21
ATOM     21  O   LIG    1       23.701 -11.816   4.160  0.00  0.00    -0.394 OA
ATOM     22  H   LIG    1       24.099 -11.611   3.291  0.00  0.00    +0.209 HD
ENDBRANCH  20  21
ENDBRANCH  17  20
ENDBRANCH   1  14
BRANCH   4  23
ATOM     23  N   LIG    1       29.475 -19.285   5.869  0.00  0.00    -0.329 N 
ATOM     24  H   LIG    1       29.795 -18.705   6.634  0.00  0.00    +0.145 HD
ATOM     25  H   LIG    1       30.219 -19.532   5.225  0.00  0.00    +0.145 HD
ENDBRANCH   4  23
TORSDOF 5
ENDMDL
MODEL 3
REMARK VINA RESULT:      -2.3      2.311      6.288
REMARK  Name = *****
REMARK                            x       y       z     vdW  Elec       q    Type
REMARK                         _______ _______ _______ _____ _____    ______ ____
ROOT
ATOM      1  N   LIG    1       24.429 -15.625   3.871  0.00  0.00    -0.307 N 
ATOM      2  C   LIG    1       24.360 -16.996   3.848  0.00  0.00    +0.170 A 
ATOM      3  N   LIG    1       25.322 -17.862   3.442  0.00  0.00    -0.196 NA
ATOM      4  C   LIG    1       24.967 -19.116   3.541  0.00  0.00    +0.195 C 
ATOM      5  N   LIG    1       23.745 -19.536   4.027  0.00  0.00    -0.293 N 
ATOM      6  H   LIG    1       23.515 -20.515   4.043  0.00  0.00    +0.172 HD
ATOM      7  C   LIG    1       22.729 -18.689   4.438  0.00  0.00    +0.280 C 
ATOM      8  O   LIG    1       21.649 -19.116   4.842  0.00  0.00    -0.265 OA
ATOM      9  C   LIG    1       23.103 -17.297   4.328  0.00  0.00    +0.172 A 
ATOM     10  N   LIG    1       22.396 -16.170   4.641  0.00  0.00    -0.229 NA
ATOM     11  C   LIG    1       23.222 -15.183   4.365  0.00  0.00    +0.202 A 
ENDROOT
BRANCH   1  14
ATOM     12  C   LIG    1       26.659 -13.907   5.664  0.00  0.00    +0.010 C 
ATOM     13  C   LIG    1       25.912 -13.727   4.563  0.00  0.00    -0.046 C 
ATOM     14  C   LIG    1       25.597 -14.812   3.536  0.00  0.00    +0.118 C 
ATOM     15  C   LIG    1       25.419 -13.971   2.267  0.00  0.00    +0.061 C 
ATOM     16  C   LIG    1       24.696 -12.726   2.761  0.00  0.00    +0.126 C 
ATOM     17  C   LIG    1       25.387 -12.382   4.092  0.00  0.00    +0.070 C 
BRANCH  16  18
ATOM     18  O   LIG    1       24.787 -11.662   1.826  0.00  0.00    -0.391 OA
ATOM     19  H   LIG    1       25.325 -11.956   1.069  0.00  0.00    +0.210 HD
ENDBRANCH  16  18
BRANCH  17  20
ATOM     20  C   LIG    1       24.425 -11.659   5.042  0.00  0.00    +0.166 C 
BRANCH  20  21
ATOM     21  O   LIG    1       23.160 -11.447   4.419  0.00  0.00    -0.394 OA
ATOM     22  H   LIG    1       22.909 -10.512   4.551  0.00  0.00    +0.209 HD
ENDBRANCH  20  21
ENDBRANCH  17  20
ENDBRANCH   1  14
BRANCH   4  23
ATOM     23  N   LIG    1       25.816 -20.104   3.161  0.00  0.00    -0.329 N 
ATOM     24  H   LIG    1       26.149 -20.722   3.889  0.00  0.00    +0.145 HD
ATOM     25  H   LIG    1       26.561 -19.768   2.559  0.00  0.00    +0.145 HD
ENDBRANCH   4  23
TORSDOF 5
ENDMDL
MODEL 4
REMARK VINA RESULT:      -1.9      2.422      6.384
REMARK  Name = *****
REMARK                            x       y       z     vdW  Elec       q    Type
REMARK                         _______ _______ _______ _____ _____    ______ ____
ROOT
ATOM      1  N   LIG    1       25.208 -16.008   3.746  0.00  0.00    -0.307 N 
ATOM      2  C   LIG    1       24.366 -17.092   3.799  0.00  0.00    +0.170 A 
ATOM      3  N   LIG    1       23.059 -17.101   4.160  0.00  0.00    -0.196 NA
ATOM      4  C   LIG    1       22.514 -18.288   4.107  0.00  0.00    +0.195 C 
ATOM      5  N   LIG    1       23.183 -19.428   3.707  0.00  0.00    -0.293 N 
ATOM      6  H   LIG    1       22.720 -20.320   3.724  0.00  0.00    +0.172 HD
ATOM      7  C   LIG    1       24.519 -19.467   3.346  0.00  0.00    +0.280 C 
ATOM      8  O   LIG    1       25.074 -20.516   3.018  0.00  0.00    -0.265 OA
ATOM      9  C   LIG    1       25.140 -18.163   3.405  0.00  0.00    +0.172 A 
ATOM     10  N   LIG    1       26.420 -17.785   3.117  0.00  0.00    -0.229 NA
ATOM     11  C   LIG    1       26.428 -16.485   3.322  0.00  0.00    +0.202 A 
ENDROOT
BRANCH   1  14
ATOM     12  C   LIG    1       24.921 -13.303   1.813  0.00  0.00    +0.010 C 
ATOM     13  C   LIG    1       25.454 -13.629   3.001  0.00  0.00    -0.046 C 
ATOM     14  C   LIG    1       24.841 -14.614   3.992  0.00  0.00    +0.118 C 
ATOM     15  C   LIG    1       25.370 -14.063   5.320  0.00  0.00    +0.061 C 
ATOM     16  C   LIG    1       26.791 -13.628   4.987  0.00  0.00    +0.126 C 
ATOM     17  C   LIG    1       26.674 -12.957   3.608  0.00  0.00    +0.070 C 
BRANCH  16  18
ATOM     18  O   LIG    1       27.311 -12.742   5.966  0.00  0.00    -0.391 OA
ATOM     19  H   LIG    1       28.220 -13.018   6.185  0.00  0.00    +0.210 HD
ENDBRANCH  16  18
BRANCH  17  20
ATOM     20  C   LIG    1       27.983 -13.086   2.820  0.00  0.00    +0.166 C 
BRANCH  20  21
ATOM     21  O   LIG    1       29.110 -12.964   3.683  0.00  0.00    -0.394 OA
ATOM     22  H   LIG    1       28.939 -12.231   4.306  0.00  0.00    +0.209 HD
ENDBRANCH  20  21
ENDBRANCH  17  20
ENDBRANCH   1  14
BRANCH   4  23
ATOM     23  N   LIG    1       21.213 -18.465   4.451  0.00  0.00    -0.329 N 
ATOM     24  H   LIG    1       20.976 -18.313   5.423  0.00  0.00    +0.145 HD
ATOM     25  H   LIG    1       20.825 -19.326   4.081  0.00  0.00    +0.145 HD
ENDBRANCH   4  23
TORSDOF 5
ENDMDL
MODEL 5
REMARK VINA RESULT:      -1.7      1.290      1.499
REMARK  Name = *****
REMARK                            x       y       z     vdW  Elec       q    Type
REMARK                         _______ _______ _______ _____ _____    ______ ____
ROOT
ATOM      1  N   LIG    1       23.482 -17.132   4.001  0.00  0.00    -0.307 N 
ATOM      2  C   LIG    1       24.336 -16.062   3.879  0.00  0.00    +0.170 A 
ATOM      3  N   LIG    1       25.534 -16.035   3.244  0.00  0.00    -0.196 NA
ATOM      4  C   LIG    1       26.118 -14.867   3.290  0.00  0.00    +0.195 C 
ATOM      5  N   LIG    1       25.575 -13.755   3.903  0.00  0.00    -0.293 N 
ATOM      6  H   LIG    1       26.091 -12.892   3.938  0.00  0.00    +0.172 HD
ATOM      7  C   LIG    1       24.364 -13.742   4.574  0.00  0.00    +0.280 C 
ATOM      8  O   LIG    1       23.936 -12.727   5.123  0.00  0.00    -0.265 OA
ATOM      9  C   LIG    1       23.707 -15.028   4.539  0.00  0.00    +0.172 A 
ATOM     10  N   LIG    1       22.507 -15.417   5.065  0.00  0.00    -0.229 NA
ATOM     11  C   LIG    1       22.396 -16.682   4.717  0.00  0.00    +0.202 A 
ENDROOT
BRANCH   1  14
ATOM     12  C   LIG    1       22.010 -20.097   4.423  0.00  0.00    +0.010 C 
ATOM     13  C   LIG    1       23.255 -19.608   4.306  0.00  0.00    -0.046 C 
ATOM     14  C   LIG    1       23.656 -18.451   3.395  0.00  0.00    +0.118 C 
ATOM     15  C   LIG    1       25.117 -18.805   3.098  0.00  0.00    +0.061 C 
ATOM     16  C   LIG    1       25.632 -19.347   4.424  0.00  0.00    +0.126 C 
ATOM     17  C   LIG    1       24.484 -20.225   4.951  0.00  0.00    +0.070 C 
BRANCH  16  18
ATOM     18  O   LIG    1       26.832 -20.087   4.258  0.00  0.00    -0.391 OA
ATOM     19  H   LIG    1       27.282 -20.149   5.121  0.00  0.00    +0.210 HD
ENDBRANCH  16  18
BRANCH  17  20
ATOM     20  C   LIG    1       24.491 -20.281   6.484  0.00  0.00    +0.166 C 
BRANCH  20  21
ATOM     21  O   LIG    1       24.948 -21.550   6.944  0.00  0.00    -0.394 OA
ATOM     22  H   LIG    1       25.683 -21.400   7.570  0.00  0.00    +0.209 HD
ENDBRANCH  20  21
ENDBRANCH  17  20
ENDBRANCH   1  14
BRANCH   4  23
ATOM     23  N   LIG    1       27.332 -14.681   2.712  0.00  0.00    -0.329 N 
ATOM     24  H   LIG    1       28.136 -14.704   3.325  0.00  0.00    +0.145 HD
ATOM     25  H   LIG    1       27.344 -13.889   2.077  0.00  0.00    +0.145 HD
ENDBRANCH   4  23
TORSDOF 5
ENDMDL
MODEL 6
REMARK VINA RESULT:      -1.4      1.870      3.014
REMARK  Name = *****
REMARK                            x       y       z     vdW  Elec       q    Type
REMARK                         _______ _______ _______ _____ _____    ______ ____
ROOT
ATOM      1  N   LIG    1       24.946 -17.246   3.340  0.00  0.00    -0.307 N 
ATOM      2  C   LIG    1       25.144 -15.908   3.579  0.00  0.00    +0.170 A 
ATOM      3  N   LIG    1       24.198 -14.941   3.679  0.00  0.00    -0.196 NA
ATOM      4  C   LIG    1       24.693 -13.755   3.918  0.00  0.00    +0.195 C 
ATOM      5  N   LIG    1       26.040 -13.497   4.076  0.00  0.00    -0.293 N 
ATOM      6  H   LIG    1       26.363 -12.555   4.220  0.00  0.00    +0.172 HD
ATOM      7  C   LIG    1       27.040 -14.449   3.966  0.00  0.00    +0.280 C 
ATOM      8  O   LIG    1       28.229 -14.161   4.093  0.00  0.00    -0.265 OA
ATOM      9  C   LIG    1       26.511 -15.766   3.695  0.00  0.00    +0.172 A 
ATOM     10  N   LIG    1       27.160 -16.958   3.534  0.00  0.00    -0.229 NA
ATOM     11  C   LIG    1       26.193 -17.828   3.331  0.00  0.00    +0.202 A 
ENDROOT
BRANCH   1  14
ATOM     12  C   LIG    1       22.190 -17.331   5.221  0.00  0.00    +0.010 C 
ATOM     13  C   LIG    1       22.979 -18.198   4.566  0.00  0.00    -0.046 C 
ATOM     14  C   LIG    1       23.654 -17.921   3.225  0.00  0.00    +0.118 C 
ATOM     15  C   LIG    1       23.749 -19.337   2.647  0.00  0.00    +0.061 C 
ATOM     16  C   LIG    1       24.089 -20.196   3.857  0.00  0.00    +0.126 C 
ATOM     17  C   LIG    1       23.203 -19.641   4.984  0.00  0.00    +0.070 C 
BRANCH  16  18
ATOM     18  O   LIG    1       23.836 -21.571   3.611  0.00  0.00    -0.391 OA
ATOM     19  H   LIG    1       24.572 -21.936   3.089  0.00  0.00    +0.210 HD
ENDBRANCH  16  18
BRANCH  17  20
ATOM     20  C   LIG    1       23.855 -19.856   6.355  0.00  0.00    +0.166 C 
BRANCH  20  21
ATOM     21  O   LIG    1       25.121 -20.498   6.220  0.00  0.00    -0.394 OA
ATOM     22  H   LIG    1       24.978 -21.464   6.258  0.00  0.00    +0.209 HD
ENDBRANCH  20  21
ENDBRANCH  17  20
ENDBRANCH   1  14
BRANCH   4  23
ATOM     23  N   LIG    1       23.875 -12.678   4.033  0.00  0.00    -0.329 N 
ATOM     24  H   LIG    1       23.039 -12.680   3.463  0.00  0.00    +0.145 HD
ATOM     25  H   LIG    1       24.379 -11.798   3.990  0.00  0.00    +0.145 HD
ENDBRANCH   4  23
TORSDOF 5
ENDMDL
MODEL 7
REMARK VINA RESULT:      -1.1      2.238      6.333
REMARK  Name = *****
REMARK                            x       y       z     vdW  Elec       q    Type
REMARK                         _______ _______ _______ _____ _____    ______ ____
ROOT
ATOM      1  N   LIG    1       27.323 -16.512   3.882  0.00  0.00    -0.307 N 
ATOM      2  C   LIG    1       26.778 -17.766   4.014  0.00  0.00    +0.170 A 
ATOM      3  N   LIG    1       25.619 -18.220   3.475  0.00  0.00    -0.196 NA
ATOM      4  C   LIG    1       25.362 -19.466   3.774  0.00  0.00    +0.195 C 
ATOM      5  N   LIG    1       26.187 -20.262   4.544  0.00  0.00    -0.293 N 
ATOM      6  H   LIG    1       25.915 -21.203   4.772  0.00  0.00    +0.172 HD
ATOM      7  C   LIG    1       27.369 -19.836   5.126  0.00  0.00    +0.280 C 
ATOM      8  O   LIG    1       28.056 -20.581   5.823  0.00  0.00    -0.265 OA
ATOM      9  C   LIG    1       27.665 -18.457   4.812  0.00  0.00    +0.172 A 
ATOM     10  N   LIG    1       28.729 -17.681   5.177  0.00  0.00    -0.229 NA
ATOM     11  C   LIG    1       28.500 -16.522   4.596  0.00  0.00    +0.202 A 
ENDROOT
BRANCH   1  14
ATOM     12  C   LIG    1       28.292 -13.375   3.282  0.00  0.00    +0.010 C 
ATOM     13  C   LIG    1       27.157 -14.031   3.569  0.00  0.00    -0.046 C 
ATOM     14  C   LIG    1       26.801 -15.424   3.055  0.00  0.00    +0.118 C 
ATOM     15  C   LIG    1       25.271 -15.347   3.035  0.00  0.00    +0.061 C 
ATOM     16  C   LIG    1       24.935 -14.553   4.290  0.00  0.00    +0.126 C 
ATOM     17  C   LIG    1       25.986 -13.431   4.328  0.00  0.00    +0.070 C 
BRANCH  16  18
ATOM     18  O   LIG    1       23.612 -14.040   4.247  0.00  0.00    -0.391 OA
ATOM     19  H   LIG    1       23.612 -13.145   4.633  0.00  0.00    +0.210 HD
ENDBRANCH  16  18
BRANCH  17  20
ATOM     20  C   LIG    1       26.267 -12.988   5.769  0.00  0.00    +0.166 C 
BRANCH  20  21
ATOM     21  O   LIG    1       27.343 -13.735   6.330  0.00  0.00    -0.394 OA
ATOM     22  H   LIG    1       27.919 -13.117   6.820  0.00  0.00    +0.209 HD
ENDBRANCH  20  21
ENDBRANCH  17  20
ENDBRANCH   1  14
BRANCH   4  23
ATOM     23  N   LIG    1       24.231 -20.063   3.320  0.00  0.00    -0.329 N 
ATOM     24  H   LIG    1       23.353 -19.652   3.608  0.00  0.00    +0.145 HD
ATOM     25  H   LIG    1       24.249 -21.072   3.434  0.00  0.00    +0.145 HD
ENDBRANCH   4  23
TORSDOF 5
ENDMDL
MODEL 8
REMARK VINA RESULT:      -0.7      2.343      5.840
REMARK  Name = *****
REMARK                            x       y       z     vdW  Elec       q    Type
REMARK                         _______ _______ _______ _____ _____    ______ ____
ROOT
ATOM      1  N   LIG    1       25.240 -15.917   3.398  0.00  0.00    -0.307 N 
ATOM      2  C   LIG    1       24.766 -17.192   3.593  0.00  0.00    +0.170 A 
ATOM      3  N   LIG    1       25.409 -18.357   3.334  0.00  0.00    -0.196 NA
ATOM      4  C   LIG    1       24.703 -19.416   3.630  0.00  0.00    +0.195 C 
ATOM      5  N   LIG    1       23.433 -19.371   4.172  0.00  0.00    -0.293 N 
ATOM      6  H   LIG    1       22.924 -20.222   4.341  0.00  0.00    +0.172 HD
ATOM      7  C   LIG    1       22.734 -18.206   4.437  0.00  0.00    +0.280 C 
ATOM      8  O   LIG    1       21.594 -18.223   4.899  0.00  0.00    -0.265 OA
ATOM      9  C   LIG    1       23.498 -17.024   4.109  0.00  0.00    +0.172 A 
ATOM     10  N   LIG    1       23.172 -15.703   4.235  0.00  0.00    -0.229 NA
ATOM     11  C   LIG    1       24.241 -15.064   3.809  0.00  0.00    +0.202 A 
ENDROOT
BRANCH   1  14
ATOM     12  C   LIG    1       28.295 -16.183   4.715  0.00  0.00    +0.010 C 
ATOM     13  C   LIG    1       27.561 -15.259   4.076  0.00  0.00    -0.046 C 
ATOM     14  C   LIG    1       26.581 -15.554   2.942  0.00  0.00    +0.118 C 
ATOM     15  C   LIG    1       26.631 -14.237   2.162  0.00  0.00    +0.061 C 
ATOM     16  C   LIG    1       26.715 -13.177   3.252  0.00  0.00    +0.126 C 
ATOM     17  C   LIG    1       27.699 -13.760   4.280  0.00  0.00    +0.070 C 
BRANCH  16  18
ATOM     18  O   LIG    1       27.161 -11.931   2.738  0.00  0.00    -0.391 OA
ATOM     19  H   LIG    1       27.127 -11.964   1.765  0.00  0.00    +0.210 HD
ENDBRANCH  16  18
BRANCH  17  20
ATOM     20  C   LIG    1       27.398 -13.236   5.689  0.00  0.00    +0.166 C 
BRANCH  20  21
ATOM     21  O   LIG    1       26.084 -12.689   5.759  0.00  0.00    -0.394 OA
ATOM     22  H   LIG    1       25.727 -12.867   6.650  0.00  0.00    +0.209 HD
ENDBRANCH  20  21
ENDBRANCH  17  20
ENDBRANCH   1  14
BRANCH   4  23
ATOM     23  N   LIG    1       25.203 -20.659   3.416  0.00  0.00    -0.329 N 
ATOM     24  H   LIG    1       25.917 -20.746   2.705  0.00  0.00    +0.145 HD
ATOM     25  H   LIG    1       24.477 -21.363   3.331  0.00  0.00    +0.145 HD
ENDBRANCH   4  23
TORSDOF 5
ENDMDL
