MODEL 1
REMARK VINA RESULT:      -8.0      0.000      0.000
REMARK  Name = *****
REMARK                            x       y       z     vdW  Elec       q    Type
REMARK                         _______ _______ _______ _____ _____    ______ ____
ROOT
ATOM      1  C   LIG    1       25.009 -23.035   6.460  0.00  0.00    +0.117 C 
ENDROOT
BRANCH   1   2
ATOM      2  N   LIG    1       25.717 -23.301   7.731  0.00  0.00    -0.310 NA
ATOM      3  H   LIG    1       25.049 -23.479   8.482  0.00  0.00    +0.122 HD
BRANCH   2   5
ATOM      4  C   LIG    1       25.701 -21.096   8.806  0.00  0.00    +0.024 C 
ATOM      5  C   LIG    1       26.576 -22.132   8.095  0.00  0.00    +0.055 C 
BRANCH   5   6
ATOM      6  C   LIG    1       27.325 -21.507   6.879  0.00  0.00    +0.053 C 
BRANCH   6   7
ATOM      7  C   LIG    1       28.615 -20.767   7.181  0.00  0.00    -0.046 A 
ATOM      8  C   LIG    1       29.548 -21.287   8.096  0.00  0.00    +0.007 A 
ATOM      9  C   LIG    1       30.751 -20.616   8.337  0.00  0.00    +0.045 A 
ATOM     10  C   LIG    1       31.032 -19.432   7.674  0.00  0.00    +0.117 A 
ATOM     11  C   LIG    1       30.131 -18.906   6.751  0.00  0.00    +0.045 A 
ATOM     12  C   LIG    1       28.931 -19.583   6.503  0.00  0.00    +0.007 A 
BRANCH  10  13
ATOM     13  O   LIG    1       32.212 -18.802   7.947  0.00  0.00    -0.507 OA
ATOM     14  H   LIG    1       32.559 -19.144   8.784  0.00  0.00    +0.292 HD
ENDBRANCH  10  13
ENDBRANCH   6   7
ENDBRANCH   5   6
ENDBRANCH   2   5
ENDBRANCH   1   2
BRANCH   1  15
ATOM     15  C   LIG    1       23.632 -22.320   6.548  0.00  0.00    +0.158 C 
BRANCH  15  16
ATOM     16  C   LIG    1       23.593 -21.155   5.568  0.00  0.00    -0.011 A 
ATOM     17  C   LIG    1       22.395 -20.457   5.316  0.00  0.00    +0.051 A 
ATOM     18  C   LIG    1       22.349 -19.440   4.365  0.00  0.00    +0.121 A 
ATOM     19  C   LIG    1       23.477 -19.093   3.635  0.00  0.00    +0.090 A 
ATOM     20  C   LIG    1       24.663 -19.766   3.886  0.00  0.00    +0.121 A 
ATOM     21  C   LIG    1       24.736 -20.786   4.841  0.00  0.00    +0.051 A 
BRANCH  18  22
ATOM     22  O   LIG    1       21.157 -18.805   4.165  0.00  0.00    -0.507 OA
ATOM     23  H   LIG    1       20.481 -19.475   3.982  0.00  0.00    +0.292 HD
ENDBRANCH  18  22
BRANCH  20  24
ATOM     24  O   LIG    1       25.759 -19.411   3.151  0.00  0.00    -0.507 OA
ATOM     25  H   LIG    1       25.834 -18.442   3.148  0.00  0.00    +0.292 HD
ENDBRANCH  20  24
ENDBRANCH  15  16
BRANCH  15  26
ATOM     26  O   LIG    1       22.566 -23.218   6.249  0.00  0.00    -0.386 OA
ATOM     27  H   LIG    1       21.755 -22.779   6.565  0.00  0.00    +0.210 HD
ENDBRANCH  15  26
ENDBRANCH   1  15
TORSDOF 10
ENDMDL
MODEL 2
REMARK VINA RESULT:      -8.0      0.211      2.044
REMARK  Name = *****
REMARK                            x       y       z     vdW  Elec       q    Type
REMARK                         _______ _______ _______ _____ _____    ______ ____
ROOT
ATOM      1  C   LIG    1       25.029 -23.177   6.546  0.00  0.00    +0.117 C 
ENDROOT
BRANCH   1   2
ATOM      2  N   LIG    1       25.719 -23.384   7.837  0.00  0.00    -0.310 NA
ATOM      3  H   LIG    1       25.041 -23.505   8.590  0.00  0.00    +0.122 HD
BRANCH   2   5
ATOM      4  C   LIG    1       25.746 -21.126   8.795  0.00  0.00    +0.024 C 
ATOM      5  C   LIG    1       26.602 -22.216   8.142  0.00  0.00    +0.055 C 
BRANCH   5   6
ATOM      6  C   LIG    1       27.366 -21.671   6.897  0.00  0.00    +0.053 C 
BRANCH   6   7
ATOM      7  C   LIG    1       28.657 -20.922   7.166  0.00  0.00    -0.046 A 
ATOM      8  C   LIG    1       28.881 -19.648   6.613  0.00  0.00    +0.007 A 
ATOM      9  C   LIG    1       30.058 -18.950   6.900  0.00  0.00    +0.045 A 
ATOM     10  C   LIG    1       31.014 -19.510   7.732  0.00  0.00    +0.117 A 
ATOM     11  C   LIG    1       30.808 -20.763   8.305  0.00  0.00    +0.045 A 
ATOM     12  C   LIG    1       29.625 -21.457   8.026  0.00  0.00    +0.007 A 
BRANCH  10  13
ATOM     13  O   LIG    1       32.155 -18.800   7.976  0.00  0.00    -0.507 OA
ATOM     14  H   LIG    1       32.889 -19.421   8.089  0.00  0.00    +0.292 HD
ENDBRANCH  10  13
ENDBRANCH   6   7
ENDBRANCH   5   6
ENDBRANCH   2   5
ENDBRANCH   1   2
BRANCH   1  15
ATOM     15  C   LIG    1       23.656 -22.449   6.582  0.00  0.00    +0.158 C 
BRANCH  15  16
ATOM     16  C   LIG    1       23.657 -21.297   5.585  0.00  0.00    -0.011 A 
ATOM     17  C   LIG    1       24.857 -20.838   5.007  0.00  0.00    +0.051 A 
ATOM     18  C   LIG    1       24.861 -19.737   4.153  0.00  0.00    +0.121 A 
ATOM     19  C   LIG    1       23.687 -19.059   3.855  0.00  0.00    +0.090 A 
ATOM     20  C   LIG    1       22.499 -19.513   4.411  0.00  0.00    +0.121 A 
ATOM     21  C   LIG    1       22.469 -20.620   5.266  0.00  0.00    +0.051 A 
BRANCH  18  22
ATOM     22  O   LIG    1       26.056 -19.340   3.627  0.00  0.00    -0.507 OA
ATOM     23  H   LIG    1       25.905 -18.546   3.091  0.00  0.00    +0.292 HD
ENDBRANCH  18  22
BRANCH  20  24
ATOM     24  O   LIG    1       21.358 -18.826   4.108  0.00  0.00    -0.507 OA
ATOM     25  H   LIG    1       20.968 -18.487   4.932  0.00  0.00    +0.292 HD
ENDBRANCH  20  24
ENDBRANCH  15  16
BRANCH  15  26
ATOM     26  O   LIG    1       22.592 -23.342   6.263  0.00  0.00    -0.386 OA
ATOM     27  H   LIG    1       21.781 -22.917   6.599  0.00  0.00    +0.210 HD
ENDBRANCH  15  26
ENDBRANCH   1  15
TORSDOF 10
ENDMDL
MODEL 3
REMARK VINA RESULT:      -8.0      2.586      5.931
REMARK  Name = *****
REMARK                            x       y       z     vdW  Elec       q    Type
REMARK                         _______ _______ _______ _____ _____    ______ ____
ROOT
ATOM      1  C   LIG    1       24.252 -20.363   5.468  0.00  0.00    +0.117 C 
ENDROOT
BRANCH   1   2
ATOM      2  N   LIG    1       23.831 -21.775   5.336  0.00  0.00    -0.310 NA
ATOM      3  H   LIG    1       23.383 -21.932   4.432  0.00  0.00    +0.122 HD
BRANCH   2   5
ATOM      4  C   LIG    1       23.281 -21.354   7.689  0.00  0.00    +0.024 C 
ATOM      5  C   LIG    1       22.878 -22.132   6.433  0.00  0.00    +0.055 C 
BRANCH   5   6
ATOM      6  C   LIG    1       22.797 -23.663   6.713  0.00  0.00    +0.053 C 
BRANCH   6   7
ATOM      7  C   LIG    1       24.030 -24.482   6.380  0.00  0.00    -0.046 A 
ATOM      8  C   LIG    1       25.279 -24.169   6.946  0.00  0.00    +0.007 A 
ATOM      9  C   LIG    1       26.400 -24.955   6.662  0.00  0.00    +0.045 A 
ATOM     10  C   LIG    1       26.288 -26.050   5.820  0.00  0.00    +0.117 A 
ATOM     11  C   LIG    1       25.059 -26.390   5.262  0.00  0.00    +0.045 A 
ATOM     12  C   LIG    1       23.935 -25.609   5.553  0.00  0.00    +0.007 A 
BRANCH  10  13
ATOM     13  O   LIG    1       27.410 -26.783   5.561  0.00  0.00    -0.507 OA
ATOM     14  H   LIG    1       27.251 -27.326   4.775  0.00  0.00    +0.292 HD
ENDBRANCH  10  13
ENDBRANCH   6   7
ENDBRANCH   5   6
ENDBRANCH   2   5
ENDBRANCH   1   2
BRANCH   1  15
ATOM     15  C   LIG    1       25.537 -19.930   4.708  0.00  0.00    +0.158 C 
BRANCH  15  16
ATOM     16  C   LIG    1       26.747 -20.070   5.621  0.00  0.00    -0.011 A 
ATOM     17  C   LIG    1       26.678 -20.826   6.808  0.00  0.00    +0.051 A 
ATOM     18  C   LIG    1       27.766 -20.891   7.676  0.00  0.00    +0.121 A 
ATOM     19  C   LIG    1       28.942 -20.207   7.400  0.00  0.00    +0.090 A 
ATOM     20  C   LIG    1       29.022 -19.470   6.227  0.00  0.00    +0.121 A 
ATOM     21  C   LIG    1       27.946 -19.396   5.336  0.00  0.00    +0.051 A 
BRANCH  18  22
ATOM     22  O   LIG    1       27.636 -21.638   8.811  0.00  0.00    -0.507 OA
ATOM     23  H   LIG    1       27.799 -21.063   9.574  0.00  0.00    +0.292 HD
ENDBRANCH  18  22
BRANCH  20  24
ATOM     24  O   LIG    1       30.188 -18.801   5.980  0.00  0.00    -0.507 OA
ATOM     25  H   LIG    1       30.000 -17.848   5.943  0.00  0.00    +0.292 HD
ENDBRANCH  20  24
ENDBRANCH  15  16
BRANCH  15  26
ATOM     26  O   LIG    1       25.736 -20.724   3.541  0.00  0.00    -0.386 OA
ATOM     27  H   LIG    1       24.896 -20.681   3.047  0.00  0.00    +0.210 HD
ENDBRANCH  15  26
ENDBRANCH   1  15
TORSDOF 10
ENDMDL
MODEL 4
REMARK VINA RESULT:      -7.8      2.599      6.093
REMARK  Name = *****
REMARK                            x       y       z     vdW  Elec       q    Type
REMARK                         _______ _______ _______ _____ _____    ______ ____
ROOT
ATOM      1  C   LIG    1       24.178 -20.343   5.375  0.00  0.00    +0.117 C 
ENDROOT
BRANCH   1   2
ATOM      2  N   LIG    1       23.763 -21.759   5.283  0.00  0.00    -0.310 NA
ATOM      3  H   LIG    1       23.306 -21.941   4.388  0.00  0.00    +0.122 HD
BRANCH   2   5
ATOM      4  C   LIG    1       23.252 -21.304   7.638  0.00  0.00    +0.024 C 
ATOM      5  C   LIG    1       22.823 -22.094   6.398  0.00  0.00    +0.055 C 
BRANCH   5   6
ATOM      6  C   LIG    1       22.732 -23.621   6.699  0.00  0.00    +0.053 C 
BRANCH   6   7
ATOM      7  C   LIG    1       23.963 -24.451   6.386  0.00  0.00    -0.046 A 
ATOM      8  C   LIG    1       25.207 -24.142   6.964  0.00  0.00    +0.007 A 
ATOM      9  C   LIG    1       26.326 -24.938   6.700  0.00  0.00    +0.045 A 
ATOM     10  C   LIG    1       26.216 -26.039   5.865  0.00  0.00    +0.117 A 
ATOM     11  C   LIG    1       24.991 -26.375   5.295  0.00  0.00    +0.045 A 
ATOM     12  C   LIG    1       23.869 -25.583   5.567  0.00  0.00    +0.007 A 
BRANCH  10  13
ATOM     13  O   LIG    1       27.336 -26.781   5.625  0.00  0.00    -0.507 OA
ATOM     14  H   LIG    1       28.100 -26.320   6.000  0.00  0.00    +0.292 HD
ENDBRANCH  10  13
ENDBRANCH   6   7
ENDBRANCH   5   6
ENDBRANCH   2   5
ENDBRANCH   1   2
BRANCH   1  15
ATOM     15  C   LIG    1       25.523 -19.951   4.702  0.00  0.00    +0.158 C 
BRANCH  15  16
ATOM     16  C   LIG    1       26.663 -20.102   5.701  0.00  0.00    -0.011 A 
ATOM     17  C   LIG    1       27.932 -19.546   5.445  0.00  0.00    +0.051 A 
ATOM     18  C   LIG    1       28.990 -19.750   6.328  0.00  0.00    +0.121 A 
ATOM     19  C   LIG    1       28.826 -20.513   7.476  0.00  0.00    +0.090 A 
ATOM     20  C   LIG    1       27.577 -21.054   7.740  0.00  0.00    +0.121 A 
ATOM     21  C   LIG    1       26.497 -20.858   6.873  0.00  0.00    +0.051 A 
BRANCH  18  22
ATOM     22  O   LIG    1       30.195 -19.186   6.023  0.00  0.00    -0.507 OA
ATOM     23  H   LIG    1       30.119 -18.753   5.159  0.00  0.00    +0.292 HD
ENDBRANCH  18  22
BRANCH  20  24
ATOM     24  O   LIG    1       27.442 -21.806   8.873  0.00  0.00    -0.507 OA
ATOM     25  H   LIG    1       26.553 -22.200   8.884  0.00  0.00    +0.292 HD
ENDBRANCH  20  24
ENDBRANCH  15  16
BRANCH  15  26
ATOM     26  O   LIG    1       25.786 -20.768   3.564  0.00  0.00    -0.386 OA
ATOM     27  H   LIG    1       26.758 -20.815   3.493  0.00  0.00    +0.210 HD
ENDBRANCH  15  26
ENDBRANCH   1  15
TORSDOF 10
ENDMDL
MODEL 5
REMARK VINA RESULT:      -7.5      2.510      6.527
REMARK  Name = *****
REMARK                            x       y       z     vdW  Elec       q    Type
REMARK                         _______ _______ _______ _____ _____    ______ ____
ROOT
ATOM      1  C   LIG    1       25.510 -21.504   6.262  0.00  0.00    +0.117 C 
ENDROOT
BRANCH   1   2
ATOM      2  N   LIG    1       24.395 -21.969   5.410  0.00  0.00    -0.310 NA
ATOM      3  H   LIG    1       24.186 -21.281   4.685  0.00  0.00    +0.122 HD
BRANCH   2   5
ATOM      4  C   LIG    1       23.181 -21.196   7.396  0.00  0.00    +0.024 C 
ATOM      5  C   LIG    1       23.174 -22.203   6.242  0.00  0.00    +0.055 C 
BRANCH   5   6
ATOM      6  C   LIG    1       23.046 -23.666   6.763  0.00  0.00    +0.053 C 
BRANCH   6   7
ATOM      7  C   LIG    1       24.164 -24.621   6.390  0.00  0.00    -0.046 A 
ATOM      8  C   LIG    1       23.981 -25.591   5.389  0.00  0.00    +0.007 A 
ATOM      9  C   LIG    1       25.031 -26.440   5.027  0.00  0.00    +0.045 A 
ATOM     10  C   LIG    1       26.263 -26.330   5.653  0.00  0.00    +0.117 A 
ATOM     11  C   LIG    1       26.474 -25.366   6.635  0.00  0.00    +0.045 A 
ATOM     12  C   LIG    1       25.425 -24.511   6.991  0.00  0.00    +0.007 A 
BRANCH  10  13
ATOM     13  O   LIG    1       27.258 -27.187   5.277  0.00  0.00    -0.507 OA
ATOM     14  H   LIG    1       27.066 -27.512   4.385  0.00  0.00    +0.292 HD
ENDBRANCH  10  13
ENDBRANCH   6   7
ENDBRANCH   5   6
ENDBRANCH   2   5
ENDBRANCH   1   2
BRANCH   1  15
ATOM     15  C   LIG    1       26.331 -20.285   5.757  0.00  0.00    +0.158 C 
BRANCH  15  16
ATOM     16  C   LIG    1       27.707 -20.284   6.410  0.00  0.00    -0.011 A 
ATOM     17  C   LIG    1       28.761 -19.512   5.884  0.00  0.00    +0.051 A 
ATOM     18  C   LIG    1       30.036 -19.571   6.441  0.00  0.00    +0.121 A 
ATOM     19  C   LIG    1       30.305 -20.399   7.523  0.00  0.00    +0.090 A 
ATOM     20  C   LIG    1       29.270 -21.154   8.054  0.00  0.00    +0.121 A 
ATOM     21  C   LIG    1       27.979 -21.105   7.516  0.00  0.00    +0.051 A 
BRANCH  18  22
ATOM     22  O   LIG    1       31.015 -18.800   5.884  0.00  0.00    -0.507 OA
ATOM     23  H   LIG    1       31.824 -18.911   6.406  0.00  0.00    +0.292 HD
ENDBRANCH  18  22
BRANCH  20  24
ATOM     24  O   LIG    1       29.560 -21.965   9.115  0.00  0.00    -0.507 OA
ATOM     25  H   LIG    1       28.894 -21.825   9.809  0.00  0.00    +0.292 HD
ENDBRANCH  20  24
ENDBRANCH  15  16
BRANCH  15  26
ATOM     26  O   LIG    1       26.486 -20.320   4.340  0.00  0.00    -0.386 OA
ATOM     27  H   LIG    1       25.732 -20.842   4.006  0.00  0.00    +0.210 HD
ENDBRANCH  15  26
ENDBRANCH   1  15
TORSDOF 10
ENDMDL
MODEL 6
REMARK VINA RESULT:      -7.2      2.760      5.048
REMARK  Name = *****
REMARK                            x       y       z     vdW  Elec       q    Type
REMARK                         _______ _______ _______ _____ _____    ______ ____
ROOT
ATOM      1  C   LIG    1       24.213 -22.433   5.807  0.00  0.00    +0.117 C 
ENDROOT
BRANCH   1   2
ATOM      2  N   LIG    1       25.382 -21.872   5.096  0.00  0.00    -0.310 NA
ATOM      3  H   LIG    1       26.238 -22.348   5.384  0.00  0.00    +0.122 HD
BRANCH   2   5
ATOM      4  C   LIG    1       24.288 -19.700   4.781  0.00  0.00    +0.024 C 
ATOM      5  C   LIG    1       25.505 -20.409   5.382  0.00  0.00    +0.055 C 
BRANCH   5   6
ATOM      6  C   LIG    1       26.838 -19.784   4.871  0.00  0.00    +0.053 C 
BRANCH   6   7
ATOM      7  C   LIG    1       28.040 -19.897   5.790  0.00  0.00    -0.046 A 
ATOM      8  C   LIG    1       29.099 -18.976   5.711  0.00  0.00    +0.007 A 
ATOM      9  C   LIG    1       30.182 -19.067   6.590  0.00  0.00    +0.045 A 
ATOM     10  C   LIG    1       30.219 -20.068   7.547  0.00  0.00    +0.117 A 
ATOM     11  C   LIG    1       29.174 -20.982   7.657  0.00  0.00    +0.045 A 
ATOM     12  C   LIG    1       28.085 -20.885   6.783  0.00  0.00    +0.007 A 
BRANCH  10  13
ATOM     13  O   LIG    1       31.301 -20.128   8.378  0.00  0.00    -0.507 OA
ATOM     14  H   LIG    1       30.993 -20.315   9.277  0.00  0.00    +0.292 HD
ENDBRANCH  10  13
ENDBRANCH   6   7
ENDBRANCH   5   6
ENDBRANCH   2   5
ENDBRANCH   1   2
BRANCH   1  15
ATOM     15  C   LIG    1       24.496 -23.378   7.008  0.00  0.00    +0.158 C 
BRANCH  15  16
ATOM     16  C   LIG    1       24.906 -24.753   6.496  0.00  0.00    -0.011 A 
ATOM     17  C   LIG    1       26.263 -25.113   6.388  0.00  0.00    +0.051 A 
ATOM     18  C   LIG    1       26.633 -26.345   5.851  0.00  0.00    +0.121 A 
ATOM     19  C   LIG    1       25.676 -27.244   5.400  0.00  0.00    +0.090 A 
ATOM     20  C   LIG    1       24.337 -26.901   5.515  0.00  0.00    +0.121 A 
ATOM     21  C   LIG    1       23.941 -25.674   6.057  0.00  0.00    +0.051 A 
BRANCH  18  22
ATOM     22  O   LIG    1       27.965 -26.634   5.770  0.00  0.00    -0.507 OA
ATOM     23  H   LIG    1       28.077 -27.388   5.172  0.00  0.00    +0.292 HD
ENDBRANCH  18  22
BRANCH  20  24
ATOM     24  O   LIG    1       23.414 -27.800   5.059  0.00  0.00    -0.507 OA
ATOM     25  H   LIG    1       23.648 -28.057   4.151  0.00  0.00    +0.292 HD
ENDBRANCH  20  24
ENDBRANCH  15  16
BRANCH  15  26
ATOM     26  O   LIG    1       25.534 -22.860   7.837  0.00  0.00    -0.386 OA
ATOM     27  H   LIG    1       25.576 -21.905   7.640  0.00  0.00    +0.210 HD
ENDBRANCH  15  26
ENDBRANCH   1  15
TORSDOF 10
ENDMDL
MODEL 7
REMARK VINA RESULT:      -7.2      2.403      4.636
REMARK  Name = *****
REMARK                            x       y       z     vdW  Elec       q    Type
REMARK                         _______ _______ _______ _____ _____    ______ ____
ROOT
ATOM      1  C   LIG    1       22.415 -21.580   5.607  0.00  0.00    +0.117 C 
ENDROOT
BRANCH   1   2
ATOM      2  N   LIG    1       23.555 -21.443   4.676  0.00  0.00    -0.310 NA
ATOM      3  H   LIG    1       24.248 -22.173   4.849  0.00  0.00    +0.122 HD
BRANCH   2   5
ATOM      4  C   LIG    1       23.376 -19.081   4.043  0.00  0.00    +0.024 C 
ATOM      5  C   LIG    1       24.195 -20.101   4.840  0.00  0.00    +0.055 C 
BRANCH   5   6
ATOM      6  C   LIG    1       25.698 -20.072   4.427  0.00  0.00    +0.053 C 
BRANCH   6   7
ATOM      7  C   LIG    1       26.713 -20.069   5.554  0.00  0.00    -0.046 A 
ATOM      8  C   LIG    1       28.051 -19.706   5.319  0.00  0.00    +0.007 A 
ATOM      9  C   LIG    1       28.969 -19.668   6.373  0.00  0.00    +0.045 A 
ATOM     10  C   LIG    1       28.565 -19.988   7.660  0.00  0.00    +0.117 A 
ATOM     11  C   LIG    1       27.241 -20.335   7.920  0.00  0.00    +0.045 A 
ATOM     12  C   LIG    1       26.321 -20.363   6.866  0.00  0.00    +0.007 A 
BRANCH  10  13
ATOM     13  O   LIG    1       29.495 -19.950   8.658  0.00  0.00    -0.507 OA
ATOM     14  H   LIG    1       30.367 -20.131   8.276  0.00  0.00    +0.292 HD
ENDBRANCH  10  13
ENDBRANCH   6   7
ENDBRANCH   5   6
ENDBRANCH   2   5
ENDBRANCH   1   2
BRANCH   1  15
ATOM     15  C   LIG    1       22.671 -22.338   6.940  0.00  0.00    +0.158 C 
BRANCH  15  16
ATOM     16  C   LIG    1       23.692 -23.446   6.715  0.00  0.00    -0.011 A 
ATOM     17  C   LIG    1       25.074 -23.182   6.774  0.00  0.00    +0.051 A 
ATOM     18  C   LIG    1       26.003 -24.182   6.495  0.00  0.00    +0.121 A 
ATOM     19  C   LIG    1       25.593 -25.461   6.144  0.00  0.00    +0.090 A 
ATOM     20  C   LIG    1       24.233 -25.732   6.095  0.00  0.00    +0.121 A 
ATOM     21  C   LIG    1       23.281 -24.746   6.378  0.00  0.00    +0.051 A 
BRANCH  18  22
ATOM     22  O   LIG    1       27.328 -23.863   6.567  0.00  0.00    -0.507 OA
ATOM     23  H   LIG    1       27.409 -22.984   6.968  0.00  0.00    +0.292 HD
ENDBRANCH  18  22
BRANCH  20  24
ATOM     24  O   LIG    1       23.853 -26.995   5.742  0.00  0.00    -0.507 OA
ATOM     25  H   LIG    1       23.986 -27.587   6.502  0.00  0.00    +0.292 HD
ENDBRANCH  20  24
ENDBRANCH  15  16
BRANCH  15  26
ATOM     26  O   LIG    1       23.153 -21.455   7.950  0.00  0.00    -0.386 OA
ATOM     27  H   LIG    1       22.605 -21.631   8.737  0.00  0.00    +0.210 HD
ENDBRANCH  15  26
ENDBRANCH   1  15
TORSDOF 10
ENDMDL
MODEL 8
REMARK VINA RESULT:      -7.1      2.710      4.687
REMARK  Name = *****
REMARK                            x       y       z     vdW  Elec       q    Type
REMARK                         _______ _______ _______ _____ _____    ______ ____
ROOT
ATOM      1  C   LIG    1       24.842 -22.684   7.156  0.00  0.00    +0.117 C 
ENDROOT
BRANCH   1   2
ATOM      2  N   LIG    1       26.141 -22.266   6.588  0.00  0.00    -0.310 NA
ATOM      3  H   LIG    1       26.910 -22.586   7.179  0.00  0.00    +0.122 HD
BRANCH   2   5
ATOM      4  C   LIG    1       24.960 -20.315   5.685  0.00  0.00    +0.024 C 
ATOM      5  C   LIG    1       26.194 -20.776   6.466  0.00  0.00    +0.055 C 
BRANCH   5   6
ATOM      6  C   LIG    1       27.509 -20.250   5.815  0.00  0.00    +0.053 C 
BRANCH   6   7
ATOM      7  C   LIG    1       28.718 -20.129   6.724  0.00  0.00    -0.046 A 
ATOM      8  C   LIG    1       29.097 -21.189   7.566  0.00  0.00    +0.007 A 
ATOM      9  C   LIG    1       30.235 -21.080   8.371  0.00  0.00    +0.045 A 
ATOM     10  C   LIG    1       30.999 -19.924   8.343  0.00  0.00    +0.117 A 
ATOM     11  C   LIG    1       30.653 -18.867   7.505  0.00  0.00    +0.045 A 
ATOM     12  C   LIG    1       29.519 -18.980   6.693  0.00  0.00    +0.007 A 
BRANCH  10  13
ATOM     13  O   LIG    1       32.096 -19.855   9.153  0.00  0.00    -0.507 OA
ATOM     14  H   LIG    1       31.835 -19.454   9.996  0.00  0.00    +0.292 HD
ENDBRANCH  10  13
ENDBRANCH   6   7
ENDBRANCH   5   6
ENDBRANCH   2   5
ENDBRANCH   1   2
BRANCH   1  15
ATOM     15  C   LIG    1       23.974 -23.655   6.308  0.00  0.00    +0.158 C 
BRANCH  15  16
ATOM     16  C   LIG    1       24.738 -24.950   6.064  0.00  0.00    -0.011 A 
ATOM     17  C   LIG    1       25.179 -25.747   7.139  0.00  0.00    +0.051 A 
ATOM     18  C   LIG    1       25.940 -26.891   6.912  0.00  0.00    +0.121 A 
ATOM     19  C   LIG    1       26.293 -27.271   5.624  0.00  0.00    +0.090 A 
ATOM     20  C   LIG    1       25.853 -26.499   4.560  0.00  0.00    +0.121 A 
ATOM     21  C   LIG    1       25.081 -25.349   4.762  0.00  0.00    +0.051 A 
BRANCH  18  22
ATOM     22  O   LIG    1       26.339 -27.620   7.995  0.00  0.00    -0.507 OA
ATOM     23  H   LIG    1       27.171 -27.246   8.325  0.00  0.00    +0.292 HD
ENDBRANCH  18  22
BRANCH  20  24
ATOM     24  O   LIG    1       26.217 -26.889   3.303  0.00  0.00    -0.507 OA
ATOM     25  H   LIG    1       25.417 -27.130   2.805  0.00  0.00    +0.292 HD
ENDBRANCH  20  24
ENDBRANCH  15  16
BRANCH  15  26
ATOM     26  O   LIG    1       22.745 -23.954   6.965  0.00  0.00    -0.386 OA
ATOM     27  H   LIG    1       22.091 -23.330   6.599  0.00  0.00    +0.210 HD
ENDBRANCH  15  26
ENDBRANCH   1  15
TORSDOF 10
ENDMDL
MODEL 9
REMARK VINA RESULT:      -7.1      2.771      4.849
REMARK  Name = *****
REMARK                            x       y       z     vdW  Elec       q    Type
REMARK                         _______ _______ _______ _____ _____    ______ ____
ROOT
ATOM      1  C   LIG    1       23.908 -22.438   5.871  0.00  0.00    +0.117 C 
ENDROOT
BRANCH   1   2
ATOM      2  N   LIG    1       24.938 -21.911   4.950  0.00  0.00    -0.310 NA
ATOM      3  H   LIG    1       25.835 -22.369   5.117  0.00  0.00    +0.122 HD
BRANCH   2   5
ATOM      4  C   LIG    1       23.956 -19.738   4.377  0.00  0.00    +0.024 C 
ATOM      5  C   LIG    1       25.089 -20.435   5.137  0.00  0.00    +0.055 C 
BRANCH   5   6
ATOM      6  C   LIG    1       26.485 -19.892   4.703  0.00  0.00    +0.053 C 
BRANCH   6   7
ATOM      7  C   LIG    1       27.540 -19.785   5.787  0.00  0.00    -0.046 A 
ATOM      8  C   LIG    1       28.693 -19.003   5.597  0.00  0.00    +0.007 A 
ATOM      9  C   LIG    1       29.640 -18.881   6.619  0.00  0.00    +0.045 A 
ATOM     10  C   LIG    1       29.448 -19.530   7.828  0.00  0.00    +0.117 A 
ATOM     11  C   LIG    1       28.306 -20.296   8.046  0.00  0.00    +0.045 A 
ATOM     12  C   LIG    1       27.353 -20.411   7.027  0.00  0.00    +0.007 A 
BRANCH  10  13
ATOM     13  O   LIG    1       30.403 -19.393   8.794  0.00  0.00    -0.507 OA
ATOM     14  H   LIG    1       29.974 -19.430   9.662  0.00  0.00    +0.292 HD
ENDBRANCH  10  13
ENDBRANCH   6   7
ENDBRANCH   5   6
ENDBRANCH   2   5
ENDBRANCH   1   2
BRANCH   1  15
ATOM     15  C   LIG    1       24.388 -23.371   7.018  0.00  0.00    +0.158 C 
BRANCH  15  16
ATOM     16  C   LIG    1       24.855 -24.700   6.439  0.00  0.00    -0.011 A 
ATOM     17  C   LIG    1       23.929 -25.665   5.995  0.00  0.00    +0.051 A 
ATOM     18  C   LIG    1       24.359 -26.907   5.535  0.00  0.00    +0.121 A 
ATOM     19  C   LIG    1       25.709 -27.231   5.509  0.00  0.00    +0.090 A 
ATOM     20  C   LIG    1       26.628 -26.283   5.933  0.00  0.00    +0.121 A 
ATOM     21  C   LIG    1       26.220 -25.026   6.393  0.00  0.00    +0.051 A 
BRANCH  18  22
ATOM     22  O   LIG    1       23.413 -27.800   5.121  0.00  0.00    -0.507 OA
ATOM     23  H   LIG    1       22.945 -27.418   4.363  0.00  0.00    +0.292 HD
ENDBRANCH  18  22
BRANCH  20  24
ATOM     24  O   LIG    1       27.949 -26.627   5.904  0.00  0.00    -0.507 OA
ATOM     25  H   LIG    1       28.083 -27.303   5.218  0.00  0.00    +0.292 HD
ENDBRANCH  20  24
ENDBRANCH  15  16
BRANCH  15  26
ATOM     26  O   LIG    1       25.458 -22.778   7.750  0.00  0.00    -0.386 OA
ATOM     27  H   LIG    1       25.825 -23.492   8.303  0.00  0.00    +0.210 HD
ENDBRANCH  15  26
ENDBRANCH   1  15
TORSDOF 10
ENDMDL
