MODEL 1
REMARK VINA RESULT:      -5.0      0.000      0.000
REMARK  Name = *****
REMARK                            x       y       z     vdW  Elec       q    Type
REMARK                         _______ _______ _______ _____ _____    ______ ____
ROOT
ATOM      1  C   LIG    1       23.268 -20.559   6.590  0.00  0.00    +0.058 C 
ATOM      2  C   LIG    1       24.563 -21.361   6.783  0.00  0.00    +0.220 C 
ENDROOT
BRANCH   2   3
ATOM      3  O   LIG    1       25.630 -20.411   7.007  0.00  0.00    -0.442 OA
BRANCH   3   4
ATOM      4  C   LIG    1       26.339 -20.560   8.146  0.00  0.00    +0.398 C 
ATOM      5  O   LIG    1       25.871 -20.592   9.279  0.00  0.00    -0.227 OA
ATOM      6  N   LIG    1       27.641 -20.707   7.881  0.00  0.00    -0.295 N 
ATOM      7  H   LIG    1       28.205 -21.099   8.625  0.00  0.00    +0.148 HD
ATOM      8  H   LIG    1       27.929 -20.879   6.925  0.00  0.00    +0.148 HD
ENDBRANCH   3   4
ENDBRANCH   2   3
BRANCH   2   9
ATOM      9  C   LIG    1       24.825 -22.379   5.639  0.00  0.00    +0.177 C 
BRANCH   9  10
ATOM     10  N   LIG    1       24.754 -23.887   6.050  0.00  0.00    +0.239 N 
ATOM     11  C   LIG    1       25.024 -24.800   4.866  0.00  0.00    +0.192 C 
ATOM     12  C   LIG    1       23.416 -24.260   6.683  0.00  0.00    +0.192 C 
ATOM     13  C   LIG    1       25.833 -24.124   7.114  0.00  0.00    +0.192 C 
ENDBRANCH   9  10
ENDBRANCH   2   9
TORSDOF 4
ENDMDL
MODEL 2
REMARK VINA RESULT:      -5.0      0.101      1.295
REMARK  Name = *****
REMARK                            x       y       z     vdW  Elec       q    Type
REMARK                         _______ _______ _______ _____ _____    ______ ____
ROOT
ATOM      1  C   LIG    1       23.259 -20.475   6.501  0.00  0.00    +0.058 C 
ATOM      2  C   LIG    1       24.525 -21.308   6.749  0.00  0.00    +0.220 C 
ENDROOT
BRANCH   2   3
ATOM      3  O   LIG    1       25.609 -20.382   6.995  0.00  0.00    -0.442 OA
BRANCH   3   4
ATOM      4  C   LIG    1       26.313 -20.567   8.133  0.00  0.00    +0.398 C 
ATOM      5  O   LIG    1       25.834 -20.764   9.244  0.00  0.00    -0.227 OA
ATOM      6  N   LIG    1       27.627 -20.544   7.889  0.00  0.00    -0.295 N 
ATOM      7  H   LIG    1       28.219 -20.945   8.606  0.00  0.00    +0.148 HD
ATOM      8  H   LIG    1       27.947 -20.586   6.929  0.00  0.00    +0.148 HD
ENDBRANCH   3   4
ENDBRANCH   2   3
BRANCH   2   9
ATOM      9  C   LIG    1       24.799 -22.350   5.631  0.00  0.00    +0.177 C 
BRANCH   9  10
ATOM     10  N   LIG    1       24.816 -23.845   6.092  0.00  0.00    +0.239 N 
ATOM     11  C   LIG    1       25.875 -24.088   7.154  0.00  0.00    +0.192 C 
ATOM     12  C   LIG    1       25.029 -24.815   4.933  0.00  0.00    +0.192 C 
ATOM     13  C   LIG    1       23.438 -24.157   6.688  0.00  0.00    +0.192 C 
ENDBRANCH   9  10
ENDBRANCH   2   9
TORSDOF 4
ENDMDL
MODEL 3
REMARK VINA RESULT:      -4.8      3.539      4.731
REMARK  Name = *****
REMARK                            x       y       z     vdW  Elec       q    Type
REMARK                         _______ _______ _______ _____ _____    ______ ____
ROOT
ATOM      1  C   LIG    1       29.400 -18.715   6.038  0.00  0.00    +0.058 C 
ATOM      2  C   LIG    1       29.433 -19.817   7.106  0.00  0.00    +0.220 C 
ENDROOT
BRANCH   2   3
ATOM      3  O   LIG    1       30.820 -20.050   7.443  0.00  0.00    -0.442 OA
BRANCH   3   4
ATOM      4  C   LIG    1       31.068 -20.513   8.687  0.00  0.00    +0.398 C 
ATOM      5  O   LIG    1       30.775 -19.943   9.732  0.00  0.00    -0.227 OA
ATOM      6  N   LIG    1       31.653 -21.715   8.640  0.00  0.00    -0.295 N 
ATOM      7  H   LIG    1       31.621 -22.258   9.494  0.00  0.00    +0.148 HD
ATOM      8  H   LIG    1       31.675 -22.214   7.759  0.00  0.00    +0.148 HD
ENDBRANCH   3   4
ENDBRANCH   2   3
BRANCH   2   9
ATOM      9  C   LIG    1       28.640 -21.088   6.694  0.00  0.00    +0.177 C 
BRANCH   9  10
ATOM     10  N   LIG    1       27.111 -21.064   7.026  0.00  0.00    +0.239 N 
ATOM     11  C   LIG    1       26.305 -20.446   5.896  0.00  0.00    +0.192 C 
ATOM     12  C   LIG    1       26.804 -20.328   8.328  0.00  0.00    +0.192 C 
ATOM     13  C   LIG    1       26.660 -22.517   7.218  0.00  0.00    +0.192 C 
ENDBRANCH   9  10
ENDBRANCH   2   9
TORSDOF 4
ENDMDL
MODEL 4
REMARK VINA RESULT:      -4.6      1.932      2.744
REMARK  Name = *****
REMARK                            x       y       z     vdW  Elec       q    Type
REMARK                         _______ _______ _______ _____ _____    ______ ____
ROOT
ATOM      1  C   LIG    1       22.602 -20.976   5.355  0.00  0.00    +0.058 C 
ATOM      2  C   LIG    1       24.013 -21.385   5.801  0.00  0.00    +0.220 C 
ENDROOT
BRANCH   2   3
ATOM      3  O   LIG    1       24.853 -20.211   5.709  0.00  0.00    -0.442 OA
BRANCH   3   4
ATOM      4  C   LIG    1       25.605 -20.094   4.594  0.00  0.00    +0.398 C 
ATOM      5  O   LIG    1       25.178 -19.880   3.464  0.00  0.00    -0.227 OA
ATOM      6  N   LIG    1       26.906 -20.207   4.882  0.00  0.00    -0.295 N 
ATOM      7  H   LIG    1       27.548 -19.860   4.181  0.00  0.00    +0.148 HD
ATOM      8  H   LIG    1       27.196 -20.174   5.852  0.00  0.00    +0.148 HD
ENDBRANCH   3   4
ENDBRANCH   2   3
BRANCH   2   9
ATOM      9  C   LIG    1       24.552 -22.633   5.050  0.00  0.00    +0.177 C 
BRANCH   9  10
ATOM     10  N   LIG    1       24.827 -23.889   5.941  0.00  0.00    +0.239 N 
ATOM     11  C   LIG    1       25.901 -23.612   6.979  0.00  0.00    +0.192 C 
ATOM     12  C   LIG    1       25.220 -25.116   5.121  0.00  0.00    +0.192 C 
ATOM     13  C   LIG    1       23.519 -24.235   6.662  0.00  0.00    +0.192 C 
ENDBRANCH   9  10
ENDBRANCH   2   9
TORSDOF 4
ENDMDL
MODEL 5
REMARK VINA RESULT:      -4.6      2.109      3.250
REMARK  Name = *****
REMARK                            x       y       z     vdW  Elec       q    Type
REMARK                         _______ _______ _______ _____ _____    ______ ____
ROOT
ATOM      1  C   LIG    1       23.005 -22.972   6.847  0.00  0.00    +0.058 C 
ATOM      2  C   LIG    1       23.946 -21.760   6.836  0.00  0.00    +0.220 C 
ENDROOT
BRANCH   2   3
ATOM      3  O   LIG    1       24.230 -21.421   8.213  0.00  0.00    -0.442 OA
BRANCH   3   4
ATOM      4  C   LIG    1       25.533 -21.316   8.552  0.00  0.00    +0.398 C 
ATOM      5  O   LIG    1       26.000 -20.508   9.347  0.00  0.00    -0.227 OA
ATOM      6  N   LIG    1       26.264 -22.246   7.929  0.00  0.00    -0.295 N 
ATOM      7  H   LIG    1       27.179 -22.429   8.322  0.00  0.00    +0.148 HD
ATOM      8  H   LIG    1       25.789 -23.004   7.455  0.00  0.00    +0.148 HD
ENDBRANCH   3   4
ENDBRANCH   2   3
BRANCH   2   9
ATOM      9  C   LIG    1       23.416 -20.584   5.971  0.00  0.00    +0.177 C 
BRANCH   9  10
ATOM     10  N   LIG    1       24.236 -20.278   4.674  0.00  0.00    +0.239 N 
ATOM     11  C   LIG    1       25.720 -20.143   4.972  0.00  0.00    +0.192 C 
ATOM     12  C   LIG    1       23.748 -19.025   3.953  0.00  0.00    +0.192 C 
ATOM     13  C   LIG    1       24.030 -21.455   3.713  0.00  0.00    +0.192 C 
ENDBRANCH   9  10
ENDBRANCH   2   9
TORSDOF 4
ENDMDL
MODEL 6
REMARK VINA RESULT:      -4.5      2.650      3.526
REMARK  Name = *****
REMARK                            x       y       z     vdW  Elec       q    Type
REMARK                         _______ _______ _______ _____ _____    ______ ____
ROOT
ATOM      1  C   LIG    1       22.304 -18.901   4.641  0.00  0.00    +0.058 C 
ATOM      2  C   LIG    1       23.378 -19.956   4.941  0.00  0.00    +0.220 C 
ENDROOT
BRANCH   2   3
ATOM      3  O   LIG    1       24.312 -19.946   3.838  0.00  0.00    -0.442 OA
BRANCH   3   4
ATOM      4  C   LIG    1       25.547 -19.465   4.098  0.00  0.00    +0.398 C 
ATOM      5  O   LIG    1       26.331 -19.921   4.922  0.00  0.00    -0.227 OA
ATOM      6  N   LIG    1       25.832 -18.428   3.303  0.00  0.00    -0.295 N 
ATOM      7  H   LIG    1       26.811 -18.184   3.224  0.00  0.00    +0.148 HD
ATOM      8  H   LIG    1       25.229 -18.239   2.512  0.00  0.00    +0.148 HD
ENDBRANCH   3   4
ENDBRANCH   2   3
BRANCH   2   9
ATOM      9  C   LIG    1       22.784 -21.350   5.280  0.00  0.00    +0.177 C 
BRANCH   9  10
ATOM     10  N   LIG    1       23.646 -22.234   6.242  0.00  0.00    +0.239 N 
ATOM     11  C   LIG    1       24.205 -21.419   7.396  0.00  0.00    +0.192 C 
ATOM     12  C   LIG    1       24.789 -22.943   5.521  0.00  0.00    +0.192 C 
ATOM     13  C   LIG    1       22.729 -23.326   6.807  0.00  0.00    +0.192 C 
ENDBRANCH   9  10
ENDBRANCH   2   9
TORSDOF 4
ENDMDL
MODEL 7
REMARK VINA RESULT:      -4.5      3.115      4.829
REMARK  Name = *****
REMARK                            x       y       z     vdW  Elec       q    Type
REMARK                         _______ _______ _______ _____ _____    ______ ____
ROOT
ATOM      1  C   LIG    1       25.990 -24.095   6.893  0.00  0.00    +0.058 C 
ATOM      2  C   LIG    1       24.865 -23.939   5.860  0.00  0.00    +0.220 C 
ENDROOT
BRANCH   2   3
ATOM      3  O   LIG    1       25.191 -24.786   4.735  0.00  0.00    -0.442 OA
BRANCH   3   4
ATOM      4  C   LIG    1       25.292 -26.109   4.986  0.00  0.00    +0.398 C 
ATOM      5  O   LIG    1       26.308 -26.784   4.859  0.00  0.00    -0.227 OA
ATOM      6  N   LIG    1       24.133 -26.599   5.437  0.00  0.00    -0.295 N 
ATOM      7  H   LIG    1       24.182 -27.493   5.911  0.00  0.00    +0.148 HD
ATOM      8  H   LIG    1       23.404 -25.953   5.714  0.00  0.00    +0.148 HD
ENDBRANCH   3   4
ENDBRANCH   2   3
BRANCH   2   9
ATOM      9  C   LIG    1       24.571 -22.457   5.498  0.00  0.00    +0.177 C 
BRANCH   9  10
ATOM     10  N   LIG    1       23.317 -21.830   6.191  0.00  0.00    +0.239 N 
ATOM     11  C   LIG    1       22.467 -21.048   5.204  0.00  0.00    +0.192 C 
ATOM     12  C   LIG    1       23.686 -20.928   7.367  0.00  0.00    +0.192 C 
ATOM     13  C   LIG    1       22.481 -22.983   6.759  0.00  0.00    +0.192 C 
ENDBRANCH   9  10
ENDBRANCH   2   9
TORSDOF 4
ENDMDL
MODEL 8
REMARK VINA RESULT:      -4.5      1.873      3.180
REMARK  Name = *****
REMARK                            x       y       z     vdW  Elec       q    Type
REMARK                         _______ _______ _______ _____ _____    ______ ____
ROOT
ATOM      1  C   LIG    1       25.902 -24.438   6.790  0.00  0.00    +0.058 C 
ATOM      2  C   LIG    1       25.628 -22.935   6.637  0.00  0.00    +0.220 C 
ENDROOT
BRANCH   2   3
ATOM      3  O   LIG    1       25.258 -22.429   7.940  0.00  0.00    -0.442 OA
BRANCH   3   4
ATOM      4  C   LIG    1       26.138 -21.594   8.533  0.00  0.00    +0.398 C 
ATOM      5  O   LIG    1       27.345 -21.783   8.635  0.00  0.00    -0.227 OA
ATOM      6  N   LIG    1       25.524 -20.490   8.975  0.00  0.00    -0.295 N 
ATOM      7  H   LIG    1       26.123 -19.698   9.174  0.00  0.00    +0.148 HD
ATOM      8  H   LIG    1       24.575 -20.307   8.675  0.00  0.00    +0.148 HD
ENDBRANCH   3   4
ENDBRANCH   2   3
BRANCH   2   9
ATOM      9  C   LIG    1       24.618 -22.612   5.502  0.00  0.00    +0.177 C 
BRANCH   9  10
ATOM     10  N   LIG    1       24.475 -21.097   5.138  0.00  0.00    +0.239 N 
ATOM     11  C   LIG    1       25.799 -20.364   5.272  0.00  0.00    +0.192 C 
ATOM     12  C   LIG    1       23.417 -20.389   5.980  0.00  0.00    +0.192 C 
ATOM     13  C   LIG    1       24.010 -21.017   3.679  0.00  0.00    +0.192 C 
ENDBRANCH   9  10
ENDBRANCH   2   9
TORSDOF 4
ENDMDL
MODEL 9
REMARK VINA RESULT:      -4.5      5.524      7.275
REMARK  Name = *****
REMARK                            x       y       z     vdW  Elec       q    Type
REMARK                         _______ _______ _______ _____ _____    ______ ____
ROOT
ATOM      1  C   LIG    1       29.196 -20.007   6.556  0.00  0.00    +0.058 C 
ATOM      2  C   LIG    1       29.946 -20.019   7.896  0.00  0.00    +0.220 C 
ENDROOT
BRANCH   2   3
ATOM      3  O   LIG    1       29.820 -21.348   8.449  0.00  0.00    -0.442 OA
BRANCH   3   4
ATOM      4  C   LIG    1       30.845 -21.782   9.214  0.00  0.00    +0.398 C 
ATOM      5  O   LIG    1       30.802 -21.964  10.426  0.00  0.00    -0.227 OA
ATOM      6  N   LIG    1       31.926 -22.030   8.468  0.00  0.00    -0.295 N 
ATOM      7  H   LIG    1       32.636 -22.613   8.893  0.00  0.00    +0.148 HD
ATOM      8  H   LIG    1       31.828 -22.058   7.460  0.00  0.00    +0.148 HD
ENDBRANCH   3   4
ENDBRANCH   2   3
BRANCH   2   9
ATOM      9  C   LIG    1       29.510 -18.872   8.848  0.00  0.00    +0.177 C 
BRANCH   9  10
ATOM     10  N   LIG    1       30.674 -18.024   9.459  0.00  0.00    +0.239 N 
ATOM     11  C   LIG    1       32.007 -18.359   8.811  0.00  0.00    +0.192 C 
ATOM     12  C   LIG    1       30.791 -18.190  10.972  0.00  0.00    +0.192 C 
ATOM     13  C   LIG    1       30.353 -16.547   9.196  0.00  0.00    +0.192 C 
ENDBRANCH   9  10
ENDBRANCH   2   9
TORSDOF 4
ENDMDL
