MODEL 1
REMARK VINA RESULT:       0.1      0.000      0.000
REMARK  Name = *****
REMARK                            x       y       z     vdW  Elec       q    Type
REMARK                         _______ _______ _______ _____ _____    ______ ____
ROOT
ATOM      1  C   LIG    1       24.120 -19.205   3.722  0.00  0.00    +0.112 C 
ATOM      2  C   LIG    1       22.824 -18.968   4.539  0.00  0.00    +0.101 C 
ATOM      3  N   LIG    1       22.229 -17.617   4.437  0.00  0.00    -0.297 NA
ATOM      4  C   LIG    1       21.582 -17.424   3.134  0.00  0.00    +0.105 C 
ATOM      5  C   LIG    1       23.276 -16.589   4.728  0.00  0.00    +0.091 C 
ATOM      6  C   LIG    1       24.500 -16.719   3.780  0.00  0.00    -0.025 C 
ATOM      7  C   LIG    1       25.245 -15.502   3.388  0.00  0.00    -0.011 C 
ATOM      8  C   LIG    1       24.688 -14.297   3.836  0.00  0.00    +0.010 C 
ATOM      9  C   LIG    1       25.274 -13.073   3.545  0.00  0.00    +0.047 C 
ATOM     10  N   LIG    1       24.479 -12.111   4.128  0.00  0.00    -0.360 NA
ATOM     11  H   LIG    1       24.652 -11.117   4.080  0.00  0.00    +0.165 HD
ATOM     12  C   LIG    1       23.411 -12.698   4.764  0.00  0.00    +0.087 C 
ATOM     13  C   LIG    1       26.442 -12.974   2.787  0.00  0.00    +0.026 C 
ATOM     14  C   LIG    1       27.006 -14.174   2.337  0.00  0.00    +0.003 C 
ATOM     15  C   LIG    1       23.518 -14.059   4.587  0.00  0.00    -0.020 C 
ATOM     16  C   LIG    1       26.425 -15.415   2.632  0.00  0.00    +0.009 C 
ATOM     17  C   LIG    1       22.635 -15.177   5.000  0.00  0.00    +0.060 C 
ATOM     18  C   LIG    1       24.862 -17.942   3.335  0.00  0.00    -0.007 C 
ENDROOT
BRANCH   1  21
ATOM     19  N   LIG    1       25.645 -19.614   5.613  0.00  0.00    -0.310 N 
ATOM     20  H   LIG    1       25.561 -18.618   5.774  0.00  0.00    +0.149 HD
ATOM     21  C   LIG    1       25.072 -20.153   4.475  0.00  0.00    +0.221 C 
ATOM     22  O   LIG    1       25.288 -21.291   4.096  0.00  0.00    -0.275 OA
BRANCH  19  23
ATOM     23  CA  LIG    1       26.607 -20.339   6.449  0.00  0.00    +0.098 C 
BRANCH  23  25
ATOM     24  C   LIG    1       24.393 -21.482   7.058  0.00  0.00    +0.005 C 
ATOM     25  C   LIG    1       25.913 -21.571   7.062  0.00  0.00    +0.021 C 
ENDBRANCH  23  25
BRANCH  23  26
ATOM     26  C   LIG    1       27.836 -20.703   5.590  0.00  0.00    +0.177 C 
BRANCH  26  27
ATOM     27  O   LIG    1       28.975 -21.008   6.399  0.00  0.00    -0.393 OA
ATOM     28  H   LIG    1       28.883 -20.550   7.251  0.00  0.00    +0.209 HD
ENDBRANCH  26  27
ENDBRANCH  23  26
ENDBRANCH  19  23
ENDBRANCH   1  21
TORSDOF 5
ENDMDL
MODEL 2
REMARK VINA RESULT:       0.8      2.758      6.862
REMARK  Name = *****
REMARK                            x       y       z     vdW  Elec       q    Type
REMARK                         _______ _______ _______ _____ _____    ______ ____
ROOT
ATOM      1  C   LIG    1       27.355 -17.284   3.631  0.00  0.00    +0.112 C 
ATOM      2  C   LIG    1       28.221 -17.911   4.755  0.00  0.00    +0.101 C 
ATOM      3  N   LIG    1       27.757 -19.213   5.283  0.00  0.00    -0.297 NA
ATOM      4  C   LIG    1       28.015 -20.293   4.322  0.00  0.00    +0.105 C 
ATOM      5  C   LIG    1       26.317 -19.109   5.671  0.00  0.00    +0.091 C 
ATOM      6  C   LIG    1       25.425 -18.652   4.483  0.00  0.00    -0.025 C 
ATOM      7  C   LIG    1       24.033 -19.147   4.391  0.00  0.00    -0.011 C 
ATOM      8  C   LIG    1       23.678 -20.100   5.356  0.00  0.00    +0.010 C 
ATOM      9  C   LIG    1       22.408 -20.657   5.394  0.00  0.00    +0.047 C 
ATOM     10  N   LIG    1       22.401 -21.543   6.448  0.00  0.00    -0.360 NA
ATOM     11  H   LIG    1       21.608 -22.106   6.721  0.00  0.00    +0.165 HD
ATOM     12  C   LIG    1       23.632 -21.562   7.062  0.00  0.00    +0.087 C 
ATOM     13  C   LIG    1       21.419 -20.306   4.473  0.00  0.00    +0.026 C 
ATOM     14  C   LIG    1       21.765 -19.354   3.507  0.00  0.00    +0.003 C 
ATOM     15  C   LIG    1       24.444 -20.676   6.391  0.00  0.00    -0.020 C 
ATOM     16  C   LIG    1       23.043 -18.781   3.465  0.00  0.00    +0.009 C 
ATOM     17  C   LIG    1       25.874 -20.323   6.569  0.00  0.00    +0.060 C 
ATOM     18  C   LIG    1       25.936 -17.810   3.561  0.00  0.00    -0.007 C 
ENDROOT
BRANCH   1  21
ATOM     19  N   LIG    1       26.139 -15.156   3.381  0.00  0.00    -0.310 N 
ATOM     20  H   LIG    1       25.451 -15.716   2.894  0.00  0.00    +0.149 HD
ATOM     21  C   LIG    1       27.333 -15.750   3.754  0.00  0.00    +0.221 C 
ATOM     22  O   LIG    1       28.292 -15.117   4.161  0.00  0.00    -0.275 OA
BRANCH  19  23
ATOM     23  CA  LIG    1       25.926 -13.706   3.389  0.00  0.00    +0.098 C 
BRANCH  23  25
ATOM     24  C   LIG    1       23.808 -12.294   3.075  0.00  0.00    +0.005 C 
ATOM     25  C   LIG    1       24.716 -13.370   2.495  0.00  0.00    +0.021 C 
ENDBRANCH  23  25
BRANCH  23  26
ATOM     26  C   LIG    1       25.748 -13.237   4.848  0.00  0.00    +0.177 C 
BRANCH  26  27
ATOM     27  O   LIG    1       27.000 -12.909   5.454  0.00  0.00    -0.393 OA
ATOM     28  H   LIG    1       26.834 -12.591   6.357  0.00  0.00    +0.209 HD
ENDBRANCH  26  27
ENDBRANCH  23  26
ENDBRANCH  19  23
ENDBRANCH   1  21
TORSDOF 5
ENDMDL
