MODEL 1
REMARK VINA RESULT:      -8.7      0.000      0.000
REMARK  Name = *****
REMARK                            x       y       z     vdW  Elec       q    Type
REMARK                         _______ _______ _______ _____ _____    ______ ____
ROOT
ATOM      1  O   LIG    1       26.096 -23.272   8.307  0.00  0.00    -0.252 OA
ATOM      2  C   LIG    1       25.485 -22.482   7.623  0.00  0.00    +0.306 C 
ATOM      3  N   LIG    1       24.425 -22.767   6.736  0.00  0.00    -0.271 N 
ATOM      4  C   LIG    1       23.723 -21.520   6.427  0.00  0.00    +0.155 C 
ATOM      5  C   LIG    1       24.844 -20.493   6.545  0.00  0.00    +0.152 C 
ATOM      6  C   LIG    1       25.548 -20.428   5.179  0.00  0.00    +0.302 C 
ATOM      7  S   LIG    1       24.420 -20.999   3.848  0.00  0.00    -0.004 S 
ATOM      8  C   LIG    1       23.709 -19.383   3.403  0.00  0.00    +0.278 C 
ATOM      9  C   LIG    1       22.786 -18.950   4.519  0.00  0.00    +0.059 C 
ATOM     10  C   LIG    1       22.067 -20.210   4.975  0.00  0.00    +0.064 C 
ATOM     11  C   LIG    1       23.075 -21.368   5.054  0.00  0.00    +0.230 C 
ATOM     12  N   LIG    1       25.686 -21.095   7.560  0.00  0.00    -0.272 N 
ENDROOT
BRANCH   3  13
ATOM     13  C   LIG    1       23.814 -24.080   6.674  0.00  0.00    +0.145 C 
BRANCH  13  14
ATOM     14  C   LIG    1       24.718 -25.141   6.094  0.00  0.00    -0.030 A 
ATOM     15  C   LIG    1       25.413 -26.025   6.931  0.00  0.00    +0.005 A 
ATOM     16  C   LIG    1       26.236 -27.014   6.388  0.00  0.00    +0.000 A 
ATOM     17  C   LIG    1       26.371 -27.130   5.006  0.00  0.00    +0.000 A 
ATOM     18  C   LIG    1       25.684 -26.259   4.164  0.00  0.00    +0.000 A 
ATOM     19  C   LIG    1       24.861 -25.271   4.705  0.00  0.00    +0.005 A 
ENDBRANCH  13  14
ENDBRANCH   3  13
BRANCH  12  20
ATOM     20  C   LIG    1       26.558 -20.342   8.434  0.00  0.00    +0.145 C 
BRANCH  20  21
ATOM     21  C   LIG    1       27.966 -20.249   7.895  0.00  0.00    -0.030 A 
ATOM     22  C   LIG    1       28.977 -21.066   8.423  0.00  0.00    +0.005 A 
ATOM     23  C   LIG    1       30.286 -20.985   7.939  0.00  0.00    +0.000 A 
ATOM     24  C   LIG    1       30.601 -20.079   6.930  0.00  0.00    +0.000 A 
ATOM     25  C   LIG    1       29.609 -19.257   6.399  0.00  0.00    +0.000 A 
ATOM     26  C   LIG    1       28.299 -19.340   6.880  0.00  0.00    +0.005 A 
ENDBRANCH  20  21
ENDBRANCH  12  20
TORSDOF 4
ENDMDL
MODEL 2
REMARK VINA RESULT:      -8.4      1.637      4.901
REMARK  Name = *****
REMARK                            x       y       z     vdW  Elec       q    Type
REMARK                         _______ _______ _______ _____ _____    ______ ____
ROOT
ATOM      1  O   LIG    1       24.768 -20.772   7.972  0.00  0.00    -0.252 OA
ATOM      2  C   LIG    1       25.030 -21.799   7.386  0.00  0.00    +0.306 C 
ATOM      3  N   LIG    1       24.203 -22.494   6.477  0.00  0.00    -0.271 N 
ATOM      4  C   LIG    1       25.029 -23.429   5.713  0.00  0.00    +0.155 C 
ATOM      5  C   LIG    1       26.129 -23.766   6.714  0.00  0.00    +0.152 C 
ATOM      6  C   LIG    1       25.618 -24.931   7.578  0.00  0.00    +0.302 C 
ATOM      7  S   LIG    1       24.319 -25.871   6.684  0.00  0.00    -0.004 S 
ATOM      8  C   LIG    1       25.395 -27.110   5.896  0.00  0.00    +0.278 C 
ATOM      9  C   LIG    1       26.184 -26.424   4.804  0.00  0.00    +0.059 C 
ATOM     10  C   LIG    1       25.219 -25.449   4.147  0.00  0.00    +0.064 C 
ATOM     11  C   LIG    1       24.400 -24.735   5.234  0.00  0.00    +0.230 C 
ATOM     12  N   LIG    1       26.223 -22.532   7.470  0.00  0.00    -0.272 N 
ENDROOT
BRANCH   3  13
ATOM     13  C   LIG    1       22.956 -21.931   5.997  0.00  0.00    +0.145 C 
BRANCH  13  14
ATOM     14  C   LIG    1       23.136 -20.681   5.170  0.00  0.00    -0.030 A 
ATOM     15  C   LIG    1       22.216 -19.628   5.256  0.00  0.00    +0.005 A 
ATOM     16  C   LIG    1       22.396 -18.467   4.501  0.00  0.00    +0.000 A 
ATOM     17  C   LIG    1       23.496 -18.348   3.654  0.00  0.00    +0.000 A 
ATOM     18  C   LIG    1       24.419 -19.387   3.561  0.00  0.00    +0.000 A 
ATOM     19  C   LIG    1       24.241 -20.547   4.317  0.00  0.00    +0.005 A 
ENDBRANCH  13  14
ENDBRANCH   3  13
BRANCH  12  20
ATOM     20  C   LIG    1       27.420 -22.095   8.153  0.00  0.00    +0.145 C 
BRANCH  20  21
ATOM     21  C   LIG    1       28.153 -21.017   7.388  0.00  0.00    -0.030 A 
ATOM     22  C   LIG    1       29.406 -20.567   7.831  0.00  0.00    +0.005 A 
ATOM     23  C   LIG    1       30.090 -19.566   7.138  0.00  0.00    +0.000 A 
ATOM     24  C   LIG    1       29.526 -18.994   6.000  0.00  0.00    +0.000 A 
ATOM     25  C   LIG    1       28.280 -19.427   5.551  0.00  0.00    +0.000 A 
ATOM     26  C   LIG    1       27.595 -20.431   6.242  0.00  0.00    +0.005 A 
ENDBRANCH  20  21
ENDBRANCH  12  20
TORSDOF 4
ENDMDL
MODEL 3
REMARK VINA RESULT:      -8.2      1.484      2.183
REMARK  Name = *****
REMARK                            x       y       z     vdW  Elec       q    Type
REMARK                         _______ _______ _______ _____ _____    ______ ____
ROOT
ATOM      1  O   LIG    1       28.602 -21.859   7.018  0.00  0.00    -0.252 OA
ATOM      2  C   LIG    1       27.567 -21.347   6.650  0.00  0.00    +0.306 C 
ATOM      3  N   LIG    1       26.259 -21.834   6.854  0.00  0.00    -0.271 N 
ATOM      4  C   LIG    1       25.310 -20.744   6.618  0.00  0.00    +0.155 C 
ATOM      5  C   LIG    1       26.048 -19.908   5.578  0.00  0.00    +0.152 C 
ATOM      6  C   LIG    1       25.711 -20.495   4.198  0.00  0.00    +0.302 C 
ATOM      7  S   LIG    1       24.122 -21.413   4.261  0.00  0.00    -0.004 S 
ATOM      8  C   LIG    1       23.016 -20.044   3.797  0.00  0.00    +0.278 C 
ATOM      9  C   LIG    1       22.942 -19.081   4.960  0.00  0.00    +0.059 C 
ATOM     10  C   LIG    1       22.910 -19.945   6.211  0.00  0.00    +0.064 C 
ATOM     11  C   LIG    1       23.929 -21.086   6.066  0.00  0.00    +0.230 C 
ATOM     12  N   LIG    1       27.433 -20.144   5.943  0.00  0.00    -0.272 N 
ENDROOT
BRANCH   3  13
ATOM     13  C   LIG    1       25.993 -22.970   7.715  0.00  0.00    +0.145 C 
BRANCH  13  14
ATOM     14  C   LIG    1       25.512 -24.192   6.970  0.00  0.00    -0.030 A 
ATOM     15  C   LIG    1       24.147 -24.387   6.720  0.00  0.00    +0.005 A 
ATOM     16  C   LIG    1       23.709 -25.511   6.017  0.00  0.00    +0.000 A 
ATOM     17  C   LIG    1       24.629 -26.450   5.557  0.00  0.00    +0.000 A 
ATOM     18  C   LIG    1       25.989 -26.267   5.797  0.00  0.00    +0.000 A 
ATOM     19  C   LIG    1       26.428 -25.143   6.498  0.00  0.00    +0.005 A 
ENDBRANCH  13  14
ENDBRANCH   3  13
BRANCH  12  20
ATOM     20  C   LIG    1       28.507 -19.215   5.670  0.00  0.00    +0.145 C 
BRANCH  20  21
ATOM     21  C   LIG    1       29.455 -19.081   6.839  0.00  0.00    -0.030 A 
ATOM     22  C   LIG    1       30.827 -19.316   6.662  0.00  0.00    +0.005 A 
ATOM     23  C   LIG    1       31.715 -19.203   7.736  0.00  0.00    +0.000 A 
ATOM     24  C   LIG    1       31.240 -18.866   9.000  0.00  0.00    +0.000 A 
ATOM     25  C   LIG    1       29.879 -18.636   9.193  0.00  0.00    +0.000 A 
ATOM     26  C   LIG    1       28.991 -18.744   8.119  0.00  0.00    +0.005 A 
ENDBRANCH  20  21
ENDBRANCH  12  20
TORSDOF 4
ENDMDL
MODEL 4
REMARK VINA RESULT:      -7.2      6.092      9.496
REMARK  Name = *****
REMARK                            x       y       z     vdW  Elec       q    Type
REMARK                         _______ _______ _______ _____ _____    ______ ____
ROOT
ATOM      1  O   LIG    1       27.368 -29.283   9.560  0.00  0.00    -0.252 OA
ATOM      2  C   LIG    1       26.200 -29.566   9.711  0.00  0.00    +0.306 C 
ATOM      3  N   LIG    1       25.516 -29.725  10.935  0.00  0.00    -0.271 N 
ATOM      4  C   LIG    1       24.076 -29.664  10.679  0.00  0.00    +0.155 C 
ATOM      5  C   LIG    1       23.987 -30.219   9.261  0.00  0.00    +0.152 C 
ATOM      6  C   LIG    1       23.896 -31.749   9.376  0.00  0.00    +0.302 C 
ATOM      7  S   LIG    1       23.242 -32.232  11.022  0.00  0.00    -0.004 S 
ATOM      8  C   LIG    1       21.475 -32.299  10.587  0.00  0.00    +0.278 C 
ATOM      9  C   LIG    1       20.985 -30.883  10.386  0.00  0.00    +0.059 C 
ATOM     10  C   LIG    1       21.667 -30.052  11.462  0.00  0.00    +0.064 C 
ATOM     11  C   LIG    1       23.140 -30.475  11.571  0.00  0.00    +0.230 C 
ATOM     12  N   LIG    1       25.254 -29.792   8.700  0.00  0.00    -0.272 N 
ENDROOT
BRANCH   3  13
ATOM     13  C   LIG    1       26.130 -29.384  12.203  0.00  0.00    +0.145 C 
BRANCH  13  14
ATOM     14  C   LIG    1       25.856 -27.967  12.645  0.00  0.00    -0.030 A 
ATOM     15  C   LIG    1       24.658 -27.639  13.293  0.00  0.00    +0.005 A 
ATOM     16  C   LIG    1       24.416 -26.329  13.715  0.00  0.00    +0.000 A 
ATOM     17  C   LIG    1       25.369 -25.337  13.494  0.00  0.00    +0.000 A 
ATOM     18  C   LIG    1       26.565 -25.651  12.852  0.00  0.00    +0.000 A 
ATOM     19  C   LIG    1       26.808 -26.959  12.432  0.00  0.00    +0.005 A 
ENDBRANCH  13  14
ENDBRANCH   3  13
BRANCH  12  20
ATOM     20  C   LIG    1       25.475 -29.564   7.290  0.00  0.00    +0.145 C 
BRANCH  20  21
ATOM     21  C   LIG    1       25.283 -28.114   6.909  0.00  0.00    -0.030 A 
ATOM     22  C   LIG    1       24.213 -27.739   6.083  0.00  0.00    +0.005 A 
ATOM     23  C   LIG    1       24.028 -26.403   5.717  0.00  0.00    +0.000 A 
ATOM     24  C   LIG    1       24.916 -25.428   6.163  0.00  0.00    +0.000 A 
ATOM     25  C   LIG    1       25.988 -25.786   6.978  0.00  0.00    +0.000 A 
ATOM     26  C   LIG    1       26.172 -27.122   7.349  0.00  0.00    +0.005 A 
ENDBRANCH  20  21
ENDBRANCH  12  20
TORSDOF 4
ENDMDL
MODEL 5
REMARK VINA RESULT:      -7.1      1.883      4.632
REMARK  Name = *****
REMARK                            x       y       z     vdW  Elec       q    Type
REMARK                         _______ _______ _______ _____ _____    ______ ____
ROOT
ATOM      1  O   LIG    1       22.970 -24.478   6.695  0.00  0.00    -0.252 OA
ATOM      2  C   LIG    1       23.874 -23.672   6.673  0.00  0.00    +0.306 C 
ATOM      3  N   LIG    1       25.191 -23.859   7.144  0.00  0.00    -0.271 N 
ATOM      4  C   LIG    1       26.045 -22.814   6.575  0.00  0.00    +0.155 C 
ATOM      5  C   LIG    1       25.061 -21.659   6.416  0.00  0.00    +0.152 C 
ATOM      6  C   LIG    1       25.031 -20.900   7.752  0.00  0.00    +0.302 C 
ATOM      7  S   LIG    1       26.583 -21.187   8.690  0.00  0.00    -0.004 S 
ATOM      8  C   LIG    1       27.530 -19.765   8.061  0.00  0.00    +0.278 C 
ATOM      9  C   LIG    1       27.901 -20.044   6.622  0.00  0.00    +0.059 C 
ATOM     10  C   LIG    1       28.257 -21.521   6.565  0.00  0.00    +0.064 C 
ATOM     11  C   LIG    1       27.236 -22.321   7.391  0.00  0.00    +0.230 C 
ATOM     12  N   LIG    1       23.819 -22.365   6.166  0.00  0.00    -0.272 N 
ENDROOT
BRANCH   3  13
ATOM     13  C   LIG    1       25.672 -25.158   7.570  0.00  0.00    +0.145 C 
BRANCH  13  14
ATOM     14  C   LIG    1       25.465 -26.245   6.543  0.00  0.00    -0.030 A 
ATOM     15  C   LIG    1       26.087 -26.173   5.290  0.00  0.00    +0.005 A 
ATOM     16  C   LIG    1       25.904 -27.190   4.349  0.00  0.00    +0.000 A 
ATOM     17  C   LIG    1       25.101 -28.287   4.653  0.00  0.00    +0.000 A 
ATOM     18  C   LIG    1       24.480 -28.371   5.897  0.00  0.00    +0.000 A 
ATOM     19  C   LIG    1       24.662 -27.357   6.837  0.00  0.00    +0.005 A 
ENDBRANCH  13  14
ENDBRANCH   3  13
BRANCH  12  20
ATOM     20  C   LIG    1       22.710 -21.807   5.426  0.00  0.00    +0.145 C 
BRANCH  20  21
ATOM     21  C   LIG    1       23.049 -20.469   4.811  0.00  0.00    -0.030 A 
ATOM     22  C   LIG    1       24.192 -20.334   4.008  0.00  0.00    +0.005 A 
ATOM     23  C   LIG    1       24.523 -19.101   3.440  0.00  0.00    +0.000 A 
ATOM     24  C   LIG    1       23.722 -17.986   3.677  0.00  0.00    +0.000 A 
ATOM     25  C   LIG    1       22.588 -18.104   4.478  0.00  0.00    +0.000 A 
ATOM     26  C   LIG    1       22.254 -19.338   5.044  0.00  0.00    +0.005 A 
ENDBRANCH  20  21
ENDBRANCH  12  20
TORSDOF 4
ENDMDL
MODEL 6
REMARK VINA RESULT:      -6.8      6.773     10.259
REMARK  Name = *****
REMARK                            x       y       z     vdW  Elec       q    Type
REMARK                         _______ _______ _______ _____ _____    ______ ____
ROOT
ATOM      1  O   LIG    1       22.877 -30.185   9.544  0.00  0.00    -0.252 OA
ATOM      2  C   LIG    1       23.838 -30.133  10.280  0.00  0.00    +0.306 C 
ATOM      3  N   LIG    1       23.826 -30.113  11.691  0.00  0.00    -0.271 N 
ATOM      4  C   LIG    1       25.167 -30.449  12.175  0.00  0.00    +0.155 C 
ATOM      5  C   LIG    1       26.048 -29.915  11.051  0.00  0.00    +0.152 C 
ATOM      6  C   LIG    1       26.318 -28.431  11.348  0.00  0.00    +0.302 C 
ATOM      7  S   LIG    1       26.122 -28.089  13.142  0.00  0.00    -0.004 S 
ATOM      8  C   LIG    1       27.850 -28.362  13.645  0.00  0.00    +0.278 C 
ATOM      9  C   LIG    1       28.134 -29.845  13.572  0.00  0.00    +0.059 C 
ATOM     10  C   LIG    1       26.878 -30.533  14.081  0.00  0.00    +0.064 C 
ATOM     11  C   LIG    1       25.643 -29.836  13.490  0.00  0.00    +0.230 C 
ATOM     12  N   LIG    1       25.186 -30.088   9.897  0.00  0.00    -0.272 N 
ENDROOT
BRANCH   3  13
ATOM     13  C   LIG    1       22.610 -30.334  12.448  0.00  0.00    +0.145 C 
BRANCH  13  14
ATOM     14  C   LIG    1       21.904 -29.060  12.843  0.00  0.00    -0.030 A 
ATOM     15  C   LIG    1       20.554 -29.076  13.216  0.00  0.00    +0.005 A 
ATOM     16  C   LIG    1       19.909 -27.897  13.596  0.00  0.00    +0.000 A 
ATOM     17  C   LIG    1       20.608 -26.691  13.608  0.00  0.00    +0.000 A 
ATOM     18  C   LIG    1       21.952 -26.662  13.241  0.00  0.00    +0.000 A 
ATOM     19  C   LIG    1       22.596 -27.840  12.862  0.00  0.00    +0.005 A 
ENDBRANCH  13  14
ENDBRANCH   3  13
BRANCH  12  20
ATOM     20  C   LIG    1       25.673 -30.264   8.547  0.00  0.00    +0.145 C 
BRANCH  20  21
ATOM     21  C   LIG    1       25.399 -29.057   7.680  0.00  0.00    -0.030 A 
ATOM     22  C   LIG    1       24.453 -29.133   6.647  0.00  0.00    +0.005 A 
ATOM     23  C   LIG    1       24.196 -28.027   5.832  0.00  0.00    +0.000 A 
ATOM     24  C   LIG    1       24.889 -26.836   6.033  0.00  0.00    +0.000 A 
ATOM     25  C   LIG    1       25.836 -26.748   7.051  0.00  0.00    +0.000 A 
ATOM     26  C   LIG    1       26.092 -27.852   7.869  0.00  0.00    +0.005 A 
ENDBRANCH  20  21
ENDBRANCH  12  20
TORSDOF 4
ENDMDL
MODEL 7
REMARK VINA RESULT:      -6.7      6.371      9.904
REMARK  Name = *****
REMARK                            x       y       z     vdW  Elec       q    Type
REMARK                         _______ _______ _______ _____ _____    ______ ____
ROOT
ATOM      1  O   LIG    1       26.357 -27.969  11.743  0.00  0.00    -0.252 OA
ATOM      2  C   LIG    1       25.773 -28.839  11.137  0.00  0.00    +0.306 C 
ATOM      3  N   LIG    1       24.784 -29.710  11.642  0.00  0.00    -0.271 N 
ATOM      4  C   LIG    1       24.070 -30.313  10.515  0.00  0.00    +0.155 C 
ATOM      5  C   LIG    1       25.152 -30.344   9.441  0.00  0.00    +0.152 C 
ATOM      6  C   LIG    1       25.946 -31.647   9.629  0.00  0.00    +0.302 C 
ATOM      7  S   LIG    1       24.927 -32.897  10.508  0.00  0.00    -0.004 S 
ATOM      8  C   LIG    1       24.204 -33.711   9.049  0.00  0.00    +0.278 C 
ATOM      9  C   LIG    1       23.196 -32.768   8.433  0.00  0.00    +0.059 C 
ATOM     10  C   LIG    1       22.483 -32.105   9.601  0.00  0.00    +0.064 C 
ATOM     11  C   LIG    1       23.513 -31.725  10.676  0.00  0.00    +0.230 C 
ATOM     12  N   LIG    1       25.940 -29.176   9.785  0.00  0.00    -0.272 N 
ENDROOT
BRANCH   3  13
ATOM     13  C   LIG    1       24.215 -29.534  12.963  0.00  0.00    +0.145 C 
BRANCH  13  14
ATOM     14  C   LIG    1       23.067 -28.554  13.000  0.00  0.00    -0.030 A 
ATOM     15  C   LIG    1       21.753 -28.983  12.771  0.00  0.00    +0.005 A 
ATOM     16  C   LIG    1       20.692 -28.075  12.822  0.00  0.00    +0.000 A 
ATOM     17  C   LIG    1       20.935 -26.732  13.104  0.00  0.00    +0.000 A 
ATOM     18  C   LIG    1       22.237 -26.294  13.336  0.00  0.00    +0.000 A 
ATOM     19  C   LIG    1       23.296 -27.200  13.286  0.00  0.00    +0.005 A 
ENDBRANCH  13  14
ENDBRANCH   3  13
BRANCH  12  20
ATOM     20  C   LIG    1       26.728 -28.426   8.833  0.00  0.00    +0.145 C 
BRANCH  20  21
ATOM     21  C   LIG    1       25.893 -27.900   7.689  0.00  0.00    -0.030 A 
ATOM     22  C   LIG    1       24.985 -28.746   7.034  0.00  0.00    +0.005 A 
ATOM     23  C   LIG    1       24.213 -28.275   5.969  0.00  0.00    +0.000 A 
ATOM     24  C   LIG    1       24.346 -26.957   5.540  0.00  0.00    +0.000 A 
ATOM     25  C   LIG    1       25.248 -26.107   6.176  0.00  0.00    +0.000 A 
ATOM     26  C   LIG    1       26.019 -26.576   7.244  0.00  0.00    +0.005 A 
ENDBRANCH  20  21
ENDBRANCH  12  20
TORSDOF 4
ENDMDL
MODEL 8
REMARK VINA RESULT:      -6.6      0.843      5.403
REMARK  Name = *****
REMARK                            x       y       z     vdW  Elec       q    Type
REMARK                         _______ _______ _______ _____ _____    ______ ____
ROOT
ATOM      1  O   LIG    1       25.048 -22.672   8.976  0.00  0.00    -0.252 OA
ATOM      2  C   LIG    1       24.897 -22.255   7.849  0.00  0.00    +0.306 C 
ATOM      3  N   LIG    1       25.347 -21.021   7.332  0.00  0.00    -0.271 N 
ATOM      4  C   LIG    1       25.314 -21.085   5.870  0.00  0.00    +0.155 C 
ATOM      5  C   LIG    1       24.161 -22.052   5.625  0.00  0.00    +0.152 C 
ATOM      6  C   LIG    1       22.866 -21.223   5.613  0.00  0.00    +0.302 C 
ATOM      7  S   LIG    1       23.228 -19.473   5.192  0.00  0.00    -0.004 S 
ATOM      8  C   LIG    1       23.005 -19.591   3.389  0.00  0.00    +0.278 C 
ATOM      9  C   LIG    1       24.173 -20.366   2.820  0.00  0.00    +0.059 C 
ATOM     10  C   LIG    1       25.395 -19.904   3.597  0.00  0.00    +0.064 C 
ATOM     11  C   LIG    1       25.039 -19.803   5.089  0.00  0.00    +0.230 C 
ATOM     12  N   LIG    1       24.244 -22.908   6.793  0.00  0.00    -0.272 N 
ENDROOT
BRANCH   3  13
ATOM     13  C   LIG    1       26.229 -20.153   8.087  0.00  0.00    +0.145 C 
BRANCH  13  14
ATOM     14  C   LIG    1       27.684 -20.298   7.713  0.00  0.00    -0.030 A 
ATOM     15  C   LIG    1       28.263 -19.458   6.752  0.00  0.00    +0.005 A 
ATOM     16  C   LIG    1       29.614 -19.585   6.421  0.00  0.00    +0.000 A 
ATOM     17  C   LIG    1       30.398 -20.552   7.047  0.00  0.00    +0.000 A 
ATOM     18  C   LIG    1       29.835 -21.391   8.005  0.00  0.00    +0.000 A 
ATOM     19  C   LIG    1       28.486 -21.264   8.337  0.00  0.00    +0.005 A 
ENDBRANCH  13  14
ENDBRANCH   3  13
BRANCH  12  20
ATOM     20  C   LIG    1       23.778 -24.277   6.825  0.00  0.00    +0.145 C 
BRANCH  20  21
ATOM     21  C   LIG    1       24.768 -25.231   6.197  0.00  0.00    -0.030 A 
ATOM     22  C   LIG    1       24.647 -25.581   4.844  0.00  0.00    +0.005 A 
ATOM     23  C   LIG    1       25.550 -26.469   4.253  0.00  0.00    +0.000 A 
ATOM     24  C   LIG    1       26.577 -27.025   5.010  0.00  0.00    +0.000 A 
ATOM     25  C   LIG    1       26.707 -26.692   6.357  0.00  0.00    +0.000 A 
ATOM     26  C   LIG    1       25.806 -25.801   6.949  0.00  0.00    +0.005 A 
ENDBRANCH  20  21
ENDBRANCH  12  20
TORSDOF 4
ENDMDL
MODEL 9
REMARK VINA RESULT:      -6.6      6.842     10.094
REMARK  Name = *****
REMARK                            x       y       z     vdW  Elec       q    Type
REMARK                         _______ _______ _______ _____ _____    ______ ____
ROOT
ATOM      1  O   LIG    1       27.099 -29.862  11.165  0.00  0.00    -0.252 OA
ATOM      2  C   LIG    1       25.899 -30.009  11.101  0.00  0.00    +0.306 C 
ATOM      3  N   LIG    1       24.964 -29.821  12.141  0.00  0.00    -0.271 N 
ATOM      4  C   LIG    1       23.627 -29.711  11.555  0.00  0.00    +0.155 C 
ATOM      5  C   LIG    1       23.760 -30.577  10.307  0.00  0.00    +0.152 C 
ATOM      6  C   LIG    1       23.453 -32.025  10.723  0.00  0.00    +0.302 C 
ATOM      7  S   LIG    1       22.418 -32.052  12.239  0.00  0.00    -0.004 S 
ATOM      8  C   LIG    1       20.785 -32.083  11.436  0.00  0.00    +0.278 C 
ATOM      9  C   LIG    1       20.532 -30.721  10.830  0.00  0.00    +0.059 C 
ATOM     10  C   LIG    1       21.079 -29.715  11.831  0.00  0.00    +0.064 C 
ATOM     11  C   LIG    1       22.432 -30.213  12.362  0.00  0.00    +0.230 C 
ATOM     12  N   LIG    1       25.160 -30.395   9.973  0.00  0.00    -0.272 N 
ENDROOT
BRANCH   3  13
ATOM     13  C   LIG    1       25.343 -29.239  13.413  0.00  0.00    +0.145 C 
BRANCH  13  14
ATOM     14  C   LIG    1       25.287 -27.730  13.427  0.00  0.00    -0.030 A 
ATOM     15  C   LIG    1       24.119 -27.062  13.819  0.00  0.00    +0.005 A 
ATOM     16  C   LIG    1       24.077 -25.666  13.846  0.00  0.00    +0.000 A 
ATOM     17  C   LIG    1       25.201 -24.926  13.483  0.00  0.00    +0.000 A 
ATOM     18  C   LIG    1       26.368 -25.579  13.094  0.00  0.00    +0.000 A 
ATOM     19  C   LIG    1       26.412 -26.973  13.068  0.00  0.00    +0.005 A 
ENDBRANCH  13  14
ENDBRANCH   3  13
BRANCH  12  20
ATOM     20  C   LIG    1       25.692 -30.524   8.635  0.00  0.00    +0.145 C 
BRANCH  20  21
ATOM     21  C   LIG    1       25.425 -29.298   7.793  0.00  0.00    -0.030 A 
ATOM     22  C   LIG    1       26.131 -28.111   8.036  0.00  0.00    +0.005 A 
ATOM     23  C   LIG    1       25.889 -26.967   7.271  0.00  0.00    +0.000 A 
ATOM     24  C   LIG    1       24.930 -26.994   6.262  0.00  0.00    +0.000 A 
ATOM     25  C   LIG    1       24.216 -28.164   6.013  0.00  0.00    +0.000 A 
ATOM     26  C   LIG    1       24.460 -29.310   6.775  0.00  0.00    +0.005 A 
ENDBRANCH  20  21
ENDBRANCH  12  20
TORSDOF 4
ENDMDL
