MODEL 1
REMARK VINA RESULT:      -8.2      0.000      0.000
REMARK  Name = *****
REMARK                            x       y       z     vdW  Elec       q    Type
REMARK                         _______ _______ _______ _____ _____    ______ ____
ROOT
ATOM      1  C   LIG    1       29.227 -20.525   7.789  0.00  0.00    +0.317 C 
ATOM      2  O   LIG    1       29.784 -21.155   8.674  0.00  0.00    -0.250 OA
ENDROOT
BRANCH   1   3
ATOM      3  O   LIG    1       28.249 -21.029   6.970  0.00  0.00    -0.461 OA
BRANCH   3   8
ATOM      4  C   LIG    1       23.523 -20.454   7.255  0.00  0.00    +0.105 C 
ATOM      5  N   LIG    1       24.320 -21.667   7.168  0.00  0.00    -0.299 NA
ATOM      6  C   LIG    1       25.269 -21.886   8.263  0.00  0.00    +0.060 C 
ATOM      7  C   LIG    1       26.282 -20.738   8.392  0.00  0.00    +0.063 C 
ATOM      8  C   LIG    1       26.972 -20.355   7.069  0.00  0.00    +0.179 C 
ATOM      9  C   LIG    1       26.152 -20.661   5.803  0.00  0.00    +0.063 C 
ATOM     10  C   LIG    1       25.934 -23.185   7.797  0.00  0.00    +0.020 C 
ATOM     11  C   LIG    1       25.853 -23.135   6.270  0.00  0.00    +0.020 C 
ATOM     12  C   LIG    1       25.146 -21.811   5.966  0.00  0.00    +0.060 C 
ENDBRANCH   3   8
ENDBRANCH   1   3
BRANCH   1  13
ATOM     13  C   LIG    1       29.523 -19.069   7.462  0.00  0.00    +0.153 C 
BRANCH  13  14
ATOM     14  C   LIG    1       30.329 -18.361   8.538  0.00  0.00    -0.032 A 
ATOM     15  C   LIG    1       31.682 -18.031   8.368  0.00  0.00    +0.004 A 
ATOM     16  C   LIG    1       32.383 -17.354   9.367  0.00  0.00    +0.000 A 
ATOM     17  C   LIG    1       31.737 -16.981  10.545  0.00  0.00    +0.000 A 
ATOM     18  C   LIG    1       30.390 -17.283  10.722  0.00  0.00    +0.000 A 
ATOM     19  C   LIG    1       29.690 -17.967   9.727  0.00  0.00    +0.004 A 
ENDBRANCH  13  14
BRANCH  13  20
ATOM     20  C   LIG    1       30.237 -19.039   6.101  0.00  0.00    +0.175 C 
BRANCH  20  21
ATOM     21  O   LIG    1       29.681 -18.036   5.248  0.00  0.00    -0.394 OA
ATOM     22  H   LIG    1       30.426 -17.610   4.789  0.00  0.00    +0.209 HD
ENDBRANCH  20  21
ENDBRANCH  13  20
ENDBRANCH   1  13
TORSDOF 6
ENDMDL
MODEL 2
REMARK VINA RESULT:      -7.9      0.785      1.973
REMARK  Name = *****
REMARK                            x       y       z     vdW  Elec       q    Type
REMARK                         _______ _______ _______ _____ _____    ______ ____
ROOT
ATOM      1  C   LIG    1       29.174 -19.811   6.618  0.00  0.00    +0.317 C 
ATOM      2  O   LIG    1       29.049 -18.964   5.747  0.00  0.00    -0.250 OA
ENDROOT
BRANCH   1   3
ATOM      3  O   LIG    1       28.214 -20.731   6.953  0.00  0.00    -0.461 OA
BRANCH   3   8
ATOM      4  C   LIG    1       23.453 -20.712   7.229  0.00  0.00    +0.105 C 
ATOM      5  N   LIG    1       24.395 -21.816   7.305  0.00  0.00    -0.299 NA
ATOM      6  C   LIG    1       25.362 -21.754   8.405  0.00  0.00    +0.060 C 
ATOM      7  C   LIG    1       26.223 -20.483   8.351  0.00  0.00    +0.063 C 
ATOM      8  C   LIG    1       26.863 -20.214   6.975  0.00  0.00    +0.179 C 
ATOM      9  C   LIG    1       26.090 -20.800   5.780  0.00  0.00    +0.063 C 
ATOM     10  C   LIG    1       26.185 -23.015   8.120  0.00  0.00    +0.020 C 
ATOM     11  C   LIG    1       26.101 -23.198   6.604  0.00  0.00    +0.020 C 
ATOM     12  C   LIG    1       25.235 -22.030   6.123  0.00  0.00    +0.060 C 
ENDBRANCH   3   8
ENDBRANCH   1   3
BRANCH   1  13
ATOM     13  C   LIG    1       30.425 -19.986   7.464  0.00  0.00    +0.153 C 
BRANCH  13  14
ATOM     14  C   LIG    1       30.707 -18.805   8.378  0.00  0.00    -0.032 A 
ATOM     15  C   LIG    1       29.787 -18.364   9.341  0.00  0.00    +0.004 A 
ATOM     16  C   LIG    1       30.093 -17.293  10.182  0.00  0.00    +0.000 A 
ATOM     17  C   LIG    1       31.330 -16.657  10.085  0.00  0.00    +0.000 A 
ATOM     18  C   LIG    1       32.262 -17.095   9.148  0.00  0.00    +0.000 A 
ATOM     19  C   LIG    1       31.954 -18.161   8.301  0.00  0.00    +0.004 A 
ENDBRANCH  13  14
BRANCH  13  20
ATOM     20  C   LIG    1       30.265 -21.295   8.256  0.00  0.00    +0.175 C 
BRANCH  20  21
ATOM     21  O   LIG    1       31.536 -21.873   8.561  0.00  0.00    -0.394 OA
ATOM     22  H   LIG    1       32.118 -21.144   8.841  0.00  0.00    +0.209 HD
ENDBRANCH  20  21
ENDBRANCH  13  20
ENDBRANCH   1  13
TORSDOF 6
ENDMDL
MODEL 3
REMARK VINA RESULT:      -7.6      0.769      1.641
REMARK  Name = *****
REMARK                            x       y       z     vdW  Elec       q    Type
REMARK                         _______ _______ _______ _____ _____    ______ ____
ROOT
ATOM      1  C   LIG    1       29.006 -20.144   7.969  0.00  0.00    +0.317 C 
ATOM      2  O   LIG    1       29.693 -21.040   8.434  0.00  0.00    -0.250 OA
ENDROOT
BRANCH   1   3
ATOM      3  O   LIG    1       27.653 -20.228   7.759  0.00  0.00    -0.461 OA
BRANCH   3   8
ATOM      4  C   LIG    1       24.907 -23.060   5.078  0.00  0.00    +0.105 C 
ATOM      5  N   LIG    1       24.606 -22.349   6.309  0.00  0.00    -0.299 NA
ATOM      6  C   LIG    1       24.726 -20.890   6.248  0.00  0.00    +0.060 C 
ATOM      7  C   LIG    1       26.139 -20.439   5.850  0.00  0.00    +0.063 C 
ATOM      8  C   LIG    1       27.265 -21.099   6.669  0.00  0.00    +0.179 C 
ATOM      9  C   LIG    1       26.916 -22.484   7.244  0.00  0.00    +0.063 C 
ATOM     10  C   LIG    1       24.397 -20.525   7.699  0.00  0.00    +0.020 C 
ATOM     11  C   LIG    1       24.855 -21.734   8.516  0.00  0.00    +0.020 C 
ATOM     12  C   LIG    1       25.415 -22.710   7.477  0.00  0.00    +0.060 C 
ENDBRANCH   3   8
ENDBRANCH   1   3
BRANCH   1  13
ATOM     13  C   LIG    1       29.542 -18.781   7.561  0.00  0.00    +0.153 C 
BRANCH  13  14
ATOM     14  C   LIG    1       30.381 -18.114   8.639  0.00  0.00    -0.032 A 
ATOM     15  C   LIG    1       31.732 -17.789   8.445  0.00  0.00    +0.004 A 
ATOM     16  C   LIG    1       32.464 -17.152   9.448  0.00  0.00    +0.000 A 
ATOM     17  C   LIG    1       31.851 -16.813  10.653  0.00  0.00    +0.000 A 
ATOM     18  C   LIG    1       30.506 -17.110  10.854  0.00  0.00    +0.000 A 
ATOM     19  C   LIG    1       29.776 -17.755   9.855  0.00  0.00    +0.004 A 
ENDBRANCH  13  14
BRANCH  13  20
ATOM     20  C   LIG    1       30.334 -18.969   6.256  0.00  0.00    +0.175 C 
BRANCH  20  21
ATOM     21  O   LIG    1       29.866 -18.086   5.235  0.00  0.00    -0.394 OA
ATOM     22  H   LIG    1       28.939 -18.325   5.059  0.00  0.00    +0.209 HD
ENDBRANCH  20  21
ENDBRANCH  13  20
ENDBRANCH   1  13
TORSDOF 6
ENDMDL
MODEL 4
REMARK VINA RESULT:      -7.6      1.416      2.275
REMARK  Name = *****
REMARK                            x       y       z     vdW  Elec       q    Type
REMARK                         _______ _______ _______ _____ _____    ______ ____
ROOT
ATOM      1  C   LIG    1       27.714 -20.510   7.732  0.00  0.00    +0.317 C 
ATOM      2  O   LIG    1       28.218 -21.369   8.438  0.00  0.00    -0.250 OA
ENDROOT
BRANCH   1   3
ATOM      3  O   LIG    1       26.375 -20.422   7.447  0.00  0.00    -0.461 OA
BRANCH   3   8
ATOM      4  C   LIG    1       23.069 -23.800   6.813  0.00  0.00    +0.105 C 
ATOM      5  N   LIG    1       23.313 -22.572   6.075  0.00  0.00    -0.299 NA
ATOM      6  C   LIG    1       24.626 -22.464   5.433  0.00  0.00    +0.060 C 
ATOM      7  C   LIG    1       25.777 -22.571   6.444  0.00  0.00    +0.063 C 
ATOM      8  C   LIG    1       25.631 -21.643   7.666  0.00  0.00    +0.179 C 
ATOM      9  C   LIG    1       24.179 -21.279   8.027  0.00  0.00    +0.063 C 
ATOM     10  C   LIG    1       24.523 -21.060   4.828  0.00  0.00    +0.020 C 
ATOM     11  C   LIG    1       23.578 -20.304   5.764  0.00  0.00    +0.020 C 
ATOM     12  C   LIG    1       23.204 -21.327   6.840  0.00  0.00    +0.060 C 
ENDBRANCH   3   8
ENDBRANCH   1   3
BRANCH   1  13
ATOM     13  C   LIG    1       28.494 -19.388   7.065  0.00  0.00    +0.153 C 
BRANCH  13  14
ATOM     14  C   LIG    1       29.685 -18.912   7.881  0.00  0.00    -0.032 A 
ATOM     15  C   LIG    1       31.005 -19.019   7.416  0.00  0.00    +0.004 A 
ATOM     16  C   LIG    1       32.071 -18.545   8.181  0.00  0.00    +0.000 A 
ATOM     17  C   LIG    1       31.834 -17.941   9.415  0.00  0.00    +0.000 A 
ATOM     18  C   LIG    1       30.529 -17.809   9.882  0.00  0.00    +0.000 A 
ATOM     19  C   LIG    1       29.462 -18.290   9.122  0.00  0.00    +0.004 A 
ENDBRANCH  13  14
BRANCH  13  20
ATOM     20  C   LIG    1       28.918 -19.885   5.673  0.00  0.00    +0.175 C 
BRANCH  20  21
ATOM     21  O   LIG    1       27.779 -20.165   4.856  0.00  0.00    -0.394 OA
ATOM     22  H   LIG    1       28.034 -19.965   3.939  0.00  0.00    +0.209 HD
ENDBRANCH  20  21
ENDBRANCH  13  20
ENDBRANCH   1  13
TORSDOF 6
ENDMDL
MODEL 5
REMARK VINA RESULT:      -7.5      4.707      8.250
REMARK  Name = *****
REMARK                            x       y       z     vdW  Elec       q    Type
REMARK                         _______ _______ _______ _____ _____    ______ ____
ROOT
ATOM      1  C   LIG    1       24.516 -25.775   6.147  0.00  0.00    +0.317 C 
ATOM      2  O   LIG    1       23.613 -26.099   5.392  0.00  0.00    -0.250 OA
ENDROOT
BRANCH   1   3
ATOM      3  O   LIG    1       24.522 -24.636   6.911  0.00  0.00    -0.461 OA
BRANCH   3   8
ATOM      4  C   LIG    1       26.367 -20.368   5.850  0.00  0.00    +0.105 C 
ATOM      5  N   LIG    1       25.028 -20.733   6.282  0.00  0.00    -0.299 NA
ATOM      6  C   LIG    1       24.934 -21.373   7.596  0.00  0.00    +0.060 C 
ATOM      7  C   LIG    1       25.757 -22.667   7.673  0.00  0.00    +0.063 C 
ATOM      8  C   LIG    1       25.500 -23.647   6.511  0.00  0.00    +0.179 C 
ATOM      9  C   LIG    1       25.028 -22.985   5.204  0.00  0.00    +0.063 C 
ATOM     10  C   LIG    1       23.428 -21.647   7.663  0.00  0.00    +0.020 C 
ATOM     11  C   LIG    1       23.003 -21.831   6.205  0.00  0.00    +0.020 C 
ATOM     12  C   LIG    1       24.295 -21.649   5.403  0.00  0.00    +0.060 C 
ENDBRANCH   3   8
ENDBRANCH   1   3
BRANCH   1  13
ATOM     13  C   LIG    1       25.777 -26.594   6.370  0.00  0.00    +0.153 C 
BRANCH  13  14
ATOM     14  C   LIG    1       25.575 -27.770   7.312  0.00  0.00    -0.032 A 
ATOM     15  C   LIG    1       24.633 -28.779   7.062  0.00  0.00    +0.004 A 
ATOM     16  C   LIG    1       24.495 -29.859   7.936  0.00  0.00    +0.000 A 
ATOM     17  C   LIG    1       25.309 -29.956   9.063  0.00  0.00    +0.000 A 
ATOM     18  C   LIG    1       26.263 -28.973   9.315  0.00  0.00    +0.000 A 
ATOM     19  C   LIG    1       26.396 -27.889   8.447  0.00  0.00    +0.004 A 
ENDBRANCH  13  14
BRANCH  13  20
ATOM     20  C   LIG    1       26.282 -27.049   4.990  0.00  0.00    +0.175 C 
BRANCH  20  21
ATOM     21  O   LIG    1       27.704 -27.182   4.978  0.00  0.00    -0.394 OA
ATOM     22  H   LIG    1       28.058 -26.392   4.533  0.00  0.00    +0.209 HD
ENDBRANCH  20  21
ENDBRANCH  13  20
ENDBRANCH   1  13
TORSDOF 6
ENDMDL
MODEL 6
REMARK VINA RESULT:      -7.3      4.659      8.160
REMARK  Name = *****
REMARK                            x       y       z     vdW  Elec       q    Type
REMARK                         _______ _______ _______ _____ _____    ______ ____
ROOT
ATOM      1  C   LIG    1       24.680 -25.521   6.352  0.00  0.00    +0.317 C 
ATOM      2  O   LIG    1       23.550 -25.938   6.156  0.00  0.00    -0.250 OA
ENDROOT
BRANCH   1   3
ATOM      3  O   LIG    1       25.003 -24.200   6.532  0.00  0.00    -0.461 OA
BRANCH   3   8
ATOM      4  C   LIG    1       22.914 -20.030   5.534  0.00  0.00    +0.105 C 
ATOM      5  N   LIG    1       24.119 -20.321   6.293  0.00  0.00    -0.299 NA
ATOM      6  C   LIG    1       25.192 -20.991   5.554  0.00  0.00    +0.060 C 
ATOM      7  C   LIG    1       24.741 -22.338   4.969  0.00  0.00    +0.063 C 
ATOM      8  C   LIG    1       24.044 -23.265   5.984  0.00  0.00    +0.179 C 
ATOM      9  C   LIG    1       23.345 -22.536   7.146  0.00  0.00    +0.063 C 
ATOM     10  C   LIG    1       26.226 -21.170   6.670  0.00  0.00    +0.020 C 
ATOM     11  C   LIG    1       25.398 -21.284   7.951  0.00  0.00    +0.020 C 
ATOM     12  C   LIG    1       23.945 -21.162   7.481  0.00  0.00    +0.060 C 
ENDBRANCH   3   8
ENDBRANCH   1   3
BRANCH   1  13
ATOM     13  C   LIG    1       25.914 -26.405   6.439  0.00  0.00    +0.153 C 
BRANCH  13  14
ATOM     14  C   LIG    1       25.729 -27.612   7.344  0.00  0.00    -0.032 A 
ATOM     15  C   LIG    1       24.858 -28.665   7.022  0.00  0.00    +0.004 A 
ATOM     16  C   LIG    1       24.736 -29.771   7.864  0.00  0.00    +0.000 A 
ATOM     17  C   LIG    1       25.493 -29.851   9.031  0.00  0.00    +0.000 A 
ATOM     18  C   LIG    1       26.376 -28.825   9.355  0.00  0.00    +0.000 A 
ATOM     19  C   LIG    1       26.494 -27.714   8.518  0.00  0.00    +0.004 A 
ENDBRANCH  13  14
BRANCH  13  20
ATOM     20  C   LIG    1       26.288 -26.818   5.006  0.00  0.00    +0.175 C 
BRANCH  20  21
ATOM     21  O   LIG    1       27.652 -27.237   4.928  0.00  0.00    -0.394 OA
ATOM     22  H   LIG    1       27.696 -27.929   4.245  0.00  0.00    +0.209 HD
ENDBRANCH  20  21
ENDBRANCH  13  20
ENDBRANCH   1  13
TORSDOF 6
ENDMDL
MODEL 7
REMARK VINA RESULT:      -7.2      2.298      6.745
REMARK  Name = *****
REMARK                            x       y       z     vdW  Elec       q    Type
REMARK                         _______ _______ _______ _____ _____    ______ ____
ROOT
ATOM      1  C   LIG    1       27.420 -21.613   7.662  0.00  0.00    +0.317 C 
ATOM      2  O   LIG    1       26.959 -21.766   8.782  0.00  0.00    -0.250 OA
ENDROOT
BRANCH   1   3
ATOM      3  O   LIG    1       28.736 -21.339   7.391  0.00  0.00    -0.461 OA
BRANCH   3   8
ATOM      4  C   LIG    1       31.518 -18.134   9.567  0.00  0.00    +0.105 C 
ATOM      5  N   LIG    1       31.134 -18.253   8.170  0.00  0.00    -0.299 NA
ATOM      6  C   LIG    1       29.698 -18.160   7.893  0.00  0.00    +0.060 C 
ATOM      7  C   LIG    1       28.893 -19.239   8.633  0.00  0.00    +0.063 C 
ATOM      8  C   LIG    1       29.444 -20.667   8.459  0.00  0.00    +0.179 C 
ATOM      9  C   LIG    1       30.956 -20.742   8.174  0.00  0.00    +0.063 C 
ATOM     10  C   LIG    1       29.694 -18.381   6.377  0.00  0.00    +0.020 C 
ATOM     11  C   LIG    1       30.913 -19.267   6.112  0.00  0.00    +0.020 C 
ATOM     12  C   LIG    1       31.533 -19.491   7.495  0.00  0.00    +0.060 C 
ENDBRANCH   3   8
ENDBRANCH   1   3
BRANCH   1  13
ATOM     13  C   LIG    1       26.604 -21.717   6.383  0.00  0.00    +0.153 C 
BRANCH  13  14
ATOM     14  C   LIG    1       25.281 -22.440   6.567  0.00  0.00    -0.032 A 
ATOM     15  C   LIG    1       24.086 -21.760   6.850  0.00  0.00    +0.004 A 
ATOM     16  C   LIG    1       22.884 -22.456   6.985  0.00  0.00    +0.000 A 
ATOM     17  C   LIG    1       22.854 -23.840   6.821  0.00  0.00    +0.000 A 
ATOM     18  C   LIG    1       24.026 -24.528   6.520  0.00  0.00    +0.000 A 
ATOM     19  C   LIG    1       25.231 -23.834   6.394  0.00  0.00    +0.004 A 
ENDBRANCH  13  14
BRANCH  13  20
ATOM     20  C   LIG    1       26.405 -20.289   5.847  0.00  0.00    +0.175 C 
BRANCH  20  21
ATOM     21  O   LIG    1       27.332 -19.997   4.799  0.00  0.00    -0.394 OA
ATOM     22  H   LIG    1       28.130 -19.633   5.222  0.00  0.00    +0.209 HD
ENDBRANCH  20  21
ENDBRANCH  13  20
ENDBRANCH   1  13
TORSDOF 6
ENDMDL
MODEL 8
REMARK VINA RESULT:      -7.0      6.581      9.477
REMARK  Name = *****
REMARK                            x       y       z     vdW  Elec       q    Type
REMARK                         _______ _______ _______ _____ _____    ______ ____
ROOT
ATOM      1  C   LIG    1       25.644 -27.667   6.927  0.00  0.00    +0.317 C 
ATOM      2  O   LIG    1       26.185 -27.276   7.949  0.00  0.00    -0.250 OA
ENDROOT
BRANCH   1   3
ATOM      3  O   LIG    1       25.528 -28.983   6.560  0.00  0.00    -0.461 OA
BRANCH   3   8
ATOM      4  C   LIG    1       22.992 -32.452   8.631  0.00  0.00    +0.105 C 
ATOM      5  N   LIG    1       24.399 -32.402   8.271  0.00  0.00    -0.299 NA
ATOM      6  C   LIG    1       25.187 -31.350   8.920  0.00  0.00    +0.060 C 
ATOM      7  C   LIG    1       24.638 -29.947   8.624  0.00  0.00    +0.063 C 
ATOM      8  C   LIG    1       24.388 -29.670   7.129  0.00  0.00    +0.179 C 
ATOM      9  C   LIG    1       24.093 -30.923   6.283  0.00  0.00    +0.063 C 
ATOM     10  C   LIG    1       26.551 -31.581   8.263  0.00  0.00    +0.020 C 
ATOM     11  C   LIG    1       26.224 -32.158   6.884  0.00  0.00    +0.020 C 
ATOM     12  C   LIG    1       24.695 -32.219   6.846  0.00  0.00    +0.060 C 
ENDBRANCH   3   8
ENDBRANCH   1   3
BRANCH   1  13
ATOM     13  C   LIG    1       24.997 -26.751   5.900  0.00  0.00    +0.153 C 
BRANCH  13  14
ATOM     14  C   LIG    1       24.827 -25.321   6.388  0.00  0.00    -0.032 A 
ATOM     15  C   LIG    1       25.919 -24.515   6.744  0.00  0.00    +0.004 A 
ATOM     16  C   LIG    1       25.726 -23.197   7.160  0.00  0.00    +0.000 A 
ATOM     17  C   LIG    1       24.442 -22.659   7.210  0.00  0.00    +0.000 A 
ATOM     18  C   LIG    1       23.349 -23.439   6.841  0.00  0.00    +0.000 A 
ATOM     19  C   LIG    1       23.539 -24.760   6.433  0.00  0.00    +0.004 A 
ENDBRANCH  13  14
BRANCH  13  20
ATOM     20  C   LIG    1       25.846 -26.820   4.620  0.00  0.00    +0.175 C 
BRANCH  20  21
ATOM     21  O   LIG    1       27.173 -27.269   4.904  0.00  0.00    -0.394 OA
ATOM     22  H   LIG    1       27.347 -27.061   5.839  0.00  0.00    +0.209 HD
ENDBRANCH  20  21
ENDBRANCH  13  20
ENDBRANCH   1  13
TORSDOF 6
ENDMDL
MODEL 9
REMARK VINA RESULT:      -7.0      2.368      6.535
REMARK  Name = *****
REMARK                            x       y       z     vdW  Elec       q    Type
REMARK                         _______ _______ _______ _____ _____    ______ ____
ROOT
ATOM      1  C   LIG    1       27.024 -21.748   7.099  0.00  0.00    +0.317 C 
ATOM      2  O   LIG    1       26.701 -22.922   7.196  0.00  0.00    -0.250 OA
ENDROOT
BRANCH   1   3
ATOM      3  O   LIG    1       28.308 -21.307   6.905  0.00  0.00    -0.461 OA
BRANCH   3   8
ATOM      4  C   LIG    1       31.153 -18.682   9.692  0.00  0.00    +0.105 C 
ATOM      5  N   LIG    1       30.885 -18.589   8.267  0.00  0.00    -0.299 NA
ATOM      6  C   LIG    1       29.493 -18.323   7.895  0.00  0.00    +0.060 C 
ATOM      7  C   LIG    1       28.535 -19.402   8.422  0.00  0.00    +0.063 C 
ATOM      8  C   LIG    1       28.975 -20.845   8.103  0.00  0.00    +0.179 C 
ATOM      9  C   LIG    1       30.493 -21.030   7.927  0.00  0.00    +0.063 C 
ATOM     10  C   LIG    1       29.604 -18.353   6.367  0.00  0.00    +0.020 C 
ATOM     11  C   LIG    1       30.760 -19.312   6.082  0.00  0.00    +0.020 C 
ATOM     12  C   LIG    1       31.234 -19.766   7.466  0.00  0.00    +0.060 C 
ENDBRANCH   3   8
ENDBRANCH   1   3
BRANCH   1  13
ATOM     13  C   LIG    1       26.047 -20.585   7.165  0.00  0.00    +0.153 C 
BRANCH  13  14
ATOM     14  C   LIG    1       25.265 -20.379   5.878  0.00  0.00    -0.032 A 
ATOM     15  C   LIG    1       23.877 -20.568   5.804  0.00  0.00    +0.004 A 
ATOM     16  C   LIG    1       23.189 -20.341   4.611  0.00  0.00    +0.000 A 
ATOM     17  C   LIG    1       23.875 -19.905   3.479  0.00  0.00    +0.000 A 
ATOM     18  C   LIG    1       25.250 -19.693   3.541  0.00  0.00    +0.000 A 
ATOM     19  C   LIG    1       25.940 -19.928   4.731  0.00  0.00    +0.004 A 
ENDBRANCH  13  14
BRANCH  13  20
ATOM     20  C   LIG    1       25.116 -20.833   8.364  0.00  0.00    +0.175 C 
BRANCH  20  21
ATOM     21  O   LIG    1       25.829 -21.408   9.461  0.00  0.00    -0.394 OA
ATOM     22  H   LIG    1       25.630 -20.865  10.244  0.00  0.00    +0.209 HD
ENDBRANCH  20  21
ENDBRANCH  13  20
ENDBRANCH   1  13
TORSDOF 6
ENDMDL
