MODEL 1
REMARK VINA RESULT:      -3.5      0.000      0.000
REMARK  Name = *****
REMARK                            x       y       z     vdW  Elec       q    Type
REMARK                         _______ _______ _______ _____ _____    ______ ____
ROOT
ATOM      1  C   LIG    1       27.035 -16.372   3.289  0.00  0.00    +0.228 C 
ENDROOT
BRANCH   1   2
ATOM      2  C   LIG    1       26.601 -17.698   3.917  0.00  0.00    +0.275 C 
BRANCH   2   3
ATOM      3  O   LIG    1       27.738 -18.452   4.315  0.00  0.00    -0.488 OA
BRANCH   3  12
ATOM      4  C   LIG    1       22.730 -21.001   4.432  0.00  0.00    +0.063 C 
ATOM      5  C   LIG    1       24.123 -20.764   4.879  0.00  0.00    +0.014 C 
ATOM      6  N   LIG    1       24.688 -21.489   5.899  0.00  0.00    -0.358 NA
ATOM      7  H   LIG    1       24.226 -22.224   6.414  0.00  0.00    +0.166 HD
ATOM      8  C   LIG    1       25.982 -21.079   6.128  0.00  0.00    +0.050 C 
ATOM      9  C   LIG    1       26.921 -21.526   7.062  0.00  0.00    +0.026 C 
ATOM     10  C   LIG    1       28.180 -20.920   7.050  0.00  0.00    +0.006 C 
ATOM     11  C   LIG    1       28.484 -19.903   6.145  0.00  0.00    +0.046 C 
ATOM     12  C   LIG    1       27.527 -19.444   5.228  0.00  0.00    +0.130 C 
ATOM     13  C   LIG    1       26.257 -20.061   5.216  0.00  0.00    +0.042 C 
ATOM     14  C   LIG    1       25.078 -19.874   4.436  0.00  0.00    +0.034 C 
ENDBRANCH   3  12
ENDBRANCH   2   3
ENDBRANCH   1   2
BRANCH   1  15
ATOM     15  C   LIG    1       27.555 -15.321   4.298  0.00  0.00    +0.129 C 
BRANCH  15  16
ATOM     16  N   LIG    1       28.468 -14.282   3.811  0.00  0.00    -0.308 NA
ATOM     17  H   LIG    1       28.567 -14.359   2.798  0.00  0.00    +0.123 HD
BRANCH  16  18
ATOM     18  C   LIG    1       28.101 -12.900   4.187  0.00  0.00    +0.011 C 
ATOM     19  C   LIG    1       29.291 -12.139   4.798  0.00  0.00    +0.027 C 
ATOM     20  C   LIG    1       26.990 -12.967   5.255  0.00  0.00    +0.027 C 
ATOM     21  C   LIG    1       27.542 -12.127   2.979  0.00  0.00    +0.027 C 
ENDBRANCH  16  18
ENDBRANCH  15  16
ENDBRANCH   1  15
BRANCH   1  22
ATOM     22  O   LIG    1       25.841 -15.786   2.693  0.00  0.00    -0.453 OA
BRANCH  22  23
ATOM     23  C   LIG    1       24.759 -15.633   3.483  0.00  0.00    +0.340 C 
ATOM     24  O   LIG    1       24.148 -16.479   4.101  0.00  0.00    -0.245 OA
BRANCH  23  25
ATOM     25  C   LIG    1       24.427 -14.170   3.447  0.00  0.00    +0.059 C 
ATOM     26  C   LIG    1       24.431 -13.485   2.223  0.00  0.00    +0.015 C 
ATOM     27  C   LIG    1       24.100 -12.133   2.182  0.00  0.00    +0.001 C 
ATOM     28  C   LIG    1       23.786 -11.447   3.361  0.00  0.00    +0.000 C 
ATOM     29  C   LIG    1       23.820 -12.110   4.586  0.00  0.00    +0.001 C 
ATOM     30  C   LIG    1       24.143 -13.465   4.632  0.00  0.00    +0.015 C 
ENDBRANCH  23  25
ENDBRANCH  22  23
ENDBRANCH   1  22
TORSDOF 9
ENDMDL
MODEL 2
REMARK VINA RESULT:      -3.3      1.847      7.618
REMARK  Name = *****
REMARK                            x       y       z     vdW  Elec       q    Type
REMARK                         _______ _______ _______ _____ _____    ______ ____
ROOT
ATOM      1  C   LIG    1       25.221 -18.949   3.398  0.00  0.00    +0.228 C 
ENDROOT
BRANCH   1   2
ATOM      2  C   LIG    1       26.099 -17.739   3.066  0.00  0.00    +0.275 C 
BRANCH   2   3
ATOM      3  O   LIG    1       25.430 -16.535   3.413  0.00  0.00    -0.488 OA
BRANCH   3  12
ATOM      4  C   LIG    1       22.966 -11.750   5.030  0.00  0.00    +0.063 C 
ATOM      5  C   LIG    1       24.124 -12.626   4.732  0.00  0.00    +0.014 C 
ATOM      6  N   LIG    1       25.417 -12.187   4.872  0.00  0.00    -0.358 NA
ATOM      7  H   LIG    1       25.687 -11.265   5.183  0.00  0.00    +0.166 HD
ATOM      8  C   LIG    1       26.307 -13.180   4.530  0.00  0.00    +0.050 C 
ATOM      9  C   LIG    1       27.705 -13.177   4.516  0.00  0.00    +0.026 C 
ATOM     10  C   LIG    1       28.347 -14.356   4.129  0.00  0.00    +0.006 C 
ATOM     11  C   LIG    1       27.620 -15.491   3.765  0.00  0.00    +0.046 C 
ATOM     12  C   LIG    1       26.217 -15.475   3.760  0.00  0.00    +0.130 C 
ATOM     13  C   LIG    1       25.555 -14.296   4.167  0.00  0.00    +0.042 C 
ATOM     14  C   LIG    1       24.183 -13.933   4.299  0.00  0.00    +0.034 C 
ENDBRANCH   3  12
ENDBRANCH   2   3
ENDBRANCH   1   2
BRANCH   1  15
ATOM     15  C   LIG    1       23.729 -18.782   3.028  0.00  0.00    +0.129 C 
BRANCH  15  16
ATOM     16  N   LIG    1       22.834 -19.929   3.216  0.00  0.00    -0.308 NA
ATOM     17  H   LIG    1       23.384 -20.762   3.433  0.00  0.00    +0.123 HD
BRANCH  16  18
ATOM     18  C   LIG    1       21.773 -19.737   4.228  0.00  0.00    +0.011 C 
ATOM     19  C   LIG    1       22.253 -18.861   5.399  0.00  0.00    +0.027 C 
ATOM     20  C   LIG    1       21.396 -21.119   4.801  0.00  0.00    +0.027 C 
ATOM     21  C   LIG    1       20.508 -19.131   3.597  0.00  0.00    +0.027 C 
ENDBRANCH  16  18
ENDBRANCH  15  16
ENDBRANCH   1  15
BRANCH   1  22
ATOM     22  O   LIG    1       25.252 -19.096   4.848  0.00  0.00    -0.453 OA
BRANCH  22  23
ATOM     23  C   LIG    1       25.440 -20.334   5.347  0.00  0.00    +0.340 C 
ATOM     24  O   LIG    1       24.653 -21.256   5.397  0.00  0.00    -0.245 OA
BRANCH  23  25
ATOM     25  C   LIG    1       26.850 -20.362   5.860  0.00  0.00    +0.059 C 
ATOM     26  C   LIG    1       27.707 -19.284   5.597  0.00  0.00    +0.015 C 
ATOM     27  C   LIG    1       29.010 -19.295   6.091  0.00  0.00    +0.001 C 
ATOM     28  C   LIG    1       29.475 -20.388   6.830  0.00  0.00    +0.000 C 
ATOM     29  C   LIG    1       28.642 -21.481   7.062  0.00  0.00    +0.001 C 
ATOM     30  C   LIG    1       27.335 -21.472   6.576  0.00  0.00    +0.015 C 
ENDBRANCH  23  25
ENDBRANCH  22  23
ENDBRANCH   1  22
TORSDOF 9
ENDMDL
MODEL 3
REMARK VINA RESULT:      -3.3      1.853      7.038
REMARK  Name = *****
REMARK                            x       y       z     vdW  Elec       q    Type
REMARK                         _______ _______ _______ _____ _____    ______ ____
ROOT
ATOM      1  C   LIG    1       26.006 -18.616   3.961  0.00  0.00    +0.228 C 
ENDROOT
BRANCH   1   2
ATOM      2  C   LIG    1       25.695 -17.481   2.982  0.00  0.00    +0.275 C 
BRANCH   2   3
ATOM      3  O   LIG    1       26.466 -16.331   3.298  0.00  0.00    -0.488 OA
BRANCH   3  12
ATOM      4  C   LIG    1       29.356 -11.875   5.135  0.00  0.00    +0.063 C 
ATOM      5  C   LIG    1       28.124 -12.624   4.796  0.00  0.00    +0.014 C 
ATOM      6  N   LIG    1       26.875 -12.077   4.962  0.00  0.00    -0.358 NA
ATOM      7  H   LIG    1       26.691 -11.148   5.312  0.00  0.00    +0.166 HD
ATOM      8  C   LIG    1       25.899 -12.970   4.583  0.00  0.00    +0.050 C 
ATOM      9  C   LIG    1       24.507 -12.844   4.588  0.00  0.00    +0.026 C 
ATOM     10  C   LIG    1       23.760 -13.931   4.126  0.00  0.00    +0.006 C 
ATOM     11  C   LIG    1       24.382 -15.099   3.683  0.00  0.00    +0.046 C 
ATOM     12  C   LIG    1       25.779 -15.224   3.706  0.00  0.00    +0.130 C 
ATOM     13  C   LIG    1       26.546 -14.127   4.152  0.00  0.00    +0.042 C 
ATOM     14  C   LIG    1       27.946 -13.895   4.291  0.00  0.00    +0.034 C 
ENDBRANCH   3  12
ENDBRANCH   2   3
ENDBRANCH   1   2
BRANCH   1  15
ATOM     15  C   LIG    1       27.510 -18.949   4.103  0.00  0.00    +0.129 C 
BRANCH  15  16
ATOM     16  N   LIG    1       27.884 -20.198   4.774  0.00  0.00    -0.308 NA
ATOM     17  H   LIG    1       28.622 -20.665   4.245  0.00  0.00    +0.123 HD
BRANCH  16  18
ATOM     18  C   LIG    1       28.282 -20.054   6.191  0.00  0.00    +0.011 C 
ATOM     19  C   LIG    1       29.221 -21.188   6.639  0.00  0.00    +0.027 C 
ATOM     20  C   LIG    1       27.010 -20.127   7.061  0.00  0.00    +0.027 C 
ATOM     21  C   LIG    1       28.944 -18.688   6.445  0.00  0.00    +0.027 C 
ENDBRANCH  16  18
ENDBRANCH  15  16
ENDBRANCH   1  15
BRANCH   1  22
ATOM     22  O   LIG    1       25.388 -19.817   3.412  0.00  0.00    -0.453 OA
BRANCH  22  23
ATOM     23  C   LIG    1       24.677 -20.594   4.252  0.00  0.00    +0.340 C 
ATOM     24  O   LIG    1       25.042 -21.571   4.871  0.00  0.00    -0.245 OA
BRANCH  23  25
ATOM     25  C   LIG    1       23.292 -20.016   4.275  0.00  0.00    +0.059 C 
ATOM     26  C   LIG    1       23.120 -18.625   4.308  0.00  0.00    +0.015 C 
ATOM     27  C   LIG    1       21.837 -18.082   4.305  0.00  0.00    +0.001 C 
ATOM     28  C   LIG    1       20.717 -18.920   4.293  0.00  0.00    +0.000 C 
ATOM     29  C   LIG    1       20.879 -20.305   4.301  0.00  0.00    +0.001 C 
ATOM     30  C   LIG    1       22.160 -20.853   4.295  0.00  0.00    +0.015 C 
ENDBRANCH  23  25
ENDBRANCH  22  23
ENDBRANCH   1  22
TORSDOF 9
ENDMDL
MODEL 4
REMARK VINA RESULT:      -3.1      2.041      6.682
REMARK  Name = *****
REMARK                            x       y       z     vdW  Elec       q    Type
REMARK                         _______ _______ _______ _____ _____    ______ ____
ROOT
ATOM      1  C   LIG    1       26.340 -18.525   4.090  0.00  0.00    +0.228 C 
ENDROOT
BRANCH   1   2
ATOM      2  C   LIG    1       26.131 -17.438   3.033  0.00  0.00    +0.275 C 
BRANCH   2   3
ATOM      3  O   LIG    1       27.003 -16.343   3.273  0.00  0.00    -0.488 OA
BRANCH   3  12
ATOM      4  C   LIG    1       21.939 -15.367   5.505  0.00  0.00    +0.063 C 
ATOM      5  C   LIG    1       23.175 -14.997   4.778  0.00  0.00    +0.014 C 
ATOM      6  N   LIG    1       23.376 -13.728   4.292  0.00  0.00    -0.358 NA
ATOM      7  H   LIG    1       22.726 -12.961   4.387  0.00  0.00    +0.166 HD
ATOM      8  C   LIG    1       24.592 -13.639   3.653  0.00  0.00    +0.050 C 
ATOM      9  C   LIG    1       25.199 -12.555   3.012  0.00  0.00    +0.026 C 
ATOM     10  C   LIG    1       26.464 -12.763   2.457  0.00  0.00    +0.006 C 
ATOM     11  C   LIG    1       27.093 -14.007   2.534  0.00  0.00    +0.046 C 
ATOM     12  C   LIG    1       26.464 -15.094   3.158  0.00  0.00    +0.130 C 
ATOM     13  C   LIG    1       25.193 -14.893   3.741  0.00  0.00    +0.042 C 
ATOM     14  C   LIG    1       24.291 -15.737   4.452  0.00  0.00    +0.034 C 
ENDBRANCH   3  12
ENDBRANCH   2   3
ENDBRANCH   1   2
BRANCH   1  15
ATOM     15  C   LIG    1       27.821 -18.818   4.428  0.00  0.00    +0.129 C 
BRANCH  15  16
ATOM     16  N   LIG    1       28.163 -20.140   4.962  0.00  0.00    -0.308 NA
ATOM     17  H   LIG    1       29.010 -20.486   4.509  0.00  0.00    +0.123 HD
BRANCH  16  18
ATOM     18  C   LIG    1       28.307 -20.203   6.433  0.00  0.00    +0.011 C 
ATOM     19  C   LIG    1       28.935 -21.533   6.888  0.00  0.00    +0.027 C 
ATOM     20  C   LIG    1       26.901 -20.110   7.061  0.00  0.00    +0.027 C 
ATOM     21  C   LIG    1       29.135 -19.019   6.961  0.00  0.00    +0.027 C 
ENDBRANCH  16  18
ENDBRANCH  15  16
ENDBRANCH   1  15
BRANCH   1  22
ATOM     22  O   LIG    1       25.816 -19.761   3.520  0.00  0.00    -0.453 OA
BRANCH  22  23
ATOM     23  C   LIG    1       25.164 -20.604   4.346  0.00  0.00    +0.340 C 
ATOM     24  O   LIG    1       25.612 -21.525   4.995  0.00  0.00    -0.245 OA
BRANCH  23  25
ATOM     25  C   LIG    1       23.723 -20.185   4.306  0.00  0.00    +0.059 C 
ATOM     26  C   LIG    1       22.731 -21.062   4.768  0.00  0.00    +0.015 C 
ATOM     27  C   LIG    1       21.395 -20.669   4.756  0.00  0.00    +0.001 C 
ATOM     28  C   LIG    1       21.034 -19.410   4.262  0.00  0.00    +0.000 C 
ATOM     29  C   LIG    1       22.010 -18.549   3.763  0.00  0.00    +0.001 C 
ATOM     30  C   LIG    1       23.349 -18.934   3.780  0.00  0.00    +0.015 C 
ENDBRANCH  23  25
ENDBRANCH  22  23
ENDBRANCH   1  22
TORSDOF 9
ENDMDL
MODEL 5
REMARK VINA RESULT:      -2.8      1.803      4.383
REMARK  Name = *****
REMARK                            x       y       z     vdW  Elec       q    Type
REMARK                         _______ _______ _______ _____ _____    ______ ____
ROOT
ATOM      1  C   LIG    1       24.618 -15.761   4.173  0.00  0.00    +0.228 C 
ENDROOT
BRANCH   1   2
ATOM      2  C   LIG    1       23.841 -16.979   3.669  0.00  0.00    +0.275 C 
BRANCH   2   3
ATOM      3  O   LIG    1       22.662 -17.165   4.439  0.00  0.00    -0.488 OA
BRANCH   3  12
ATOM      4  C   LIG    1       25.476 -21.487   6.671  0.00  0.00    +0.063 C 
ATOM      5  C   LIG    1       24.329 -20.847   5.985  0.00  0.00    +0.014 C 
ATOM      6  N   LIG    1       23.229 -21.568   5.589  0.00  0.00    -0.358 NA
ATOM      7  H   LIG    1       23.105 -22.560   5.728  0.00  0.00    +0.166 HD
ATOM      8  C   LIG    1       22.309 -20.751   4.972  0.00  0.00    +0.050 C 
ATOM      9  C   LIG    1       21.063 -21.052   4.414  0.00  0.00    +0.026 C 
ATOM     10  C   LIG    1       20.334 -19.997   3.861  0.00  0.00    +0.006 C 
ATOM     11  C   LIG    1       20.833 -18.693   3.862  0.00  0.00    +0.046 C 
ATOM     12  C   LIG    1       22.095 -18.407   4.403  0.00  0.00    +0.130 C 
ATOM     13  C   LIG    1       22.835 -19.460   4.982  0.00  0.00    +0.042 C 
ATOM     14  C   LIG    1       24.106 -19.536   5.623  0.00  0.00    +0.034 C 
ENDBRANCH   3  12
ENDBRANCH   2   3
ENDBRANCH   1   2
BRANCH   1  15
ATOM     15  C   LIG    1       23.816 -14.438   4.167  0.00  0.00    +0.129 C 
BRANCH  15  16
ATOM     16  N   LIG    1       23.706 -13.700   2.905  0.00  0.00    -0.308 NA
ATOM     17  H   LIG    1       22.734 -13.698   2.591  0.00  0.00    +0.123 HD
BRANCH  16  18
ATOM     18  C   LIG    1       24.235 -12.319   2.938  0.00  0.00    +0.011 C 
ATOM     19  C   LIG    1       24.085 -11.683   4.332  0.00  0.00    +0.027 C 
ATOM     20  C   LIG    1       23.422 -11.465   1.943  0.00  0.00    +0.027 C 
ATOM     21  C   LIG    1       25.708 -12.279   2.493  0.00  0.00    +0.027 C 
ENDBRANCH  16  18
ENDBRANCH  15  16
ENDBRANCH   1  15
BRANCH   1  22
ATOM     22  O   LIG    1       25.718 -15.557   3.239  0.00  0.00    -0.453 OA
BRANCH  22  23
ATOM     23  C   LIG    1       26.964 -15.844   3.666  0.00  0.00    +0.340 C 
ATOM     24  O   LIG    1       27.521 -16.921   3.703  0.00  0.00    -0.245 OA
BRANCH  23  25
ATOM     25  C   LIG    1       27.555 -14.541   4.118  0.00  0.00    +0.059 C 
ATOM     26  C   LIG    1       28.513 -13.898   3.321  0.00  0.00    +0.015 C 
ATOM     27  C   LIG    1       29.047 -12.676   3.724  0.00  0.00    +0.001 C 
ATOM     28  C   LIG    1       28.649 -12.097   4.934  0.00  0.00    +0.000 C 
ATOM     29  C   LIG    1       27.728 -12.750   5.752  0.00  0.00    +0.001 C 
ATOM     30  C   LIG    1       27.184 -13.968   5.350  0.00  0.00    +0.015 C 
ENDBRANCH  23  25
ENDBRANCH  22  23
ENDBRANCH   1  22
TORSDOF 9
ENDMDL
MODEL 6
REMARK VINA RESULT:      -2.4      1.355      3.144
REMARK  Name = *****
REMARK                            x       y       z     vdW  Elec       q    Type
REMARK                         _______ _______ _______ _____ _____    ______ ____
ROOT
ATOM      1  C   LIG    1       25.493 -16.631   3.774  0.00  0.00    +0.228 C 
ENDROOT
BRANCH   1   2
ATOM      2  C   LIG    1       25.025 -18.011   3.306  0.00  0.00    +0.275 C 
BRANCH   2   3
ATOM      3  O   LIG    1       26.043 -18.978   3.527  0.00  0.00    -0.488 OA
BRANCH   3  12
ATOM      4  C   LIG    1       21.099 -21.347   4.765  0.00  0.00    +0.063 C 
ATOM      5  C   LIG    1       22.530 -21.036   4.994  0.00  0.00    +0.014 C 
ATOM      6  N   LIG    1       23.207 -21.515   6.088  0.00  0.00    -0.358 NA
ATOM      7  H   LIG    1       22.809 -22.102   6.806  0.00  0.00    +0.166 HD
ATOM      8  C   LIG    1       24.514 -21.084   6.077  0.00  0.00    +0.050 C 
ATOM      9  C   LIG    1       25.552 -21.318   6.984  0.00  0.00    +0.026 C 
ATOM     10  C   LIG    1       26.797 -20.752   6.698  0.00  0.00    +0.006 C 
ATOM     11  C   LIG    1       26.994 -19.977   5.554  0.00  0.00    +0.046 C 
ATOM     12  C   LIG    1       25.939 -19.728   4.663  0.00  0.00    +0.130 C 
ATOM     13  C   LIG    1       24.681 -20.310   4.930  0.00  0.00    +0.042 C 
ATOM     14  C   LIG    1       23.424 -20.289   4.257  0.00  0.00    +0.034 C 
ENDBRANCH   3  12
ENDBRANCH   2   3
ENDBRANCH   1   2
BRANCH   1  15
ATOM     15  C   LIG    1       24.684 -15.447   3.194  0.00  0.00    +0.129 C 
BRANCH  15  16
ATOM     16  N   LIG    1       25.419 -14.346   2.563  0.00  0.00    -0.308 NA
ATOM     17  H   LIG    1       25.613 -14.577   1.588  0.00  0.00    +0.123 HD
BRANCH  16  18
ATOM     18  C   LIG    1       24.767 -13.022   2.657  0.00  0.00    +0.011 C 
ATOM     19  C   LIG    1       25.717 -11.886   2.236  0.00  0.00    +0.027 C 
ATOM     20  C   LIG    1       24.372 -12.780   4.128  0.00  0.00    +0.027 C 
ATOM     21  C   LIG    1       23.481 -12.976   1.814  0.00  0.00    +0.027 C 
ENDBRANCH  16  18
ENDBRANCH  15  16
ENDBRANCH   1  15
BRANCH   1  22
ATOM     22  O   LIG    1       26.851 -16.463   3.268  0.00  0.00    -0.453 OA
BRANCH  22  23
ATOM     23  C   LIG    1       27.842 -16.330   4.172  0.00  0.00    +0.340 C 
ATOM     24  O   LIG    1       28.508 -17.198   4.696  0.00  0.00    -0.245 OA
BRANCH  23  25
ATOM     25  C   LIG    1       27.970 -14.858   4.430  0.00  0.00    +0.059 C 
ATOM     26  C   LIG    1       27.393 -14.301   5.580  0.00  0.00    +0.015 C 
ATOM     27  C   LIG    1       27.530 -12.938   5.837  0.00  0.00    +0.001 C 
ATOM     28  C   LIG    1       28.222 -12.117   4.940  0.00  0.00    +0.000 C 
ATOM     29  C   LIG    1       28.764 -12.656   3.774  0.00  0.00    +0.001 C 
ATOM     30  C   LIG    1       28.637 -14.020   3.516  0.00  0.00    +0.015 C 
ENDBRANCH  23  25
ENDBRANCH  22  23
ENDBRANCH   1  22
TORSDOF 9
ENDMDL
MODEL 7
REMARK VINA RESULT:      -2.4      2.071      7.502
REMARK  Name = *****
REMARK                            x       y       z     vdW  Elec       q    Type
REMARK                         _______ _______ _______ _____ _____    ______ ____
ROOT
ATOM      1  C   LIG    1       25.347 -19.084   3.087  0.00  0.00    +0.228 C 
ENDROOT
BRANCH   1   2
ATOM      2  C   LIG    1       26.034 -17.898   3.768  0.00  0.00    +0.275 C 
BRANCH   2   3
ATOM      3  O   LIG    1       25.987 -16.753   2.928  0.00  0.00    -0.488 OA
BRANCH   3  12
ATOM      4  C   LIG    1       23.910 -11.644   1.845  0.00  0.00    +0.063 C 
ATOM      5  C   LIG    1       24.902 -12.597   2.395  0.00  0.00    +0.014 C 
ATOM      6  N   LIG    1       26.031 -12.169   3.049  0.00  0.00    -0.358 NA
ATOM      7  H   LIG    1       26.276 -11.203   3.212  0.00  0.00    +0.166 HD
ATOM      8  C   LIG    1       26.792 -13.240   3.457  0.00  0.00    +0.050 C 
ATOM      9  C   LIG    1       28.010 -13.275   4.144  0.00  0.00    +0.026 C 
ATOM     10  C   LIG    1       28.547 -14.531   4.438  0.00  0.00    +0.006 C 
ATOM     11  C   LIG    1       27.895 -15.705   4.055  0.00  0.00    +0.046 C 
ATOM     12  C   LIG    1       26.686 -15.657   3.345  0.00  0.00    +0.130 C 
ATOM     13  C   LIG    1       26.122 -14.395   3.058  0.00  0.00    +0.042 C 
ATOM     14  C   LIG    1       24.934 -13.976   2.391  0.00  0.00    +0.034 C 
ENDBRANCH   3  12
ENDBRANCH   2   3
ENDBRANCH   1   2
BRANCH   1  15
ATOM     15  C   LIG    1       23.813 -19.139   3.283  0.00  0.00    +0.129 C 
BRANCH  15  16
ATOM     16  N   LIG    1       23.118 -17.906   3.668  0.00  0.00    -0.308 NA
ATOM     17  H   LIG    1       22.991 -17.312   2.847  0.00  0.00    +0.123 HD
BRANCH  16  18
ATOM     18  C   LIG    1       21.827 -18.106   4.361  0.00  0.00    +0.011 C 
ATOM     19  C   LIG    1       20.634 -17.963   3.398  0.00  0.00    +0.027 C 
ATOM     20  C   LIG    1       21.686 -17.017   5.445  0.00  0.00    +0.027 C 
ATOM     21  C   LIG    1       21.779 -19.474   5.063  0.00  0.00    +0.027 C 
ENDBRANCH  16  18
ENDBRANCH  15  16
ENDBRANCH   1  15
BRANCH   1  22
ATOM     22  O   LIG    1       25.867 -20.286   3.729  0.00  0.00    -0.453 OA
BRANCH  22  23
ATOM     23  C   LIG    1       25.624 -20.447   5.046  0.00  0.00    +0.340 C 
ATOM     24  O   LIG    1       24.558 -20.583   5.607  0.00  0.00    -0.245 OA
BRANCH  23  25
ATOM     25  C   LIG    1       26.965 -20.413   5.718  0.00  0.00    +0.059 C 
ATOM     26  C   LIG    1       27.403 -21.523   6.454  0.00  0.00    +0.015 C 
ATOM     27  C   LIG    1       28.657 -21.506   7.060  0.00  0.00    +0.001 C 
ATOM     28  C   LIG    1       29.475 -20.376   6.957  0.00  0.00    +0.000 C 
ATOM     29  C   LIG    1       29.031 -19.253   6.261  0.00  0.00    +0.001 C 
ATOM     30  C   LIG    1       27.781 -19.267   5.646  0.00  0.00    +0.015 C 
ENDBRANCH  23  25
ENDBRANCH  22  23
ENDBRANCH   1  22
TORSDOF 9
ENDMDL
MODEL 8
REMARK VINA RESULT:      -1.7      2.029      6.655
REMARK  Name = *****
REMARK                            x       y       z     vdW  Elec       q    Type
REMARK                         _______ _______ _______ _____ _____    ______ ____
ROOT
ATOM      1  C   LIG    1       25.666 -19.318   4.260  0.00  0.00    +0.228 C 
ENDROOT
BRANCH   1   2
ATOM      2  C   LIG    1       25.320 -18.515   3.004  0.00  0.00    +0.275 C 
BRANCH   2   3
ATOM      3  O   LIG    1       24.901 -17.204   3.357  0.00  0.00    -0.488 OA
BRANCH   3  12
ATOM      4  C   LIG    1       23.504 -11.781   3.828  0.00  0.00    +0.063 C 
ATOM      5  C   LIG    1       24.445 -12.925   3.819  0.00  0.00    +0.014 C 
ATOM      6  N   LIG    1       25.792 -12.755   4.025  0.00  0.00    -0.358 NA
ATOM      7  H   LIG    1       26.245 -11.869   4.198  0.00  0.00    +0.166 HD
ATOM      8  C   LIG    1       26.449 -13.963   3.963  0.00  0.00    +0.050 C 
ATOM      9  C   LIG    1       27.808 -14.261   4.105  0.00  0.00    +0.026 C 
ATOM     10  C   LIG    1       28.186 -15.603   4.005  0.00  0.00    +0.006 C 
ATOM     11  C   LIG    1       27.243 -16.604   3.765  0.00  0.00    +0.046 C 
ATOM     12  C   LIG    1       25.886 -16.290   3.600  0.00  0.00    +0.130 C 
ATOM     13  C   LIG    1       25.487 -14.941   3.718  0.00  0.00    +0.042 C 
ATOM     14  C   LIG    1       24.230 -14.274   3.631  0.00  0.00    +0.034 C 
ENDBRANCH   3  12
ENDBRANCH   2   3
ENDBRANCH   1   2
BRANCH   1  15
ATOM     15  C   LIG    1       27.007 -20.086   4.184  0.00  0.00    +0.129 C 
BRANCH  15  16
ATOM     16  N   LIG    1       27.470 -20.795   5.382  0.00  0.00    -0.308 NA
ATOM     17  H   LIG    1       27.799 -21.726   5.125  0.00  0.00    +0.123 HD
BRANCH  16  18
ATOM     18  C   LIG    1       28.503 -20.086   6.168  0.00  0.00    +0.011 C 
ATOM     19  C   LIG    1       27.890 -18.992   7.061  0.00  0.00    +0.027 C 
ATOM     20  C   LIG    1       29.473 -19.399   5.186  0.00  0.00    +0.027 C 
ATOM     21  C   LIG    1       29.321 -21.070   7.023  0.00  0.00    +0.027 C 
ENDBRANCH  16  18
ENDBRANCH  15  16
ENDBRANCH   1  15
BRANCH   1  22
ATOM     22  O   LIG    1       24.635 -20.340   4.394  0.00  0.00    -0.453 OA
BRANCH  22  23
ATOM     23  C   LIG    1       23.760 -20.217   5.411  0.00  0.00    +0.340 C 
ATOM     24  O   LIG    1       23.947 -20.396   6.596  0.00  0.00    -0.245 OA
BRANCH  23  25
ATOM     25  C   LIG    1       22.457 -19.813   4.786  0.00  0.00    +0.059 C 
ATOM     26  C   LIG    1       21.494 -20.789   4.492  0.00  0.00    +0.015 C 
ATOM     27  C   LIG    1       20.273 -20.416   3.934  0.00  0.00    +0.001 C 
ATOM     28  C   LIG    1       20.011 -19.072   3.643  0.00  0.00    +0.000 C 
ATOM     29  C   LIG    1       20.979 -18.101   3.895  0.00  0.00    +0.001 C 
ATOM     30  C   LIG    1       22.199 -18.468   4.460  0.00  0.00    +0.015 C 
ENDBRANCH  23  25
ENDBRANCH  22  23
ENDBRANCH   1  22
TORSDOF 9
ENDMDL
MODEL 9
REMARK VINA RESULT:      -1.6      2.029      4.415
REMARK  Name = *****
REMARK                            x       y       z     vdW  Elec       q    Type
REMARK                         _______ _______ _______ _____ _____    ______ ____
ROOT
ATOM      1  C   LIG    1       25.183 -16.265   4.243  0.00  0.00    +0.228 C 
ENDROOT
BRANCH   1   2
ATOM      2  C   LIG    1       26.570 -16.506   3.642  0.00  0.00    +0.275 C 
BRANCH   2   3
ATOM      3  O   LIG    1       26.831 -17.900   3.548  0.00  0.00    -0.488 OA
BRANCH   3  12
ATOM      4  C   LIG    1       24.154 -21.571   6.855  0.00  0.00    +0.063 C 
ATOM      5  C   LIG    1       25.320 -20.772   6.411  0.00  0.00    +0.014 C 
ATOM      6  N   LIG    1       26.528 -20.832   7.061  0.00  0.00    -0.358 NA
ATOM      7  H   LIG    1       26.724 -21.407   7.868  0.00  0.00    +0.166 HD
ATOM      8  C   LIG    1       27.444 -19.997   6.463  0.00  0.00    +0.050 C 
ATOM      9  C   LIG    1       28.778 -19.738   6.788  0.00  0.00    +0.026 C 
ATOM     10  C   LIG    1       29.475 -18.838   5.977  0.00  0.00    +0.006 C 
ATOM     11  C   LIG    1       28.859 -18.218   4.889  0.00  0.00    +0.046 C 
ATOM     12  C   LIG    1       27.512 -18.467   4.587  0.00  0.00    +0.130 C 
ATOM     13  C   LIG    1       26.801 -19.389   5.386  0.00  0.00    +0.042 C 
ATOM     14  C   LIG    1       25.465 -19.886   5.365  0.00  0.00    +0.034 C 
ENDBRANCH   3  12
ENDBRANCH   2   3
ENDBRANCH   1   2
BRANCH   1  15
ATOM     15  C   LIG    1       24.043 -17.068   3.574  0.00  0.00    +0.129 C 
BRANCH  15  16
ATOM     16  N   LIG    1       22.854 -17.382   4.373  0.00  0.00    -0.308 NA
ATOM     17  H   LIG    1       22.113 -16.711   4.165  0.00  0.00    +0.123 HD
BRANCH  16  18
ATOM     18  C   LIG    1       22.348 -18.764   4.228  0.00  0.00    +0.011 C 
ATOM     19  C   LIG    1       23.179 -19.573   3.215  0.00  0.00    +0.027 C 
ATOM     20  C   LIG    1       20.901 -18.697   3.698  0.00  0.00    +0.027 C 
ATOM     21  C   LIG    1       22.317 -19.489   5.585  0.00  0.00    +0.027 C 
ENDBRANCH  16  18
ENDBRANCH  15  16
ENDBRANCH   1  15
BRANCH   1  22
ATOM     22  O   LIG    1       24.868 -14.862   4.003  0.00  0.00    -0.453 OA
BRANCH  22  23
ATOM     23  C   LIG    1       25.573 -14.216   3.053  0.00  0.00    +0.340 C 
ATOM     24  O   LIG    1       25.361 -14.162   1.860  0.00  0.00    -0.245 OA
BRANCH  23  25
ATOM     25  C   LIG    1       26.719 -13.560   3.765  0.00  0.00    +0.059 C 
ATOM     26  C   LIG    1       27.818 -13.091   3.032  0.00  0.00    +0.015 C 
ATOM     27  C   LIG    1       28.873 -12.459   3.686  0.00  0.00    +0.001 C 
ATOM     28  C   LIG    1       28.852 -12.310   5.077  0.00  0.00    +0.000 C 
ATOM     29  C   LIG    1       27.782 -12.809   5.818  0.00  0.00    +0.001 C 
ATOM     30  C   LIG    1       26.720 -13.435   5.168  0.00  0.00    +0.015 C 
ENDBRANCH  23  25
ENDBRANCH  22  23
ENDBRANCH   1  22
TORSDOF 9
ENDMDL
