MODEL 1
REMARK VINA RESULT:      -7.7      0.000      0.000
REMARK  Name = *****
REMARK                            x       y       z     vdW  Elec       q    Type
REMARK                         _______ _______ _______ _____ _____    ______ ____
ROOT
ATOM      1  C   UNK    1       24.725 -31.954   6.285  0.00  0.00    +0.129 C 
ATOM      2  C   UNK    1       24.725 -32.300   7.819  0.00  0.00    +0.061 C 
ATOM      3  C   UNK    1       25.592 -31.286   8.579  0.00  0.00    +0.190 C 
ATOM      4  C   UNK    1       25.623 -31.602  10.051  0.00  0.00    +0.141 C 
ATOM      5  C   UNK    1       24.609 -32.230  10.672  0.00  0.00    +0.047 C 
ATOM      6  C   UNK    1       23.317 -32.645  10.004  0.00  0.00    +0.062 C 
ATOM      7  C   UNK    1       22.118 -32.090  10.862  0.00  0.00    +0.096 C 
ATOM      8  C   UNK    1       20.764 -32.422  10.214  0.00  0.00    +0.047 C 
ATOM      9  C   UNK    1       22.237 -32.617  12.305  0.00  0.00    -0.002 A 
ATOM     10  C   UNK    1       23.510 -32.828  12.881  0.00  0.00    +0.069 A 
ATOM     11  C   UNK    1       23.639 -33.291  14.204  0.00  0.00    +0.128 A 
ATOM     12  C   UNK    1       22.518 -33.548  14.977  0.00  0.00    +0.046 A 
ATOM     13  C   UNK    1       21.256 -33.321  14.442  0.00  0.00    +0.004 A 
ATOM     14  C   UNK    1       21.116 -32.855  13.127  0.00  0.00    +0.007 A 
ATOM     15  C   UNK    1       24.738 -32.530  12.118  0.00  0.00    +0.197 C 
ATOM     16  O   UNK    1       25.839 -32.538  12.670  0.00  0.00    -0.287 OA
ATOM     17  C   UNK    1       24.908 -29.931   8.309  0.00  0.00    +0.210 C 
ATOM     18  O   UNK    1       24.122 -29.411   9.106  0.00  0.00    -0.288 OA
ATOM     19  C   UNK    1       24.996 -29.459   6.898  0.00  0.00    +0.121 C 
ATOM     20  C   UNK    1       23.290 -32.327   8.466  0.00  0.00    +0.020 C 
ATOM     21  C   UNK    1       24.866 -30.441   5.976  0.00  0.00    +0.127 C 
ENDROOT
BRANCH  19  22
ATOM     22  C   UNK    1       25.212 -28.004   6.626  0.00  0.00    +0.252 C 
ATOM     23  N   UNK    1       24.620 -27.509   5.495  0.00  0.00    -0.299 N 
ATOM     24  H   UNK    1       24.011 -28.124   4.967  0.00  0.00    +0.150 HD
ATOM     25  O   UNK    1       25.896 -27.307   7.372  0.00  0.00    -0.270 OA
BRANCH  23  26
ATOM     26  C   UNK    1       24.609 -26.121   5.190  0.00  0.00    +0.189 C 
BRANCH  26  27
ATOM     27  N   UNK    1       23.647 -25.562   6.110  0.00  0.00    -0.301 NA
ATOM     28  H   UNK    1       22.739 -25.527   5.669  0.00  0.00    +0.123 HD
BRANCH  27  29
ATOM     29  C   UNK    1       24.010 -24.239   6.602  0.00  0.00    +0.082 C 
BRANCH  29  30
ATOM     30  C   UNK    1       22.872 -23.219   6.769  0.00  0.00    +0.015 C 
BRANCH  30  31
ATOM     31  C   UNK    1       23.227 -21.732   6.549  0.00  0.00    +0.003 C 
BRANCH  31  32
ATOM     32  C   UNK    1       24.161 -21.074   7.585  0.00  0.00    +0.030 C 
BRANCH  32  33
ATOM     33  C   UNK    1       25.512 -20.577   7.068  0.00  0.00    +0.161 C 
BRANCH  33  34
ATOM     34  N   UNK    1       26.063 -21.554   6.080  0.00  0.00    -0.318 NA
ATOM     35  H   UNK    1       25.725 -22.486   6.334  0.00  0.00    +0.119 HD
ATOM     36  H   UNK    1       27.074 -21.608   6.229  0.00  0.00    +0.119 HD
ENDBRANCH  33  34
BRANCH  33  37
ATOM     37  C   UNK    1       26.518 -20.486   8.235  0.00  0.00    +0.322 C 
ATOM     38  O   UNK    1       27.746 -20.345   8.114  0.00  0.00    -0.249 OA
BRANCH  37  39
ATOM     39  O   UNK    1       25.909 -20.550   9.443  0.00  0.00    -0.479 OA
ATOM     40  H   UNK    1       25.398 -21.398   9.440  0.00  0.00    +0.295 HD
ENDBRANCH  37  39
ENDBRANCH  33  37
ENDBRANCH  32  33
ENDBRANCH  31  32
ENDBRANCH  30  31
ENDBRANCH  29  30
ENDBRANCH  27  29
ENDBRANCH  26  27
ENDBRANCH  23  26
ENDBRANCH  19  22
BRANCH   1  42
ATOM     41  C   UNK    1       24.939 -33.380   4.256  0.00  0.00    +0.105 C 
ATOM     42  N   UNK    1       25.635 -32.718   5.365  0.00  0.00    -0.298 NA
ATOM     43  C   UNK    1       26.563 -33.676   5.984  0.00  0.00    +0.105 C 
ENDBRANCH   1  42
BRANCH  21  44
ATOM     44  O   UNK    1       24.945 -30.164   4.610  0.00  0.00    -0.509 OA
ATOM     45  H   UNK    1       24.513 -29.286   4.504  0.00  0.00    +0.292 HD
ENDBRANCH  21  44
BRANCH  11  46
ATOM     46  O   UNK    1       24.847 -33.516  14.814  0.00  0.00    -0.506 OA
ATOM     47  H   UNK    1       24.706 -33.497  15.787  0.00  0.00    +0.292 HD
ENDBRANCH  11  46
BRANCH   7  48
ATOM     48  O   UNK    1       22.168 -30.665  10.985  0.00  0.00    -0.384 OA
ATOM     49  H   UNK    1       21.284 -30.262  10.868  0.00  0.00    +0.211 HD
ENDBRANCH   7  48
BRANCH   4  50
ATOM     50  O   UNK    1       26.820 -31.263  10.672  0.00  0.00    -0.507 OA
ATOM     51  H   UNK    1       26.663 -31.218  11.643  0.00  0.00    +0.292 HD
ENDBRANCH   4  50
BRANCH   3  52
ATOM     52  O   UNK    1       26.931 -31.337   8.114  0.00  0.00    -0.373 OA
ATOM     53  H   UNK    1       26.922 -30.908   7.233  0.00  0.00    +0.211 HD
ENDBRANCH   3  52
TORSDOF 17
ENDMDL
MODEL 2
REMARK VINA RESULT:      -7.4      1.441      1.627
REMARK  Name = *****
REMARK                            x       y       z     vdW  Elec       q    Type
REMARK                         _______ _______ _______ _____ _____    ______ ____
ROOT
ATOM      1  C   UNK    1       24.679 -31.913   6.295  0.00  0.00    +0.129 C 
ATOM      2  C   UNK    1       24.686 -32.237   7.834  0.00  0.00    +0.061 C 
ATOM      3  C   UNK    1       25.560 -31.216   8.576  0.00  0.00    +0.190 C 
ATOM      4  C   UNK    1       25.597 -31.512  10.051  0.00  0.00    +0.141 C 
ATOM      5  C   UNK    1       24.585 -32.129  10.686  0.00  0.00    +0.047 C 
ATOM      6  C   UNK    1       23.288 -32.550  10.030  0.00  0.00    +0.062 C 
ATOM      7  C   UNK    1       22.095 -31.980  10.886  0.00  0.00    +0.096 C 
ATOM      8  C   UNK    1       20.737 -32.317  10.251  0.00  0.00    +0.047 C 
ATOM      9  C   UNK    1       22.220 -32.488  12.336  0.00  0.00    -0.002 A 
ATOM     10  C   UNK    1       23.496 -32.694  12.909  0.00  0.00    +0.069 A 
ATOM     11  C   UNK    1       23.631 -33.140  14.237  0.00  0.00    +0.128 A 
ATOM     12  C   UNK    1       22.512 -33.383  15.019  0.00  0.00    +0.046 A 
ATOM     13  C   UNK    1       21.249 -33.160  14.487  0.00  0.00    +0.004 A 
ATOM     14  C   UNK    1       21.103 -32.712  13.167  0.00  0.00    +0.007 A 
ATOM     15  C   UNK    1       24.720 -32.410  12.135  0.00  0.00    +0.197 C 
ATOM     16  O   UNK    1       25.824 -32.414  12.681  0.00  0.00    -0.287 OA
ATOM     17  C   UNK    1       24.877 -29.862   8.291  0.00  0.00    +0.210 C 
ATOM     18  O   UNK    1       24.097 -29.330   9.085  0.00  0.00    -0.288 OA
ATOM     19  C   UNK    1       24.959 -29.410   6.873  0.00  0.00    +0.121 C 
ATOM     20  C   UNK    1       23.255 -32.252   8.489  0.00  0.00    +0.020 C 
ATOM     21  C   UNK    1       24.822 -30.404   5.965  0.00  0.00    +0.127 C 
ENDROOT
BRANCH  19  22
ATOM     22  C   UNK    1       25.178 -27.959   6.581  0.00  0.00    +0.252 C 
ATOM     23  N   UNK    1       24.510 -27.458   5.496  0.00  0.00    -0.299 N 
ATOM     24  H   UNK    1       23.854 -28.064   5.016  0.00  0.00    +0.150 HD
ATOM     25  O   UNK    1       25.927 -27.272   7.270  0.00  0.00    -0.270 OA
BRANCH  23  26
ATOM     26  C   UNK    1       24.499 -26.071   5.187  0.00  0.00    +0.189 C 
BRANCH  26  27
ATOM     27  N   UNK    1       23.683 -25.482   6.223  0.00  0.00    -0.301 NA
ATOM     28  H   UNK    1       22.712 -25.520   5.949  0.00  0.00    +0.123 HD
BRANCH  27  29
ATOM     29  C   UNK    1       24.053 -24.110   6.550  0.00  0.00    +0.082 C 
BRANCH  29  30
ATOM     30  C   UNK    1       22.911 -23.145   6.906  0.00  0.00    +0.015 C 
BRANCH  30  31
ATOM     31  C   UNK    1       23.281 -21.654   7.066  0.00  0.00    +0.003 C 
BRANCH  31  32
ATOM     32  C   UNK    1       23.248 -20.784   5.794  0.00  0.00    +0.030 C 
BRANCH  32  33
ATOM     33  C   UNK    1       24.445 -20.909   4.850  0.00  0.00    +0.161 C 
BRANCH  33  34
ATOM     34  N   UNK    1       25.714 -20.886   5.640  0.00  0.00    -0.318 NA
ATOM     35  H   UNK    1       26.185 -21.785   5.509  0.00  0.00    +0.119 HD
ATOM     36  H   UNK    1       25.462 -20.881   6.631  0.00  0.00    +0.119 HD
ENDBRANCH  33  34
BRANCH  33  37
ATOM     37  C   UNK    1       24.482 -19.705   3.885  0.00  0.00    +0.322 C 
ATOM     38  O   UNK    1       23.539 -18.923   3.678  0.00  0.00    -0.249 OA
BRANCH  37  39
ATOM     39  O   UNK    1       25.689 -19.564   3.287  0.00  0.00    -0.479 OA
ATOM     40  H   UNK    1       25.962 -20.476   3.018  0.00  0.00    +0.295 HD
ENDBRANCH  37  39
ENDBRANCH  33  37
ENDBRANCH  32  33
ENDBRANCH  31  32
ENDBRANCH  30  31
ENDBRANCH  29  30
ENDBRANCH  27  29
ENDBRANCH  26  27
ENDBRANCH  23  26
ENDBRANCH  19  22
BRANCH   1  42
ATOM     41  C   UNK    1       24.875 -33.390   4.302  0.00  0.00    +0.105 C 
ATOM     42  N   UNK    1       25.581 -32.691   5.381  0.00  0.00    -0.298 NA
ATOM     43  C   UNK    1       26.531 -33.621   6.010  0.00  0.00    +0.105 C 
ENDBRANCH   1  42
BRANCH  21  44
ATOM     44  O   UNK    1       24.894 -30.146   4.595  0.00  0.00    -0.509 OA
ATOM     45  H   UNK    1       25.732 -29.642   4.476  0.00  0.00    +0.292 HD
ENDBRANCH  21  44
BRANCH  11  46
ATOM     46  O   UNK    1       24.841 -33.360  14.843  0.00  0.00    -0.506 OA
ATOM     47  H   UNK    1       25.470 -33.684  14.160  0.00  0.00    +0.292 HD
ENDBRANCH  11  46
BRANCH   7  48
ATOM     48  O   UNK    1       22.149 -30.554  10.990  0.00  0.00    -0.384 OA
ATOM     49  H   UNK    1       21.341 -30.191  11.406  0.00  0.00    +0.211 HD
ENDBRANCH   7  48
BRANCH   4  50
ATOM     50  O   UNK    1       26.798 -31.168  10.662  0.00  0.00    -0.507 OA
ATOM     51  H   UNK    1       27.398 -30.795   9.975  0.00  0.00    +0.292 HD
ENDBRANCH   4  50
BRANCH   3  52
ATOM     52  O   UNK    1       26.896 -31.277   8.105  0.00  0.00    -0.373 OA
ATOM     53  H   UNK    1       27.412 -30.691   8.697  0.00  0.00    +0.211 HD
ENDBRANCH   3  52
TORSDOF 17
ENDMDL
MODEL 3
REMARK VINA RESULT:      -7.3      4.075      6.307
REMARK  Name = *****
REMARK                            x       y       z     vdW  Elec       q    Type
REMARK                         _______ _______ _______ _____ _____    ______ ____
ROOT
ATOM      1  C   UNK    1       24.625 -30.815  13.808  0.00  0.00    +0.129 C 
ATOM      2  C   UNK    1       23.324 -29.972  14.069  0.00  0.00    +0.061 C 
ATOM      3  C   UNK    1       23.226 -28.835  13.042  0.00  0.00    +0.190 C 
ATOM      4  C   UNK    1       21.995 -28.001  13.278  0.00  0.00    +0.141 C 
ATOM      5  C   UNK    1       20.883 -28.506  13.841  0.00  0.00    +0.047 C 
ATOM      6  C   UNK    1       20.708 -29.951  14.253  0.00  0.00    +0.062 C 
ATOM      7  C   UNK    1       19.370 -30.486  13.617  0.00  0.00    +0.096 C 
ATOM      8  C   UNK    1       19.148 -31.971  13.943  0.00  0.00    +0.047 C 
ATOM      9  C   UNK    1       18.198 -29.592  14.068  0.00  0.00    -0.002 A 
ATOM     10  C   UNK    1       18.401 -28.210  14.284  0.00  0.00    +0.069 A 
ATOM     11  C   UNK    1       17.339 -27.375  14.679  0.00  0.00    +0.128 A 
ATOM     12  C   UNK    1       16.064 -27.888  14.860  0.00  0.00    +0.046 A 
ATOM     13  C   UNK    1       15.834 -29.238  14.624  0.00  0.00    +0.004 A 
ATOM     14  C   UNK    1       16.884 -30.078  14.227  0.00  0.00    +0.007 A 
ATOM     15  C   UNK    1       19.728 -27.604  14.065  0.00  0.00    +0.197 C 
ATOM     16  O   UNK    1       19.870 -26.381  14.077  0.00  0.00    -0.287 OA
ATOM     17  C   UNK    1       23.161 -29.562  11.684  0.00  0.00    +0.210 C 
ATOM     18  O   UNK    1       22.097 -29.785  11.098  0.00  0.00    -0.288 OA
ATOM     19  C   UNK    1       24.416 -30.264  11.292  0.00  0.00    +0.121 C 
ATOM     20  C   UNK    1       21.996 -30.817  14.019  0.00  0.00    +0.020 C 
ATOM     21  C   UNK    1       25.053 -30.874  12.319  0.00  0.00    +0.127 C 
ENDROOT
BRANCH  19  22
ATOM     22  C   UNK    1       24.851 -30.240   9.861  0.00  0.00    +0.252 C 
ATOM     23  N   UNK    1       24.035 -30.888   8.974  0.00  0.00    -0.299 N 
ATOM     24  H   UNK    1       23.158 -31.264   9.317  0.00  0.00    +0.150 HD
ATOM     25  O   UNK    1       25.890 -29.682   9.516  0.00  0.00    -0.270 OA
BRANCH  23  26
ATOM     26  C   UNK    1       24.237 -30.821   7.568  0.00  0.00    +0.189 C 
BRANCH  26  27
ATOM     27  N   UNK    1       23.873 -29.466   7.222  0.00  0.00    -0.301 NA
ATOM     28  H   UNK    1       22.918 -29.448   6.894  0.00  0.00    +0.123 HD
BRANCH  27  29
ATOM     29  C   UNK    1       24.750 -28.862   6.227  0.00  0.00    +0.082 C 
BRANCH  29  30
ATOM     30  C   UNK    1       25.526 -27.604   6.651  0.00  0.00    +0.015 C 
BRANCH  30  31
ATOM     31  C   UNK    1       25.573 -26.438   5.640  0.00  0.00    +0.003 C 
BRANCH  31  32
ATOM     32  C   UNK    1       24.304 -25.572   5.509  0.00  0.00    +0.030 C 
BRANCH  32  33
ATOM     33  C   UNK    1       24.163 -24.413   6.497  0.00  0.00    +0.161 C 
BRANCH  33  34
ATOM     34  N   UNK    1       22.726 -24.011   6.598  0.00  0.00    -0.318 NA
ATOM     35  H   UNK    1       22.420 -24.168   7.562  0.00  0.00    +0.119 HD
ATOM     36  H   UNK    1       22.177 -24.680   6.052  0.00  0.00    +0.119 HD
ENDBRANCH  33  34
BRANCH  33  37
ATOM     37  C   UNK    1       24.949 -23.188   5.986  0.00  0.00    +0.322 C 
ATOM     38  O   UNK    1       25.743 -22.512   6.660  0.00  0.00    -0.249 OA
BRANCH  37  39
ATOM     39  O   UNK    1       24.700 -22.928   4.679  0.00  0.00    -0.479 OA
ATOM     40  H   UNK    1       25.288 -23.540   4.169  0.00  0.00    +0.295 HD
ENDBRANCH  37  39
ENDBRANCH  33  37
ENDBRANCH  32  33
ENDBRANCH  31  32
ENDBRANCH  30  31
ENDBRANCH  29  30
ENDBRANCH  27  29
ENDBRANCH  26  27
ENDBRANCH  23  26
ENDBRANCH  19  22
BRANCH   1  42
ATOM     41  C   UNK    1       26.260 -31.702  15.462  0.00  0.00    +0.105 C 
ATOM     42  N   UNK    1       25.843 -30.555  14.648  0.00  0.00    -0.298 NA
ATOM     43  C   UNK    1       25.831 -29.350  15.491  0.00  0.00    +0.105 C 
ENDBRANCH   1  42
BRANCH  21  44
ATOM     44  O   UNK    1       26.254 -31.558  12.119  0.00  0.00    -0.509 OA
ATOM     45  H   UNK    1       26.915 -31.075  12.665  0.00  0.00    +0.292 HD
ENDBRANCH  21  44
BRANCH  11  46
ATOM     46  O   UNK    1       17.477 -26.030  14.906  0.00  0.00    -0.506 OA
ATOM     47  H   UNK    1       18.237 -25.900  15.518  0.00  0.00    +0.292 HD
ENDBRANCH  11  46
BRANCH   7  48
ATOM     48  O   UNK    1       19.382 -30.383  12.190  0.00  0.00    -0.384 OA
ATOM     49  H   UNK    1       20.264 -30.588  11.821  0.00  0.00    +0.211 HD
ENDBRANCH   7  48
BRANCH   4  50
ATOM     50  O   UNK    1       22.153 -26.661  12.942  0.00  0.00    -0.507 OA
ATOM     51  H   UNK    1       22.815 -26.264  13.554  0.00  0.00    +0.292 HD
ENDBRANCH   4  50
BRANCH   3  52
ATOM     52  O   UNK    1       24.344 -27.970  13.158  0.00  0.00    -0.373 OA
ATOM     53  H   UNK    1       25.120 -28.502  12.883  0.00  0.00    +0.211 HD
ENDBRANCH   3  52
TORSDOF 17
ENDMDL
MODEL 4
REMARK VINA RESULT:      -6.4      4.193      5.738
REMARK  Name = *****
REMARK                            x       y       z     vdW  Elec       q    Type
REMARK                         _______ _______ _______ _____ _____    ______ ____
ROOT
ATOM      1  C   UNK    1       23.068 -30.816  11.773  0.00  0.00    +0.129 C 
ATOM      2  C   UNK    1       24.346 -30.203  12.453  0.00  0.00    +0.061 C 
ATOM      3  C   UNK    1       25.571 -30.429  11.556  0.00  0.00    +0.190 C 
ATOM      4  C   UNK    1       26.814 -29.865  12.191  0.00  0.00    +0.141 C 
ATOM      5  C   UNK    1       26.778 -28.824  13.041  0.00  0.00    +0.047 C 
ATOM      6  C   UNK    1       25.523 -28.069  13.422  0.00  0.00    +0.062 C 
ATOM      7  C   UNK    1       25.786 -26.532  13.198  0.00  0.00    +0.096 C 
ATOM      8  C   UNK    1       24.533 -25.698  13.509  0.00  0.00    +0.047 C 
ATOM      9  C   UNK    1       27.014 -26.099  14.022  0.00  0.00    -0.002 A 
ATOM     10  C   UNK    1       28.084 -26.999  14.228  0.00  0.00    +0.069 A 
ATOM     11  C   UNK    1       29.222 -26.616  14.963  0.00  0.00    +0.128 A 
ATOM     12  C   UNK    1       29.323 -25.342  15.498  0.00  0.00    +0.046 A 
ATOM     13  C   UNK    1       28.297 -24.430  15.284  0.00  0.00    +0.004 A 
ATOM     14  C   UNK    1       27.161 -24.800  14.550  0.00  0.00    +0.007 A 
ATOM     15  C   UNK    1       28.048 -28.354  13.645  0.00  0.00    +0.197 C 
ATOM     16  O   UNK    1       29.046 -29.075  13.667  0.00  0.00    -0.287 OA
ATOM     17  C   UNK    1       25.220 -29.687  10.250  0.00  0.00    +0.210 C 
ATOM     18  O   UNK    1       25.620 -28.545  10.005  0.00  0.00    -0.288 OA
ATOM     19  C   UNK    1       24.110 -30.298   9.465  0.00  0.00    +0.121 C 
ATOM     20  C   UNK    1       24.225 -28.666  12.770  0.00  0.00    +0.020 C 
ATOM     21  C   UNK    1       23.098 -30.782  10.223  0.00  0.00    +0.127 C 
ENDROOT
BRANCH  19  22
ATOM     22  C   UNK    1       24.199 -30.326   7.973  0.00  0.00    +0.252 C 
ATOM     23  N   UNK    1       24.632 -29.173   7.375  0.00  0.00    -0.299 N 
ATOM     24  H   UNK    1       24.943 -28.413   7.970  0.00  0.00    +0.150 HD
ATOM     25  O   UNK    1       23.883 -31.324   7.330  0.00  0.00    -0.270 OA
BRANCH  23  26
ATOM     26  C   UNK    1       24.911 -29.099   5.983  0.00  0.00    +0.189 C 
BRANCH  26  27
ATOM     27  N   UNK    1       23.969 -28.126   5.483  0.00  0.00    -0.301 NA
ATOM     28  H   UNK    1       23.388 -28.552   4.774  0.00  0.00    +0.123 HD
BRANCH  27  29
ATOM     29  C   UNK    1       24.598 -26.923   4.950  0.00  0.00    +0.082 C 
BRANCH  29  30
ATOM     30  C   UNK    1       24.508 -25.650   5.806  0.00  0.00    +0.015 C 
BRANCH  30  31
ATOM     31  C   UNK    1       25.803 -25.187   6.509  0.00  0.00    +0.003 C 
BRANCH  31  32
ATOM     32  C   UNK    1       25.726 -23.887   7.335  0.00  0.00    +0.030 C 
BRANCH  32  33
ATOM     33  C   UNK    1       24.772 -22.807   6.823  0.00  0.00    +0.161 C 
BRANCH  33  34
ATOM     34  N   UNK    1       25.317 -22.210   5.565  0.00  0.00    -0.318 NA
ATOM     35  H   UNK    1       25.989 -21.483   5.826  0.00  0.00    +0.119 HD
ATOM     36  H   UNK    1       24.558 -21.694   5.113  0.00  0.00    +0.119 HD
ENDBRANCH  33  34
BRANCH  33  37
ATOM     37  C   UNK    1       24.659 -21.671   7.861  0.00  0.00    +0.322 C 
ATOM     38  O   UNK    1       25.514 -21.394   8.717  0.00  0.00    -0.249 OA
BRANCH  37  39
ATOM     39  O   UNK    1       23.510 -20.966   7.726  0.00  0.00    -0.479 OA
ATOM     40  H   UNK    1       23.704 -20.266   7.052  0.00  0.00    +0.295 HD
ENDBRANCH  37  39
ENDBRANCH  33  37
ENDBRANCH  32  33
ENDBRANCH  31  32
ENDBRANCH  30  31
ENDBRANCH  29  30
ENDBRANCH  27  29
ENDBRANCH  26  27
ENDBRANCH  23  26
ENDBRANCH  19  22
BRANCH   1  42
ATOM     41  C   UNK    1       21.362 -32.124  13.028  0.00  0.00    +0.105 C 
ATOM     42  N   UNK    1       22.583 -32.167  12.215  0.00  0.00    -0.298 NA
ATOM     43  C   UNK    1       23.561 -33.049  12.869  0.00  0.00    +0.105 C 
ENDBRANCH   1  42
BRANCH  21  44
ATOM     44  O   UNK    1       21.992 -31.403   9.638  0.00  0.00    -0.509 OA
ATOM     45  H   UNK    1       22.217 -31.475   8.682  0.00  0.00    +0.292 HD
ENDBRANCH  21  44
BRANCH  11  46
ATOM     46  O   UNK    1       30.287 -27.447  15.197  0.00  0.00    -0.506 OA
ATOM     47  H   UNK    1       30.885 -27.003  15.840  0.00  0.00    +0.292 HD
ENDBRANCH  11  46
BRANCH   7  48
ATOM     48  O   UNK    1       26.134 -26.245  11.840  0.00  0.00    -0.384 OA
ATOM     49  H   UNK    1       25.354 -25.974  11.317  0.00  0.00    +0.211 HD
ENDBRANCH   7  48
BRANCH   4  50
ATOM     50  O   UNK    1       27.971 -30.572  11.882  0.00  0.00    -0.507 OA
ATOM     51  H   UNK    1       28.747 -30.035  12.165  0.00  0.00    +0.292 HD
ENDBRANCH   4  50
BRANCH   3  52
ATOM     52  O   UNK    1       25.793 -31.817  11.366  0.00  0.00    -0.373 OA
ATOM     53  H   UNK    1       24.912 -32.202  11.174  0.00  0.00    +0.211 HD
ENDBRANCH   3  52
TORSDOF 17
ENDMDL
MODEL 5
REMARK VINA RESULT:      -5.8      4.583      8.276
REMARK  Name = *****
REMARK                            x       y       z     vdW  Elec       q    Type
REMARK                         _______ _______ _______ _____ _____    ______ ____
ROOT
ATOM      1  C   UNK    1       25.523 -28.153  12.088  0.00  0.00    +0.129 C 
ATOM      2  C   UNK    1       25.969 -29.135  10.944  0.00  0.00    +0.061 C 
ATOM      3  C   UNK    1       25.545 -30.568  11.294  0.00  0.00    +0.190 C 
ATOM      4  C   UNK    1       25.974 -31.533  10.221  0.00  0.00    +0.141 C 
ATOM      5  C   UNK    1       26.118 -31.162   8.937  0.00  0.00    +0.047 C 
ATOM      6  C   UNK    1       25.827 -29.775   8.405  0.00  0.00    +0.062 C 
ATOM      7  C   UNK    1       24.864 -29.915   7.167  0.00  0.00    +0.096 C 
ATOM      8  C   UNK    1       24.472 -28.540   6.602  0.00  0.00    +0.047 C 
ATOM      9  C   UNK    1       25.517 -30.831   6.113  0.00  0.00    -0.002 A 
ATOM     10  C   UNK    1       26.343 -31.904   6.519  0.00  0.00    +0.069 A 
ATOM     11  C   UNK    1       26.933 -32.762   5.573  0.00  0.00    +0.128 A 
ATOM     12  C   UNK    1       26.714 -32.579   4.216  0.00  0.00    +0.046 A 
ATOM     13  C   UNK    1       25.882 -31.549   3.795  0.00  0.00    +0.004 A 
ATOM     14  C   UNK    1       25.286 -30.691   4.729  0.00  0.00    +0.007 A 
ATOM     15  C   UNK    1       26.575 -32.171   7.952  0.00  0.00    +0.197 C 
ATOM     16  O   UNK    1       27.142 -33.202   8.315  0.00  0.00    -0.287 OA
ATOM     17  C   UNK    1       24.008 -30.489  11.398  0.00  0.00    +0.210 C 
ATOM     18  O   UNK    1       23.261 -30.809  10.469  0.00  0.00    -0.288 OA
ATOM     19  C   UNK    1       23.502 -29.695  12.553  0.00  0.00    +0.121 C 
ATOM     20  C   UNK    1       25.392 -28.766   9.526  0.00  0.00    +0.020 C 
ATOM     21  C   UNK    1       24.224 -28.581  12.819  0.00  0.00    +0.127 C 
ENDROOT
BRANCH  19  22
ATOM     22  C   UNK    1       22.293 -30.172  13.293  0.00  0.00    +0.252 C 
ATOM     23  N   UNK    1       21.263 -30.642  12.523  0.00  0.00    -0.299 N 
ATOM     24  H   UNK    1       21.411 -30.719  11.523  0.00  0.00    +0.150 HD
ATOM     25  O   UNK    1       22.231 -30.124  14.519  0.00  0.00    -0.270 OA
BRANCH  23  26
ATOM     26  C   UNK    1       20.117 -31.266  13.087  0.00  0.00    +0.189 C 
BRANCH  26  27
ATOM     27  N   UNK    1       19.006 -30.680  12.374  0.00  0.00    -0.301 NA
ATOM     28  H   UNK    1       19.306 -29.826  11.925  0.00  0.00    +0.123 HD
BRANCH  27  29
ATOM     29  C   UNK    1       17.846 -30.415  13.216  0.00  0.00    +0.082 C 
BRANCH  29  30
ATOM     30  C   UNK    1       18.054 -30.495  14.738  0.00  0.00    +0.015 C 
BRANCH  30  31
ATOM     31  C   UNK    1       18.162 -29.156  15.500  0.00  0.00    +0.003 C 
BRANCH  31  32
ATOM     32  C   UNK    1       19.479 -28.368  15.350  0.00  0.00    +0.030 C 
BRANCH  32  33
ATOM     33  C   UNK    1       19.400 -27.045  14.588  0.00  0.00    +0.161 C 
BRANCH  33  34
ATOM     34  N   UNK    1       18.073 -26.934  13.908  0.00  0.00    -0.318 NA
ATOM     35  H   UNK    1       18.068 -27.582  13.116  0.00  0.00    +0.119 HD
ATOM     36  H   UNK    1       18.026 -26.010  13.470  0.00  0.00    +0.119 HD
ENDBRANCH  33  34
BRANCH  33  37
ATOM     37  C   UNK    1       20.484 -27.006  13.490  0.00  0.00    +0.322 C 
ATOM     38  O   UNK    1       21.499 -26.290  13.510  0.00  0.00    -0.249 OA
BRANCH  37  39
ATOM     39  O   UNK    1       20.226 -27.874  12.483  0.00  0.00    -0.479 OA
ATOM     40  H   UNK    1       19.416 -27.527  12.032  0.00  0.00    +0.295 HD
ENDBRANCH  37  39
ENDBRANCH  33  37
ENDBRANCH  32  33
ENDBRANCH  31  32
ENDBRANCH  30  31
ENDBRANCH  29  30
ENDBRANCH  27  29
ENDBRANCH  26  27
ENDBRANCH  23  26
ENDBRANCH  19  22
BRANCH   1  42
ATOM     41  C   UNK    1       26.809 -26.282  13.108  0.00  0.00    +0.105 C 
ATOM     42  N   UNK    1       26.531 -27.723  13.115  0.00  0.00    -0.298 NA
ATOM     43  C   UNK    1       27.806 -28.455  13.150  0.00  0.00    +0.105 C 
ENDBRANCH   1  42
BRANCH  21  44
ATOM     44  O   UNK    1       23.889 -27.741  13.883  0.00  0.00    -0.509 OA
ATOM     45  H   UNK    1       24.182 -28.225  14.689  0.00  0.00    +0.292 HD
ENDBRANCH  21  44
BRANCH  11  46
ATOM     46  O   UNK    1       27.745 -33.815   5.908  0.00  0.00    -0.506 OA
ATOM     47  H   UNK    1       28.640 -33.460   6.107  0.00  0.00    +0.292 HD
ENDBRANCH  11  46
BRANCH   7  48
ATOM     48  O   UNK    1       23.640 -30.571   7.516  0.00  0.00    -0.384 OA
ATOM     49  H   UNK    1       23.352 -30.339   8.422  0.00  0.00    +0.211 HD
ENDBRANCH   7  48
BRANCH   4  50
ATOM     50  O   UNK    1       26.284 -32.801  10.699  0.00  0.00    -0.507 OA
ATOM     51  H   UNK    1       27.015 -32.715  11.354  0.00  0.00    +0.292 HD
ENDBRANCH   4  50
BRANCH   3  52
ATOM     52  O   UNK    1       26.164 -30.984  12.500  0.00  0.00    -0.373 OA
ATOM     53  H   UNK    1       25.529 -30.765  13.213  0.00  0.00    +0.211 HD
ENDBRANCH   3  52
TORSDOF 17
ENDMDL
MODEL 6
REMARK VINA RESULT:      -5.8      1.817      2.154
REMARK  Name = *****
REMARK                            x       y       z     vdW  Elec       q    Type
REMARK                         _______ _______ _______ _____ _____    ______ ____
ROOT
ATOM      1  C   UNK    1       25.597 -32.782   7.187  0.00  0.00    +0.129 C 
ATOM      2  C   UNK    1       25.242 -32.387   8.668  0.00  0.00    +0.061 C 
ATOM      3  C   UNK    1       25.602 -30.915   8.912  0.00  0.00    +0.190 C 
ATOM      4  C   UNK    1       25.287 -30.513  10.329  0.00  0.00    +0.141 C 
ATOM      5  C   UNK    1       24.311 -31.102  11.042  0.00  0.00    +0.047 C 
ATOM      6  C   UNK    1       23.392 -32.182  10.515  0.00  0.00    +0.062 C 
ATOM      7  C   UNK    1       21.906 -31.748  10.803  0.00  0.00    +0.096 C 
ATOM      8  C   UNK    1       20.904 -32.770  10.242  0.00  0.00    +0.047 C 
ATOM      9  C   UNK    1       21.729 -31.504  12.314  0.00  0.00    -0.002 A 
ATOM     10  C   UNK    1       22.800 -30.990  13.080  0.00  0.00    +0.069 A 
ATOM     11  C   UNK    1       22.653 -30.743  14.458  0.00  0.00    +0.128 A 
ATOM     12  C   UNK    1       21.449 -30.994  15.098  0.00  0.00    +0.046 A 
ATOM     13  C   UNK    1       20.373 -31.471  14.359  0.00  0.00    +0.004 A 
ATOM     14  C   UNK    1       20.508 -31.716  12.986  0.00  0.00    +0.007 A 
ATOM     15  C   UNK    1       24.091 -30.665  12.442  0.00  0.00    +0.197 C 
ATOM     16  O   UNK    1       24.962 -30.053  13.061  0.00  0.00    -0.287 OA
ATOM     17  C   UNK    1       24.729 -30.143   7.902  0.00  0.00    +0.210 C 
ATOM     18  O   UNK    1       23.652 -29.626   8.211  0.00  0.00    -0.288 OA
ATOM     19  C   UNK    1       25.102 -30.349   6.473  0.00  0.00    +0.121 C 
ATOM     20  C   UNK    1       23.729 -32.610   9.042  0.00  0.00    +0.020 C 
ATOM     21  C   UNK    1       25.467 -31.617   6.173  0.00  0.00    +0.127 C 
ENDROOT
BRANCH  19  22
ATOM     22  C   UNK    1       25.045 -29.190   5.529  0.00  0.00    +0.252 C 
ATOM     23  N   UNK    1       24.794 -27.967   6.093  0.00  0.00    -0.299 N 
ATOM     24  H   UNK    1       24.748 -27.907   7.103  0.00  0.00    +0.150 HD
ATOM     25  O   UNK    1       25.200 -29.340   4.320  0.00  0.00    -0.270 OA
BRANCH  23  26
ATOM     26  C   UNK    1       24.862 -26.760   5.346  0.00  0.00    +0.189 C 
BRANCH  26  27
ATOM     27  N   UNK    1       23.900 -25.892   5.985  0.00  0.00    -0.301 NA
ATOM     28  H   UNK    1       23.048 -25.877   5.443  0.00  0.00    +0.123 HD
BRANCH  27  29
ATOM     29  C   UNK    1       24.384 -24.532   6.186  0.00  0.00    +0.082 C 
BRANCH  29  30
ATOM     30  C   UNK    1       25.490 -24.332   7.235  0.00  0.00    +0.015 C 
BRANCH  30  31
ATOM     31  C   UNK    1       26.327 -23.039   7.130  0.00  0.00    +0.003 C 
BRANCH  31  32
ATOM     32  C   UNK    1       25.790 -21.929   6.203  0.00  0.00    +0.030 C 
BRANCH  32  33
ATOM     33  C   UNK    1       25.179 -20.705   6.886  0.00  0.00    +0.161 C 
BRANCH  33  34
ATOM     34  N   UNK    1       25.531 -20.711   8.339  0.00  0.00    -0.318 NA
ATOM     35  H   UNK    1       24.688 -20.949   8.868  0.00  0.00    +0.119 HD
ATOM     36  H   UNK    1       25.731 -19.745   8.613  0.00  0.00    +0.119 HD
ENDBRANCH  33  34
BRANCH  33  37
ATOM     37  C   UNK    1       23.640 -20.762   6.786  0.00  0.00    +0.322 C 
ATOM     38  O   UNK    1       22.998 -21.042   5.761  0.00  0.00    -0.249 OA
BRANCH  37  39
ATOM     39  O   UNK    1       23.039 -20.493   7.970  0.00  0.00    -0.479 OA
ATOM     40  H   UNK    1       22.212 -19.998   7.744  0.00  0.00    +0.295 HD
ENDBRANCH  37  39
ENDBRANCH  33  37
ENDBRANCH  32  33
ENDBRANCH  31  32
ENDBRANCH  30  31
ENDBRANCH  29  30
ENDBRANCH  27  29
ENDBRANCH  26  27
ENDBRANCH  23  26
ENDBRANCH  19  22
BRANCH   1  42
ATOM     41  C   UNK    1       27.654 -33.825   8.122  0.00  0.00    +0.105 C 
ATOM     42  N   UNK    1       26.879 -33.515   6.915  0.00  0.00    -0.298 NA
ATOM     43  C   UNK    1       27.779 -32.940   5.905  0.00  0.00    +0.105 C 
ENDBRANCH   1  42
BRANCH  21  44
ATOM     44  O   UNK    1       25.863 -31.967   4.880  0.00  0.00    -0.509 OA
ATOM     45  H   UNK    1       25.739 -32.943   4.833  0.00  0.00    +0.292 HD
ENDBRANCH  21  44
BRANCH  11  46
ATOM     46  O   UNK    1       23.657 -30.249  15.250  0.00  0.00    -0.506 OA
ATOM     47  H   UNK    1       23.415 -29.332  15.514  0.00  0.00    +0.292 HD
ENDBRANCH  11  46
BRANCH   7  48
ATOM     48  O   UNK    1       21.589 -30.495  10.188  0.00  0.00    -0.384 OA
ATOM     49  H   UNK    1       21.828 -29.740  10.763  0.00  0.00    +0.211 HD
ENDBRANCH   7  48
BRANCH   4  50
ATOM     50  O   UNK    1       26.148 -29.550  10.843  0.00  0.00    -0.507 OA
ATOM     51  H   UNK    1       26.674 -29.960  11.567  0.00  0.00    +0.292 HD
ENDBRANCH   4  50
BRANCH   3  52
ATOM     52  O   UNK    1       26.991 -30.709   8.721  0.00  0.00    -0.373 OA
ATOM     53  H   UNK    1       27.366 -30.578   9.617  0.00  0.00    +0.211 HD
ENDBRANCH   3  52
TORSDOF 17
ENDMDL
MODEL 7
REMARK VINA RESULT:      -5.6      3.689     11.999
REMARK  Name = *****
REMARK                            x       y       z     vdW  Elec       q    Type
REMARK                         _______ _______ _______ _____ _____    ______ ____
ROOT
ATOM      1  C   UNK    1       24.912 -20.803   4.839  0.00  0.00    +0.129 C 
ATOM      2  C   UNK    1       25.803 -20.158   5.963  0.00  0.00    +0.061 C 
ATOM      3  C   UNK    1       25.685 -20.979   7.255  0.00  0.00    +0.190 C 
ATOM      4  C   UNK    1       26.517 -20.375   8.355  0.00  0.00    +0.141 C 
ATOM      5  C   UNK    1       27.627 -19.659   8.104  0.00  0.00    +0.047 C 
ATOM      6  C   UNK    1       28.200 -19.415   6.725  0.00  0.00    +0.062 C 
ATOM      7  C   UNK    1       29.723 -19.814   6.747  0.00  0.00    +0.096 C 
ATOM      8  C   UNK    1       30.366 -19.649   5.360  0.00  0.00    +0.047 C 
ATOM      9  C   UNK    1       30.447 -19.006   7.842  0.00  0.00    -0.002 A 
ATOM     10  C   UNK    1       29.768 -18.656   9.031  0.00  0.00    +0.069 A 
ATOM     11  C   UNK    1       30.417 -17.935  10.051  0.00  0.00    +0.128 A 
ATOM     12  C   UNK    1       31.743 -17.554   9.915  0.00  0.00    +0.046 A 
ATOM     13  C   UNK    1       32.439 -17.912   8.768  0.00  0.00    +0.004 A 
ATOM     14  C   UNK    1       31.803 -18.634   7.748  0.00  0.00    +0.007 A 
ATOM     15  C   UNK    1       28.368 -19.073   9.247  0.00  0.00    +0.197 C 
ATOM     16  O   UNK    1       27.832 -18.929  10.345  0.00  0.00    -0.287 OA
ATOM     17  C   UNK    1       26.204 -22.377   6.860  0.00  0.00    +0.210 C 
ATOM     18  O   UNK    1       27.362 -22.744   7.081  0.00  0.00    -0.288 OA
ATOM     19  C   UNK    1       25.332 -23.119   5.907  0.00  0.00    +0.121 C 
ATOM     20  C   UNK    1       27.325 -20.034   5.578  0.00  0.00    +0.020 C 
ATOM     21  C   UNK    1       24.774 -22.344   4.947  0.00  0.00    +0.127 C 
ENDROOT
BRANCH  19  22
ATOM     22  C   UNK    1       25.150 -24.593   6.079  0.00  0.00    +0.252 C 
ATOM     23  N   UNK    1       26.297 -25.329   6.212  0.00  0.00    -0.299 N 
ATOM     24  H   UNK    1       27.179 -24.833   6.271  0.00  0.00    +0.150 HD
ATOM     25  O   UNK    1       24.033 -25.106   6.083  0.00  0.00    -0.270 OA
BRANCH  23  26
ATOM     26  C   UNK    1       26.277 -26.713   6.534  0.00  0.00    +0.189 C 
BRANCH  26  27
ATOM     27  N   UNK    1       26.228 -27.376   5.251  0.00  0.00    -0.301 NA
ATOM     28  H   UNK    1       26.190 -26.684   4.516  0.00  0.00    +0.123 HD
BRANCH  27  29
ATOM     29  C   UNK    1       25.113 -28.305   5.115  0.00  0.00    +0.082 C 
BRANCH  29  30
ATOM     30  C   UNK    1       24.312 -28.626   6.388  0.00  0.00    +0.015 C 
BRANCH  30  31
ATOM     31  C   UNK    1       24.633 -29.960   7.097  0.00  0.00    +0.003 C 
BRANCH  31  32
ATOM     32  C   UNK    1       24.870 -29.904   8.620  0.00  0.00    +0.030 C 
BRANCH  32  33
ATOM     33  C   UNK    1       25.982 -30.797   9.172  0.00  0.00    +0.161 C 
BRANCH  33  34
ATOM     34  N   UNK    1       25.447 -31.632  10.291  0.00  0.00    -0.318 NA
ATOM     35  H   UNK    1       26.220 -31.835  10.931  0.00  0.00    +0.119 HD
ATOM     36  H   UNK    1       25.200 -32.547   9.905  0.00  0.00    +0.119 HD
ENDBRANCH  33  34
BRANCH  33  37
ATOM     37  C   UNK    1       27.117 -29.927   9.750  0.00  0.00    +0.322 C 
ATOM     38  O   UNK    1       27.936 -30.293  10.608  0.00  0.00    -0.249 OA
BRANCH  37  39
ATOM     39  O   UNK    1       27.151 -28.693   9.192  0.00  0.00    -0.479 OA
ATOM     40  H   UNK    1       28.111 -28.479   9.074  0.00  0.00    +0.295 HD
ENDBRANCH  37  39
ENDBRANCH  33  37
ENDBRANCH  32  33
ENDBRANCH  31  32
ENDBRANCH  30  31
ENDBRANCH  29  30
ENDBRANCH  27  29
ENDBRANCH  26  27
ENDBRANCH  23  26
ENDBRANCH  19  22
BRANCH   1  42
ATOM     41  C   UNK    1       23.603 -18.908   3.897  0.00  0.00    +0.105 C 
ATOM     42  N   UNK    1       23.558 -20.218   4.557  0.00  0.00    -0.298 NA
ATOM     43  C   UNK    1       22.607 -20.156   5.677  0.00  0.00    +0.105 C 
ENDBRANCH   1  42
BRANCH  21  44
ATOM     44  O   UNK    1       23.915 -22.887   3.990  0.00  0.00    -0.509 OA
ATOM     45  H   UNK    1       24.321 -23.749   3.744  0.00  0.00    +0.292 HD
ENDBRANCH  21  44
BRANCH  11  46
ATOM     46  O   UNK    1       29.808 -17.566  11.223  0.00  0.00    -0.506 OA
ATOM     47  H   UNK    1       29.648 -16.596  11.191  0.00  0.00    +0.292 HD
ENDBRANCH  11  46
BRANCH   7  48
ATOM     48  O   UNK    1       29.909 -21.184   7.117  0.00  0.00    -0.384 OA
ATOM     49  H   UNK    1       30.531 -21.639   6.515  0.00  0.00    +0.211 HD
ENDBRANCH   7  48
BRANCH   4  50
ATOM     50  O   UNK    1       25.983 -20.556   9.625  0.00  0.00    -0.507 OA
ATOM     51  H   UNK    1       26.722 -20.539  10.277  0.00  0.00    +0.292 HD
ENDBRANCH   4  50
BRANCH   3  52
ATOM     52  O   UNK    1       24.342 -20.992   7.709  0.00  0.00    -0.373 OA
ATOM     53  H   UNK    1       23.865 -21.603   7.108  0.00  0.00    +0.211 HD
ENDBRANCH   3  52
TORSDOF 17
ENDMDL
MODEL 8
REMARK VINA RESULT:      -5.5      4.510     12.230
REMARK  Name = *****
REMARK                            x       y       z     vdW  Elec       q    Type
REMARK                         _______ _______ _______ _____ _____    ______ ____
ROOT
ATOM      1  C   UNK    1       24.879 -20.808   4.828  0.00  0.00    +0.129 C 
ATOM      2  C   UNK    1       25.771 -20.169   5.954  0.00  0.00    +0.061 C 
ATOM      3  C   UNK    1       25.666 -21.005   7.237  0.00  0.00    +0.190 C 
ATOM      4  C   UNK    1       26.499 -20.406   8.339  0.00  0.00    +0.141 C 
ATOM      5  C   UNK    1       27.603 -19.679   8.090  0.00  0.00    +0.047 C 
ATOM      6  C   UNK    1       28.166 -19.415   6.711  0.00  0.00    +0.062 C 
ATOM      7  C   UNK    1       29.693 -19.802   6.720  0.00  0.00    +0.096 C 
ATOM      8  C   UNK    1       30.327 -19.617   5.332  0.00  0.00    +0.047 C 
ATOM      9  C   UNK    1       30.416 -19.001   7.820  0.00  0.00    -0.002 A 
ATOM     10  C   UNK    1       29.740 -18.670   9.017  0.00  0.00    +0.069 A 
ATOM     11  C   UNK    1       30.389 -17.955  10.041  0.00  0.00    +0.128 A 
ATOM     12  C   UNK    1       31.711 -17.562   9.903  0.00  0.00    +0.046 A 
ATOM     13  C   UNK    1       32.404 -17.902   8.748  0.00  0.00    +0.004 A 
ATOM     14  C   UNK    1       31.769 -18.618   7.723  0.00  0.00    +0.007 A 
ATOM     15  C   UNK    1       28.345 -19.100   9.235  0.00  0.00    +0.197 C 
ATOM     16  O   UNK    1       27.813 -18.972  10.338  0.00  0.00    -0.287 OA
ATOM     17  C   UNK    1       26.194 -22.393   6.823  0.00  0.00    +0.210 C 
ATOM     18  O   UNK    1       27.355 -22.754   7.035  0.00  0.00    -0.288 OA
ATOM     19  C   UNK    1       25.322 -23.132   5.867  0.00  0.00    +0.121 C 
ATOM     20  C   UNK    1       27.290 -20.028   5.562  0.00  0.00    +0.020 C 
ATOM     21  C   UNK    1       24.753 -22.351   4.919  0.00  0.00    +0.127 C 
ENDROOT
BRANCH  19  22
ATOM     22  C   UNK    1       25.153 -24.610   6.024  0.00  0.00    +0.252 C 
ATOM     23  N   UNK    1       26.277 -25.311   6.370  0.00  0.00    -0.299 N 
ATOM     24  H   UNK    1       27.120 -24.788   6.580  0.00  0.00    +0.150 HD
ATOM     25  O   UNK    1       24.068 -25.154   5.835  0.00  0.00    -0.270 OA
BRANCH  23  26
ATOM     26  C   UNK    1       26.237 -26.692   6.702  0.00  0.00    +0.189 C 
BRANCH  26  27
ATOM     27  N   UNK    1       26.285 -27.366   5.425  0.00  0.00    -0.301 NA
ATOM     28  H   UNK    1       26.151 -26.693   4.683  0.00  0.00    +0.123 HD
BRANCH  27  29
ATOM     29  C   UNK    1       25.312 -28.444   5.297  0.00  0.00    +0.082 C 
BRANCH  29  30
ATOM     30  C   UNK    1       24.300 -28.612   6.442  0.00  0.00    +0.015 C 
BRANCH  30  31
ATOM     31  C   UNK    1       24.335 -29.949   7.215  0.00  0.00    +0.003 C 
BRANCH  31  32
ATOM     32  C   UNK    1       24.241 -31.243   6.382  0.00  0.00    +0.030 C 
BRANCH  32  33
ATOM     33  C   UNK    1       25.467 -32.156   6.397  0.00  0.00    +0.161 C 
BRANCH  33  34
ATOM     34  N   UNK    1       26.584 -31.487   7.134  0.00  0.00    -0.318 NA
ATOM     35  H   UNK    1       26.546 -30.486   6.924  0.00  0.00    +0.119 HD
ATOM     36  H   UNK    1       27.463 -31.796   6.711  0.00  0.00    +0.119 HD
ENDBRANCH  33  34
BRANCH  33  37
ATOM     37  C   UNK    1       25.954 -32.405   4.953  0.00  0.00    +0.322 C 
ATOM     38  O   UNK    1       26.881 -33.165   4.630  0.00  0.00    -0.249 OA
BRANCH  37  39
ATOM     39  O   UNK    1       25.230 -31.712   4.042  0.00  0.00    -0.479 OA
ATOM     40  H   UNK    1       24.398 -31.446   4.508  0.00  0.00    +0.295 HD
ENDBRANCH  37  39
ENDBRANCH  33  37
ENDBRANCH  32  33
ENDBRANCH  31  32
ENDBRANCH  30  31
ENDBRANCH  29  30
ENDBRANCH  27  29
ENDBRANCH  26  27
ENDBRANCH  23  26
ENDBRANCH  19  22
BRANCH   1  42
ATOM     41  C   UNK    1       23.549 -18.940   3.861  0.00  0.00    +0.105 C 
ATOM     42  N   UNK    1       23.519 -20.230   4.559  0.00  0.00    -0.298 NA
ATOM     43  C   UNK    1       22.594 -20.135   5.698  0.00  0.00    +0.105 C 
ENDBRANCH   1  42
BRANCH  21  44
ATOM     44  O   UNK    1       23.893 -22.890   3.960  0.00  0.00    -0.509 OA
ATOM     45  H   UNK    1       23.419 -23.617   4.424  0.00  0.00    +0.292 HD
ENDBRANCH  21  44
BRANCH  11  46
ATOM     46  O   UNK    1       29.784 -17.603  11.220  0.00  0.00    -0.506 OA
ATOM     47  H   UNK    1       30.088 -16.700  11.463  0.00  0.00    +0.292 HD
ENDBRANCH  11  46
BRANCH   7  48
ATOM     48  O   UNK    1       29.891 -21.175   7.074  0.00  0.00    -0.384 OA
ATOM     49  H   UNK    1       30.041 -21.733   6.285  0.00  0.00    +0.211 HD
ENDBRANCH   7  48
BRANCH   4  50
ATOM     50  O   UNK    1       25.974 -20.605   9.610  0.00  0.00    -0.507 OA
ATOM     51  H   UNK    1       25.101 -20.151   9.659  0.00  0.00    +0.292 HD
ENDBRANCH   4  50
BRANCH   3  52
ATOM     52  O   UNK    1       24.325 -21.033   7.698  0.00  0.00    -0.373 OA
ATOM     53  H   UNK    1       23.802 -21.424   6.966  0.00  0.00    +0.211 HD
ENDBRANCH   3  52
TORSDOF 17
ENDMDL
MODEL 9
REMARK VINA RESULT:      -5.5      4.570      8.917
REMARK  Name = *****
REMARK                            x       y       z     vdW  Elec       q    Type
REMARK                         _______ _______ _______ _____ _____    ______ ____
ROOT
ATOM      1  C   UNK    1       25.563 -27.436  12.633  0.00  0.00    +0.129 C 
ATOM      2  C   UNK    1       25.989 -28.556  11.615  0.00  0.00    +0.061 C 
ATOM      3  C   UNK    1       25.415 -29.908  12.060  0.00  0.00    +0.190 C 
ATOM      4  C   UNK    1       25.821 -31.003  11.109  0.00  0.00    +0.141 C 
ATOM      5  C   UNK    1       26.079 -30.768   9.811  0.00  0.00    +0.047 C 
ATOM      6  C   UNK    1       25.949 -29.419   9.139  0.00  0.00    +0.062 C 
ATOM      7  C   UNK    1       25.057 -29.593   7.853  0.00  0.00    +0.096 C 
ATOM      8  C   UNK    1       24.828 -28.249   7.142  0.00  0.00    +0.047 C 
ATOM      9  C   UNK    1       25.689 -30.656   6.933  0.00  0.00    -0.002 A 
ATOM     10  C   UNK    1       26.387 -31.752   7.490  0.00  0.00    +0.069 A 
ATOM     11  C   UNK    1       26.955 -32.743   6.668  0.00  0.00    +0.128 A 
ATOM     12  C   UNK    1       26.839 -32.671   5.289  0.00  0.00    +0.046 A 
ATOM     13  C   UNK    1       26.133 -31.618   4.720  0.00  0.00    +0.004 A 
ATOM     14  C   UNK    1       25.559 -30.628   5.530  0.00  0.00    +0.007 A 
ATOM     15  C   UNK    1       26.504 -31.901   8.954  0.00  0.00    +0.197 C 
ATOM     16  O   UNK    1       26.950 -32.938   9.446  0.00  0.00    -0.287 OA
ATOM     17  C   UNK    1       23.889 -29.690  12.047  0.00  0.00    +0.210 C 
ATOM     18  O   UNK    1       23.175 -30.032  11.099  0.00  0.00    -0.288 OA
ATOM     19  C   UNK    1       23.385 -28.750  13.088  0.00  0.00    +0.121 C 
ATOM     20  C   UNK    1       25.538 -28.275  10.133  0.00  0.00    +0.020 C 
ATOM     21  C   UNK    1       24.187 -27.681  13.305  0.00  0.00    +0.127 C 
ENDROOT
BRANCH  19  22
ATOM     22  C   UNK    1       22.093 -29.050  13.780  0.00  0.00    +0.252 C 
ATOM     23  N   UNK    1       21.620 -30.328  13.643  0.00  0.00    -0.299 N 
ATOM     24  H   UNK    1       22.203 -31.004  13.163  0.00  0.00    +0.150 HD
ATOM     25  O   UNK    1       21.492 -28.189  14.417  0.00  0.00    -0.270 OA
BRANCH  23  26
ATOM     26  C   UNK    1       20.490 -30.799  14.364  0.00  0.00    +0.189 C 
BRANCH  26  27
ATOM     27  N   UNK    1       20.723 -32.218  14.501  0.00  0.00    -0.301 NA
ATOM     28  H   UNK    1       21.508 -32.488  13.925  0.00  0.00    +0.123 HD
BRANCH  27  29
ATOM     29  C   UNK    1       19.562 -33.035  14.170  0.00  0.00    +0.082 C 
BRANCH  29  30
ATOM     30  C   UNK    1       18.198 -32.327  14.130  0.00  0.00    +0.015 C 
BRANCH  30  31
ATOM     31  C   UNK    1       17.223 -32.750  13.010  0.00  0.00    +0.003 C 
BRANCH  31  32
ATOM     32  C   UNK    1       17.713 -32.589  11.557  0.00  0.00    +0.030 C 
BRANCH  32  33
ATOM     33  C   UNK    1       18.218 -31.202  11.156  0.00  0.00    +0.161 C 
BRANCH  33  34
ATOM     34  N   UNK    1       17.646 -30.823   9.827  0.00  0.00    -0.318 NA
ATOM     35  H   UNK    1       17.808 -31.599   9.180  0.00  0.00    +0.119 HD
ATOM     36  H   UNK    1       18.216 -30.063   9.449  0.00  0.00    +0.119 HD
ENDBRANCH  33  34
BRANCH  33  37
ATOM     37  C   UNK    1       19.753 -31.225  11.005  0.00  0.00    +0.322 C 
ATOM     38  O   UNK    1       20.472 -32.229  11.138  0.00  0.00    -0.249 OA
BRANCH  37  39
ATOM     39  O   UNK    1       20.255 -30.010  10.678  0.00  0.00    -0.479 OA
ATOM     40  H   UNK    1       19.468 -29.435  10.501  0.00  0.00    +0.295 HD
ENDBRANCH  37  39
ENDBRANCH  33  37
ENDBRANCH  32  33
ENDBRANCH  31  32
ENDBRANCH  30  31
ENDBRANCH  29  30
ENDBRANCH  27  29
ENDBRANCH  26  27
ENDBRANCH  23  26
ENDBRANCH  19  22
BRANCH   1  42
ATOM     41  C   UNK    1       26.973 -25.602  13.552  0.00  0.00    +0.105 C 
ATOM     42  N   UNK    1       26.540 -26.998  13.686  0.00  0.00    -0.298 NA
ATOM     43  C   UNK    1       27.723 -27.846  13.898  0.00  0.00    +0.105 C 
ENDBRANCH   1  42
BRANCH  21  44
ATOM     44  O   UNK    1       23.864 -26.719  14.264  0.00  0.00    -0.509 OA
ATOM     45  H   UNK    1       23.721 -27.227  15.095  0.00  0.00    +0.292 HD
ENDBRANCH  21  44
BRANCH  11  46
ATOM     46  O   UNK    1       27.645 -33.825   7.152  0.00  0.00    -0.506 OA
ATOM     47  H   UNK    1       28.242 -34.149   6.441  0.00  0.00    +0.292 HD
ENDBRANCH  11  46
BRANCH   7  48
ATOM     48  O   UNK    1       23.759 -30.107   8.171  0.00  0.00    -0.384 OA
ATOM     49  H   UNK    1       23.771 -31.079   8.272  0.00  0.00    +0.211 HD
ENDBRANCH   7  48
BRANCH   4  50
ATOM     50  O   UNK    1       25.984 -32.242  11.719  0.00  0.00    -0.507 OA
ATOM     51  H   UNK    1       25.454 -32.905  11.219  0.00  0.00    +0.292 HD
ENDBRANCH   4  50
BRANCH   3  52
ATOM     52  O   UNK    1       25.917 -30.259  13.338  0.00  0.00    -0.373 OA
ATOM     53  H   UNK    1       26.214 -31.190  13.260  0.00  0.00    +0.211 HD
ENDBRANCH   3  52
TORSDOF 17
ENDMDL
