MODEL 1
REMARK VINA RESULT:      -4.8      0.000      0.000
REMARK  Name = *****
REMARK                            x       y       z     vdW  Elec       q    Type
REMARK                         _______ _______ _______ _____ _____    ______ ____
ROOT
ATOM      1  C   LIG    1       21.637 -16.905   4.803  0.00  0.00    +0.044 C 
ATOM      2  C   LIG    1       23.051 -16.654   4.340  0.00  0.00    -0.046 A 
ATOM      3  C   LIG    1       23.899 -17.698   3.908  0.00  0.00    -0.027 A 
ATOM      4  C   LIG    1       25.208 -17.373   3.477  0.00  0.00    -0.005 A 
ATOM      5  C   LIG    1       26.161 -18.425   2.959  0.00  0.00    +0.048 C 
ATOM      6  C   LIG    1       25.647 -16.028   3.544  0.00  0.00    +0.124 A 
ATOM      7  C   LIG    1       24.812 -14.965   3.928  0.00  0.00    -0.000 A 
ATOM      8  C   LIG    1       23.512 -15.322   4.326  0.00  0.00    +0.011 A 
ENDROOT
BRANCH   7   9
ATOM      9  C   LIG    1       25.271 -13.488   3.901  0.00  0.00    -0.009 C 
ATOM     10  C   LIG    1       25.720 -13.096   2.473  0.00  0.00    +0.016 C 
ATOM     11  C   LIG    1       26.432 -13.229   4.886  0.00  0.00    +0.016 C 
ATOM     12  C   LIG    1       24.149 -12.492   4.293  0.00  0.00    +0.016 C 
ENDBRANCH   7   9
BRANCH   6  13
ATOM     13  O   LIG    1       26.950 -15.749   3.221  0.00  0.00    -0.506 OA
ATOM     14  H   LIG    1       27.083 -14.798   3.372  0.00  0.00    +0.292 HD
ENDBRANCH   6  13
BRANCH   3  15
ATOM     15  C   LIG    1       23.392 -19.131   3.874  0.00  0.00    +0.163 C 
BRANCH  15  16
ATOM     16  C   LIG    1       23.680 -19.950   5.118  0.00  0.00    +0.285 C 
ATOM     17  N   LIG    1       24.901 -20.526   5.385  0.00  0.00    -0.234 N 
ATOM     18  H   LIG    1       25.520 -20.742   4.613  0.00  0.00    +0.291 HD
ATOM     19  C   LIG    1       24.719 -21.486   6.444  0.00  0.00    +0.272 C 
ATOM     20  C   LIG    1       23.407 -20.986   7.056  0.00  0.00    +0.333 C 
ATOM     21  N   LIG    1       22.737 -20.173   5.996  0.00  0.00    -0.084 NA
ENDBRANCH  15  16
ENDBRANCH   3  15
TORSDOF 4
ENDMDL
MODEL 2
REMARK VINA RESULT:      -4.4      1.152      2.546
REMARK  Name = *****
REMARK                            x       y       z     vdW  Elec       q    Type
REMARK                         _______ _______ _______ _____ _____    ______ ____
ROOT
ATOM      1  C   LIG    1       26.103 -18.930   2.899  0.00  0.00    +0.044 C 
ATOM      2  C   LIG    1       25.365 -17.695   3.353  0.00  0.00    -0.046 A 
ATOM      3  C   LIG    1       24.032 -17.743   3.820  0.00  0.00    -0.027 A 
ATOM      4  C   LIG    1       23.418 -16.539   4.240  0.00  0.00    -0.005 A 
ATOM      5  C   LIG    1       22.012 -16.511   4.793  0.00  0.00    +0.048 C 
ATOM      6  C   LIG    1       24.131 -15.320   4.127  0.00  0.00    +0.124 A 
ATOM      7  C   LIG    1       25.470 -15.249   3.708  0.00  0.00    -0.000 A 
ATOM      8  C   LIG    1       26.055 -16.467   3.322  0.00  0.00    +0.011 A 
ENDROOT
BRANCH   7   9
ATOM      9  C   LIG    1       26.271 -13.925   3.685  0.00  0.00    -0.009 C 
ATOM     10  C   LIG    1       26.231 -13.254   5.078  0.00  0.00    +0.016 C 
ATOM     11  C   LIG    1       25.721 -12.939   2.631  0.00  0.00    +0.016 C 
ATOM     12  C   LIG    1       27.770 -14.125   3.342  0.00  0.00    +0.016 C 
ENDBRANCH   7   9
BRANCH   6  13
ATOM     13  O   LIG    1       23.483 -14.152   4.441  0.00  0.00    -0.506 OA
ATOM     14  H   LIG    1       22.661 -14.136   3.923  0.00  0.00    +0.292 HD
ENDBRANCH   6  13
BRANCH   3  15
ATOM     15  C   LIG    1       23.297 -19.071   3.902  0.00  0.00    +0.163 C 
BRANCH  15  16
ATOM     16  C   LIG    1       23.629 -19.922   5.113  0.00  0.00    +0.285 C 
ATOM     17  N   LIG    1       24.823 -20.586   5.274  0.00  0.00    -0.234 N 
ATOM     18  H   LIG    1       25.358 -20.837   4.451  0.00  0.00    +0.291 HD
ATOM     19  C   LIG    1       24.662 -21.542   6.339  0.00  0.00    +0.272 C 
ATOM     20  C   LIG    1       23.445 -20.957   7.062  0.00  0.00    +0.333 C 
ATOM     21  N   LIG    1       22.749 -20.086   6.066  0.00  0.00    -0.084 NA
ENDBRANCH  15  16
ENDBRANCH   3  15
TORSDOF 4
ENDMDL
MODEL 3
REMARK VINA RESULT:      -2.0      2.660      5.850
REMARK  Name = *****
REMARK                            x       y       z     vdW  Elec       q    Type
REMARK                         _______ _______ _______ _____ _____    ______ ____
ROOT
ATOM      1  C   LIG    1       21.718 -15.832   5.124  0.00  0.00    +0.044 C 
ATOM      2  C   LIG    1       22.864 -16.672   4.617  0.00  0.00    -0.046 A 
ATOM      3  C   LIG    1       24.007 -16.101   4.013  0.00  0.00    -0.027 A 
ATOM      4  C   LIG    1       25.044 -16.961   3.578  0.00  0.00    -0.005 A 
ATOM      5  C   LIG    1       26.317 -16.428   2.964  0.00  0.00    +0.048 C 
ATOM      6  C   LIG    1       24.883 -18.363   3.706  0.00  0.00    +0.124 A 
ATOM      7  C   LIG    1       23.778 -18.955   4.340  0.00  0.00    -0.000 A 
ATOM      8  C   LIG    1       22.779 -18.069   4.782  0.00  0.00    +0.011 A 
ENDROOT
BRANCH   7   9
ATOM      9  C   LIG    1       23.659 -20.481   4.565  0.00  0.00    -0.009 C 
ATOM     10  C   LIG    1       22.222 -20.844   5.006  0.00  0.00    +0.016 C 
ATOM     11  C   LIG    1       24.659 -20.984   5.631  0.00  0.00    +0.016 C 
ATOM     12  C   LIG    1       23.945 -21.312   3.287  0.00  0.00    +0.016 C 
ENDBRANCH   7   9
BRANCH   6  13
ATOM     13  O   LIG    1       25.851 -19.182   3.184  0.00  0.00    -0.506 OA
ATOM     14  H   LIG    1       25.418 -20.021   2.951  0.00  0.00    +0.292 HD
ENDBRANCH   6  13
BRANCH   3  15
ATOM     15  C   LIG    1       24.127 -14.592   3.876  0.00  0.00    +0.163 C 
BRANCH  15  16
ATOM     16  C   LIG    1       25.511 -14.026   4.130  0.00  0.00    +0.285 C 
ATOM     17  N   LIG    1       26.328 -13.535   3.137  0.00  0.00    -0.234 N 
ATOM     18  H   LIG    1       26.200 -13.869   2.189  0.00  0.00    +0.291 HD
ATOM     19  C   LIG    1       27.657 -13.406   3.676  0.00  0.00    +0.272 C 
ATOM     20  C   LIG    1       27.352 -13.379   5.176  0.00  0.00    +0.333 C 
ATOM     21  N   LIG    1       26.009 -14.013   5.339  0.00  0.00    -0.084 NA
ENDBRANCH  15  16
ENDBRANCH   3  15
TORSDOF 4
ENDMDL
