MODEL 1
REMARK VINA RESULT:      -7.3      0.000      0.000
REMARK  Name = *****
REMARK                            x       y       z     vdW  Elec       q    Type
REMARK                         _______ _______ _______ _____ _____    ______ ____
ROOT
ATOM      1  N   LIG    1       27.475 -20.436   7.426  0.00  0.00    -0.221 N 
ATOM      2  C   LIG    1       27.041 -20.385   6.017  0.00  0.00    +0.223 C 
ATOM      3  C   LIG    1       25.531 -20.415   5.860  0.00  0.00    -0.013 A 
ATOM      4  C   LIG    1       24.681 -20.749   6.929  0.00  0.00    -0.039 A 
ATOM      5  C   LIG    1       23.292 -20.769   6.737  0.00  0.00    +0.004 A 
ATOM      6  C   LIG    1       22.750 -20.486   5.484  0.00  0.00    +0.000 A 
ATOM      7  C   LIG    1       23.588 -20.176   4.416  0.00  0.00    +0.000 A 
ATOM      8  C   LIG    1       25.258 -21.024   8.292  0.00  0.00    +0.070 C 
ATOM      9  C   LIG    1       24.971 -20.141   4.602  0.00  0.00    +0.007 A 
ATOM     10  C   LIG    1       26.730 -21.430   8.211  0.00  0.00    +0.192 C 
ENDROOT
BRANCH   1  13
ATOM     11  N   LIG    1       29.241 -19.339   8.512  0.00  0.00    -0.134 NA
ATOM     12  H   LIG    1       30.261 -19.349   8.510  0.00  0.00    +0.306 HD
ATOM     13  C   LIG    1       28.801 -20.209   7.672  0.00  0.00    +0.362 C 
BRANCH  13  14
ATOM     14  N   LIG    1       29.643 -21.021   6.996  0.00  0.00    -0.252 N 
ATOM     15  H   LIG    1       29.665 -21.952   7.394  0.00  0.00    +0.241 HD
ATOM     16  H   LIG    1       30.579 -20.657   6.879  0.00  0.00    +0.241 HD
ENDBRANCH  13  14
ENDBRANCH   1  13
TORSDOF 2
ENDMDL
MODEL 2
REMARK VINA RESULT:      -7.2      2.062      2.536
REMARK  Name = *****
REMARK                            x       y       z     vdW  Elec       q    Type
REMARK                         _______ _______ _______ _____ _____    ______ ____
ROOT
ATOM      1  N   LIG    1       27.101 -21.088   7.535  0.00  0.00    -0.221 N 
ATOM      2  C   LIG    1       26.983 -22.544   7.325  0.00  0.00    +0.223 C 
ATOM      3  C   LIG    1       25.554 -22.995   7.082  0.00  0.00    -0.013 A 
ATOM      4  C   LIG    1       24.458 -22.148   7.325  0.00  0.00    -0.039 A 
ATOM      5  C   LIG    1       23.154 -22.608   7.091  0.00  0.00    +0.004 A 
ATOM      6  C   LIG    1       22.936 -23.910   6.645  0.00  0.00    +0.000 A 
ATOM      7  C   LIG    1       24.016 -24.761   6.423  0.00  0.00    +0.000 A 
ATOM      8  C   LIG    1       24.688 -20.730   7.776  0.00  0.00    +0.070 C 
ATOM      9  C   LIG    1       25.318 -24.306   6.640  0.00  0.00    +0.007 A 
ATOM     10  C   LIG    1       26.061 -20.560   8.428  0.00  0.00    +0.192 C 
ENDROOT
BRANCH   1  13
ATOM     11  N   LIG    1       28.734 -19.597   8.317  0.00  0.00    -0.134 NA
ATOM     12  H   LIG    1       29.716 -19.383   8.145  0.00  0.00    +0.306 HD
ATOM     13  C   LIG    1       28.366 -20.569   7.557  0.00  0.00    +0.362 C 
BRANCH  13  14
ATOM     14  N   LIG    1       29.245 -21.196   6.745  0.00  0.00    -0.252 N 
ATOM     15  H   LIG    1       29.999 -20.582   6.466  0.00  0.00    +0.241 HD
ATOM     16  H   LIG    1       28.830 -21.648   5.942  0.00  0.00    +0.241 HD
ENDBRANCH  13  14
ENDBRANCH   1  13
TORSDOF 2
ENDMDL
MODEL 3
REMARK VINA RESULT:      -7.2      1.142      1.237
REMARK  Name = *****
REMARK                            x       y       z     vdW  Elec       q    Type
REMARK                         _______ _______ _______ _____ _____    ______ ____
ROOT
ATOM      1  N   LIG    1       28.229 -19.937   6.764  0.00  0.00    -0.221 N 
ATOM      2  C   LIG    1       27.412 -20.075   5.544  0.00  0.00    +0.223 C 
ATOM      3  C   LIG    1       25.945 -20.332   5.838  0.00  0.00    -0.013 A 
ATOM      4  C   LIG    1       25.497 -20.686   7.124  0.00  0.00    -0.039 A 
ATOM      5  C   LIG    1       24.133 -20.920   7.349  0.00  0.00    +0.004 A 
ATOM      6  C   LIG    1       23.221 -20.831   6.299  0.00  0.00    +0.000 A 
ATOM      7  C   LIG    1       23.660 -20.502   5.019  0.00  0.00    +0.000 A 
ATOM      8  C   LIG    1       26.473 -20.753   8.268  0.00  0.00    +0.070 C 
ATOM      9  C   LIG    1       25.014 -20.255   4.790  0.00  0.00    +0.007 A 
ATOM     10  C   LIG    1       27.908 -20.952   7.777  0.00  0.00    +0.192 C 
ENDROOT
BRANCH   1  13
ATOM     11  N   LIG    1       29.844 -18.455   5.929  0.00  0.00    -0.134 NA
ATOM     12  H   LIG    1       30.858 -18.346   5.942  0.00  0.00    +0.306 HD
ATOM     13  C   LIG    1       29.516 -19.504   6.599  0.00  0.00    +0.362 C 
BRANCH  13  14
ATOM     14  N   LIG    1       30.443 -20.239   7.251  0.00  0.00    -0.252 N 
ATOM     15  H   LIG    1       30.222 -21.227   7.224  0.00  0.00    +0.241 HD
ATOM     16  H   LIG    1       30.635 -19.937   8.196  0.00  0.00    +0.241 HD
ENDBRANCH  13  14
ENDBRANCH   1  13
TORSDOF 2
ENDMDL
MODEL 4
REMARK VINA RESULT:      -7.2      4.144      4.926
REMARK  Name = *****
REMARK                            x       y       z     vdW  Elec       q    Type
REMARK                         _______ _______ _______ _____ _____    ______ ____
ROOT
ATOM      1  N   LIG    1       25.499 -25.542   6.544  0.00  0.00    -0.221 N 
ATOM      2  C   LIG    1       26.242 -24.268   6.580  0.00  0.00    +0.223 C 
ATOM      3  C   LIG    1       25.364 -23.078   6.923  0.00  0.00    -0.013 A 
ATOM      4  C   LIG    1       23.960 -23.165   6.912  0.00  0.00    -0.039 A 
ATOM      5  C   LIG    1       23.188 -22.039   7.231  0.00  0.00    +0.004 A 
ATOM      6  C   LIG    1       23.804 -20.825   7.531  0.00  0.00    +0.000 A 
ATOM      7  C   LIG    1       25.193 -20.726   7.522  0.00  0.00    +0.000 A 
ATOM      8  C   LIG    1       23.290 -24.481   6.620  0.00  0.00    +0.070 C 
ATOM      9  C   LIG    1       25.969 -21.846   7.219  0.00  0.00    +0.007 A 
ATOM     10  C   LIG    1       24.212 -25.425   5.846  0.00  0.00    +0.192 C 
ENDROOT
BRANCH   1  13
ATOM     11  N   LIG    1       27.091 -26.918   5.507  0.00  0.00    -0.134 NA
ATOM     12  H   LIG    1       27.508 -27.838   5.644  0.00  0.00    +0.306 HD
ATOM     13  C   LIG    1       26.241 -26.687   6.446  0.00  0.00    +0.362 C 
BRANCH  13  14
ATOM     14  N   LIG    1       26.058 -27.562   7.459  0.00  0.00    -0.252 N 
ATOM     15  H   LIG    1       25.201 -27.374   7.964  0.00  0.00    +0.241 HD
ATOM     16  H   LIG    1       26.840 -27.645   8.093  0.00  0.00    +0.241 HD
ENDBRANCH  13  14
ENDBRANCH   1  13
TORSDOF 2
ENDMDL
MODEL 5
REMARK VINA RESULT:      -7.1      1.517      3.114
REMARK  Name = *****
REMARK                            x       y       z     vdW  Elec       q    Type
REMARK                         _______ _______ _______ _____ _____    ______ ____
ROOT
ATOM      1  N   LIG    1       29.769 -19.826   7.204  0.00  0.00    -0.221 N 
ATOM      2  C   LIG    1       28.709 -20.037   8.208  0.00  0.00    +0.223 C 
ATOM      3  C   LIG    1       27.353 -20.321   7.588  0.00  0.00    -0.013 A 
ATOM      4  C   LIG    1       27.104 -20.111   6.220  0.00  0.00    -0.039 A 
ATOM      5  C   LIG    1       25.834 -20.382   5.691  0.00  0.00    +0.004 A 
ATOM      6  C   LIG    1       24.807 -20.833   6.519  0.00  0.00    +0.000 A 
ATOM      7  C   LIG    1       25.042 -21.022   7.879  0.00  0.00    +0.000 A 
ATOM      8  C   LIG    1       28.216 -19.655   5.314  0.00  0.00    +0.070 C 
ATOM      9  C   LIG    1       26.306 -20.768   8.411  0.00  0.00    +0.007 A 
ATOM     10  C   LIG    1       29.335 -18.964   6.096  0.00  0.00    +0.192 C 
ENDROOT
BRANCH   1  13
ATOM     11  N   LIG    1       31.800 -18.720   7.597  0.00  0.00    -0.134 NA
ATOM     12  H   LIG    1       32.715 -18.926   7.997  0.00  0.00    +0.306 HD
ATOM     13  C   LIG    1       31.055 -19.767   7.666  0.00  0.00    +0.362 C 
BRANCH  13  14
ATOM     14  N   LIG    1       31.486 -20.897   8.268  0.00  0.00    -0.252 N 
ATOM     15  H   LIG    1       30.735 -21.373   8.751  0.00  0.00    +0.241 HD
ATOM     16  H   LIG    1       32.286 -20.775   8.874  0.00  0.00    +0.241 HD
ENDBRANCH  13  14
ENDBRANCH   1  13
TORSDOF 2
ENDMDL
MODEL 6
REMARK VINA RESULT:      -6.8      1.277      2.600
REMARK  Name = *****
REMARK                            x       y       z     vdW  Elec       q    Type
REMARK                         _______ _______ _______ _____ _____    ______ ____
ROOT
ATOM      1  N   LIG    1       29.037 -20.608   7.494  0.00  0.00    -0.221 N 
ATOM      2  C   LIG    1       27.793 -20.713   8.281  0.00  0.00    +0.223 C 
ATOM      3  C   LIG    1       26.542 -20.680   7.422  0.00  0.00    -0.013 A 
ATOM      4  C   LIG    1       26.582 -20.297   6.069  0.00  0.00    -0.039 A 
ATOM      5  C   LIG    1       25.400 -20.276   5.314  0.00  0.00    +0.004 A 
ATOM      6  C   LIG    1       24.181 -20.605   5.905  0.00  0.00    +0.000 A 
ATOM      7  C   LIG    1       24.132 -20.964   7.249  0.00  0.00    +0.000 A 
ATOM      8  C   LIG    1       27.899 -19.971   5.418  0.00  0.00    +0.070 C 
ATOM      9  C   LIG    1       25.306 -21.001   8.004  0.00  0.00    +0.007 A 
ATOM     10  C   LIG    1       28.958 -19.578   6.450  0.00  0.00    +0.192 C 
ENDROOT
BRANCH   1  13
ATOM     11  N   LIG    1       30.333 -21.646   9.151  0.00  0.00    -0.134 NA
ATOM     12  H   LIG    1       31.297 -21.633   9.484  0.00  0.00    +0.306 HD
ATOM     13  C   LIG    1       30.210 -20.833   8.160  0.00  0.00    +0.362 C 
BRANCH  13  14
ATOM     14  N   LIG    1       31.274 -20.169   7.660  0.00  0.00    -0.252 N 
ATOM     15  H   LIG    1       31.268 -19.194   7.933  0.00  0.00    +0.241 HD
ATOM     16  H   LIG    1       31.402 -20.264   6.662  0.00  0.00    +0.241 HD
ENDBRANCH  13  14
ENDBRANCH   1  13
TORSDOF 2
ENDMDL
MODEL 7
REMARK VINA RESULT:      -6.6      2.361      4.661
REMARK  Name = *****
REMARK                            x       y       z     vdW  Elec       q    Type
REMARK                         _______ _______ _______ _____ _____    ______ ____
ROOT
ATOM      1  N   LIG    1       25.516 -21.445   5.979  0.00  0.00    -0.221 N 
ATOM      2  C   LIG    1       26.285 -20.406   5.269  0.00  0.00    +0.223 C 
ATOM      3  C   LIG    1       27.511 -19.945   6.037  0.00  0.00    -0.013 A 
ATOM      4  C   LIG    1       27.704 -20.272   7.391  0.00  0.00    -0.039 A 
ATOM      5  C   LIG    1       28.849 -19.821   8.063  0.00  0.00    +0.004 A 
ATOM      6  C   LIG    1       29.784 -19.025   7.404  0.00  0.00    +0.000 A 
ATOM      7  C   LIG    1       29.587 -18.679   6.069  0.00  0.00    +0.000 A 
ATOM      8  C   LIG    1       26.714 -21.158   8.100  0.00  0.00    +0.070 C 
ATOM      9  C   LIG    1       28.457 -19.135   5.389  0.00  0.00    +0.007 A 
ATOM     10  C   LIG    1       25.349 -21.147   7.408  0.00  0.00    +0.192 C 
ENDROOT
BRANCH   1  13
ATOM     11  N   LIG    1       23.431 -21.481   4.905  0.00  0.00    -0.134 NA
ATOM     12  H   LIG    1       22.841 -22.148   4.409  0.00  0.00    +0.306 HD
ATOM     13  C   LIG    1       24.517 -22.063   5.278  0.00  0.00    +0.362 C 
BRANCH  13  14
ATOM     14  N   LIG    1       24.777 -23.346   4.945  0.00  0.00    -0.252 N 
ATOM     15  H   LIG    1       24.816 -23.943   5.762  0.00  0.00    +0.241 HD
ATOM     16  H   LIG    1       25.594 -23.475   4.364  0.00  0.00    +0.241 HD
ENDBRANCH  13  14
ENDBRANCH   1  13
TORSDOF 2
ENDMDL
MODEL 8
REMARK VINA RESULT:      -6.5      3.600      3.832
REMARK  Name = *****
REMARK                            x       y       z     vdW  Elec       q    Type
REMARK                         _______ _______ _______ _____ _____    ______ ____
ROOT
ATOM      1  N   LIG    1       24.578 -23.288   5.953  0.00  0.00    -0.221 N 
ATOM      2  C   LIG    1       24.639 -22.606   4.646  0.00  0.00    +0.223 C 
ATOM      3  C   LIG    1       23.990 -21.234   4.662  0.00  0.00    -0.013 A 
ATOM      4  C   LIG    1       23.175 -20.811   5.728  0.00  0.00    -0.039 A 
ATOM      5  C   LIG    1       22.592 -19.536   5.699  0.00  0.00    +0.004 A 
ATOM      6  C   LIG    1       22.791 -18.696   4.604  0.00  0.00    +0.000 A 
ATOM      7  C   LIG    1       23.579 -19.117   3.536  0.00  0.00    +0.000 A 
ATOM      8  C   LIG    1       22.982 -21.702   6.927  0.00  0.00    +0.070 C 
ATOM      9  C   LIG    1       24.174 -20.379   3.564  0.00  0.00    +0.007 A 
ATOM     10  C   LIG    1       23.260 -23.168   6.592  0.00  0.00    +0.192 C 
ENDROOT
BRANCH   1  13
ATOM     11  N   LIG    1       25.932 -24.774   7.162  0.00  0.00    -0.134 NA
ATOM     12  H   LIG    1       26.414 -25.660   7.012  0.00  0.00    +0.306 HD
ATOM     13  C   LIG    1       25.312 -24.435   6.086  0.00  0.00    +0.362 C 
BRANCH  13  14
ATOM     14  N   LIG    1       25.299 -25.237   5.000  0.00  0.00    -0.252 N 
ATOM     15  H   LIG    1       24.807 -24.810   4.225  0.00  0.00    +0.241 HD
ATOM     16  H   LIG    1       24.961 -26.174   5.170  0.00  0.00    +0.241 HD
ENDBRANCH  13  14
ENDBRANCH   1  13
TORSDOF 2
ENDMDL
MODEL 9
REMARK VINA RESULT:      -6.5      3.049      4.158
REMARK  Name = *****
REMARK                            x       y       z     vdW  Elec       q    Type
REMARK                         _______ _______ _______ _____ _____    ______ ____
ROOT
ATOM      1  N   LIG    1       24.423 -22.683   6.023  0.00  0.00    -0.221 N 
ATOM      2  C   LIG    1       23.181 -21.887   6.054  0.00  0.00    +0.223 C 
ATOM      3  C   LIG    1       23.275 -20.609   5.240  0.00  0.00    -0.013 A 
ATOM      4  C   LIG    1       24.506 -20.120   4.766  0.00  0.00    -0.039 A 
ATOM      5  C   LIG    1       24.546 -18.932   4.022  0.00  0.00    +0.004 A 
ATOM      6  C   LIG    1       23.376 -18.216   3.774  0.00  0.00    +0.000 A 
ATOM      7  C   LIG    1       22.157 -18.683   4.260  0.00  0.00    +0.000 A 
ATOM      8  C   LIG    1       25.769 -20.905   5.003  0.00  0.00    +0.070 C 
ATOM      9  C   LIG    1       22.107 -19.872   4.990  0.00  0.00    +0.007 A 
ATOM     10  C   LIG    1       25.627 -21.858   6.191  0.00  0.00    +0.192 C 
ENDROOT
BRANCH   1  13
ATOM     11  N   LIG    1       23.296 -24.661   6.590  0.00  0.00    -0.134 NA
ATOM     12  H   LIG    1       23.501 -25.551   7.044  0.00  0.00    +0.306 HD
ATOM     13  C   LIG    1       24.363 -23.941   6.556  0.00  0.00    +0.362 C 
BRANCH  13  14
ATOM     14  N   LIG    1       25.545 -24.415   7.007  0.00  0.00    -0.252 N 
ATOM     15  H   LIG    1       26.313 -24.129   6.413  0.00  0.00    +0.241 HD
ATOM     16  H   LIG    1       25.566 -25.412   7.171  0.00  0.00    +0.241 HD
ENDBRANCH  13  14
ENDBRANCH   1  13
TORSDOF 2
ENDMDL
