REMARK  Name = *****
REMARK                            x       y       z     vdW  Elec       q    Type
REMARK                         _______ _______ _______ _____ _____    ______ ____
ROOT
ATOM      1  C   LIG    1        4.675  -0.009  -5.180  0.00  0.00    +0.081 C 
ENDROOT
BRANCH   1   2
ATOM      2  C   LIG    1        5.151   1.122  -6.076  0.00  0.00    +0.163 C 
ATOM      3  O   LIG    1        6.261   1.113  -6.582  0.00  0.00    -0.292 OA
BRANCH   2   4
ATOM      4  C   LIG    1        4.240   2.306  -6.293  0.00  0.00    +0.018 A 
ATOM      5  C   LIG    1        2.961   2.408  -5.710  0.00  0.00    +0.014 A 
ATOM      6  C   LIG    1        2.162   3.526  -5.948  0.00  0.00    +0.039 A 
ATOM      7  C   LIG    1        2.627   4.544  -6.769  0.00  0.00    +0.123 A 
ATOM      8  F   LIG    1        1.854   5.613  -6.994  0.00  0.00    -0.205 F 
ATOM      9  C   LIG    1        3.883   4.465  -7.359  0.00  0.00    +0.039 A 
ATOM     10  C   LIG    1        4.687   3.348  -7.119  0.00  0.00    +0.014 A 
ENDBRANCH   2   4
ENDBRANCH   1   2
BRANCH   1  11
ATOM     11  C   LIG    1        5.108   0.207  -3.731  0.00  0.00    +0.023 C 
BRANCH  11  12
ATOM     12  C   LIG    1        4.462  -0.795  -2.762  0.00  0.00    +0.085 C 
BRANCH  12  17
ATOM     13  C   LIG    1        0.747  -0.385   0.381  0.00  0.00    +0.007 C 
ATOM     14  C   LIG    1        2.261  -0.403   0.150  0.00  0.00    -0.012 C 
ATOM     15  C   LIG    1        2.706  -1.744  -0.452  0.00  0.00    +0.018 C 
ATOM     16  C   LIG    1        2.398  -1.832  -1.950  0.00  0.00    +0.085 C 
ATOM     17  N   LIG    1        2.988  -0.728  -2.730  0.00  0.00    -0.302 NA
ATOM     18  C   LIG    1        2.462   0.546  -2.220  0.00  0.00    +0.085 C 
ATOM     19  C   LIG    1        2.712   0.774  -0.728  0.00  0.00    +0.018 C 
ENDBRANCH  12  17
ENDBRANCH  11  12
ENDBRANCH   1  11
TORSDOF 5
