REMARK  Name = *****
REMARK                            x       y       z     vdW  Elec       q    Type
REMARK                         _______ _______ _______ _____ _____    ______ ____
ROOT
ATOM      1  C   LIG    1        9.895  -0.181  -8.173  0.00  0.00    +0.134 C 
ATOM      2  C   LIG    1        8.441  -0.526  -7.788  0.00  0.00    +0.079 C 
ATOM      3  C   LIG    1        8.151  -0.307  -6.296  0.00  0.00    +0.158 C 
ATOM      4  C   LIG    1        9.148  -1.121  -5.488  0.00  0.00    +0.030 A 
ATOM      5  C   LIG    1       10.459  -1.361  -5.957  0.00  0.00    +0.007 A 
ATOM      6  C   LIG    1       11.366  -2.028  -5.115  0.00  0.00    +0.132 A 
ATOM      7  C   LIG    1       10.985  -2.515  -3.852  0.00  0.00    +0.078 A 
ATOM      8  C   LIG    1       11.945  -3.161  -2.939  0.00  0.00    +0.198 C 
ATOM      9  O   LIG    1       13.139  -3.264  -3.230  0.00  0.00    -0.286 OA
ATOM     10  C   LIG    1       11.513  -3.604  -1.603  0.00  0.00    +0.037 A 
ATOM     11  C   LIG    1       10.182  -3.477  -1.189  0.00  0.00    +0.075 A 
ATOM     12  C   LIG    1        9.843  -3.801   0.142  0.00  0.00    +0.132 A 
ATOM     13  C   LIG    1       10.822  -4.343   0.988  0.00  0.00    +0.046 A 
ATOM     14  C   LIG    1       12.133  -4.510   0.551  0.00  0.00    +0.004 A 
ATOM     15  C   LIG    1        9.198  -3.008  -2.182  0.00  0.00    +0.202 C 
ATOM     16  O   LIG    1        7.980  -3.161  -2.031  0.00  0.00    -0.286 OA
ATOM     17  C   LIG    1       12.481  -4.123  -0.734  0.00  0.00    +0.012 A 
ATOM     18  C   LIG    1        9.658  -2.387  -3.446  0.00  0.00    +0.078 A 
ATOM     19  C   LIG    1        8.752  -1.688  -4.263  0.00  0.00    +0.135 A 
ATOM     20  C   LIG    1       10.854  -1.102  -7.410  0.00  0.00    +0.082 C 
ENDROOT
BRANCH   1  21
ATOM     21  O   LIG    1       10.224   1.174  -7.856  0.00  0.00    -0.381 OA
ATOM     22  H   LIG    1        9.646   1.449  -7.114  0.00  0.00    +0.211 HD
ENDBRANCH   1  21
BRANCH  19  23
ATOM     23  O   LIG    1        7.431  -1.552  -3.911  0.00  0.00    -0.506 OA
ATOM     24  H   LIG    1        7.247  -2.144  -3.144  0.00  0.00    +0.292 HD
ENDBRANCH  19  23
BRANCH   6  25
ATOM     25  O   LIG    1       12.624  -2.259  -5.603  0.00  0.00    -0.506 OA
ATOM     26  H   LIG    1       13.097  -1.408  -5.628  0.00  0.00    +0.292 HD
ENDBRANCH   6  25
BRANCH  12  27
ATOM     27  O   LIG    1        8.562  -3.568   0.581  0.00  0.00    -0.494 OA
ATOM     28  C   LIG    1        8.408  -3.400   1.991  0.00  0.00    +0.277 C 
ENDBRANCH  12  27
BRANCH   1  29
ATOM     29  C   LIG    1       10.050  -0.396  -9.701  0.00  0.00    +0.202 C 
ATOM     30  O   LIG    1        9.403  -1.269 -10.294  0.00  0.00    -0.291 OA
BRANCH  29  31
ATOM     31  C   LIG    1       11.034   0.500 -10.449  0.00  0.00    +0.309 C 
BRANCH  31  32
ATOM     32  O   LIG    1       11.444  -0.154 -11.661  0.00  0.00    -0.457 OA
BRANCH  32  33
ATOM     33  C   LIG    1       11.258   0.483 -12.815  0.00  0.00    +0.307 C 
ATOM     34  O   LIG    1       10.912   1.657 -12.908  0.00  0.00    -0.251 OA
BRANCH  33  35
ATOM     35  C   LIG    1       11.492  -0.416 -13.985  0.00  0.00    +0.120 C 
BRANCH  35  36
ATOM     36  C   LIG    1       12.487   0.157 -15.021  0.00  0.00    +0.011 C 
BRANCH  36  38
ATOM     37  C   LIG    1       13.024  -2.138 -15.999  0.00  0.00    +0.004 C 
ATOM     38  C   LIG    1       12.555  -0.716 -16.279  0.00  0.00    -0.003 C 
ENDBRANCH  36  38
ENDBRANCH  35  36
ENDBRANCH  33  35
ENDBRANCH  32  33
ENDBRANCH  31  32
ENDBRANCH  29  31
ENDBRANCH   1  29
BRANCH   3  39
ATOM     39  O   LIG    1        8.276   1.105  -6.038  0.00  0.00    -0.343 OA
BRANCH  39  40
ATOM     40  C   LIG    1        7.730   1.571  -4.787  0.00  0.00    +0.253 C 
ATOM     41  O   LIG    1        6.322   1.350  -4.674  0.00  0.00    -0.346 OA
ATOM     42  C   LIG    1        5.869   1.729  -3.360  0.00  0.00    +0.148 C 
ATOM     43  C   LIG    1        4.459   1.172  -3.136  0.00  0.00    +0.040 C 
ATOM     44  C   LIG    1        5.879   3.261  -3.269  0.00  0.00    +0.163 C 
ATOM     45  C   LIG    1        7.209   3.898  -3.732  0.00  0.00    +0.109 C 
ATOM     46  C   LIG    1        8.020   3.078  -4.746  0.00  0.00    +0.086 C 
BRANCH  45  47
ATOM     47  N   LIG    1        8.025   4.475  -2.658  0.00  0.00    -0.302 N 
ATOM     48  H   LIG    1        8.057   5.491  -2.601  0.00  0.00    +0.149 HD
ATOM     49  C   LIG    1        8.818   3.776  -1.759  0.00  0.00    +0.318 C 
ATOM     50  O   LIG    1        8.881   2.548  -1.778  0.00  0.00    -0.266 OA
BRANCH  49  51
ATOM     51  C   LIG    1        9.634   4.689  -0.798  0.00  0.00    +0.469 C 
ATOM     52  F   LIG    1       10.949   4.758  -1.145  0.00  0.00    -0.162 F 
ATOM     53  F   LIG    1        9.585   4.285   0.498  0.00  0.00    -0.162 F 
ATOM     54  F   LIG    1        9.173   5.976  -0.821  0.00  0.00    -0.162 F 
ENDBRANCH  49  51
ENDBRANCH  45  47
BRANCH  44  55
ATOM     55  O   LIG    1        4.830   3.793  -4.108  0.00  0.00    -0.387 OA
ATOM     56  H   LIG    1        4.757   3.197  -4.880  0.00  0.00    +0.210 HD
ENDBRANCH  44  55
ENDBRANCH  39  40
ENDBRANCH   3  39
TORSDOF 16
