REMARK  Name = *****
REMARK                            x       y       z     vdW  Elec       q    Type
REMARK                         _______ _______ _______ _____ _____    ______ ____
ROOT
ATOM      1  N   LIG    1        4.002  -3.331  -2.404  0.00  0.00    -0.212 N 
ATOM      2  C   LIG    1        5.252  -3.097  -2.987  0.00  0.00    +0.168 A 
ATOM      3  N   LIG    1        5.891  -4.262  -3.036  0.00  0.00    -0.206 NA
ATOM      4  C   LIG    1        5.100  -5.147  -2.348  0.00  0.00    +0.186 A 
ATOM      5  N   LIG    1        3.968  -4.595  -1.893  0.00  0.00    -0.144 NA
ENDROOT
BRANCH   1   9
ATOM      6  C   LIG    1        0.339  -1.197  -2.268  0.00  0.00    +0.059 A 
ATOM      7  C   LIG    1        0.620  -2.184  -1.317  0.00  0.00    +0.017 A 
ATOM      8  C   LIG    1        1.836  -2.873  -1.374  0.00  0.00    +0.028 A 
ATOM      9  C   LIG    1        2.787  -2.580  -2.372  0.00  0.00    +0.068 A 
ATOM     10  C   LIG    1        2.492  -1.603  -3.328  0.00  0.00    +0.028 A 
ATOM     11  C   LIG    1        1.290  -0.887  -3.249  0.00  0.00    +0.017 A 
BRANCH   6  13
ATOM     12  O   LIG    1       -1.070   0.677  -2.703  0.00  0.00    -0.245 OA
ATOM     13  C   LIG    1       -0.955  -0.476  -2.297  0.00  0.00    +0.337 C 
BRANCH  13  14
ATOM     14  O   LIG    1       -2.004  -1.227  -1.906  0.00  0.00    -0.477 OA
ATOM     15  H   LIG    1       -1.806  -2.177  -1.797  0.00  0.00    +0.295 HD
ENDBRANCH  13  14
ENDBRANCH   6  13
ENDBRANCH   1   9
BRANCH   2  16
ATOM     16  C   LIG    1        5.863  -1.826  -3.448  0.00  0.00    +0.061 A 
ATOM     17  C   LIG    1        5.630  -0.565  -2.876  0.00  0.00    +0.128 A 
ATOM     18  C   LIG    1        6.284   0.589  -3.339  0.00  0.00    +0.046 A 
ATOM     19  C   LIG    1        7.245   0.494  -4.342  0.00  0.00    +0.004 A 
ATOM     20  C   LIG    1        7.524  -0.746  -4.905  0.00  0.00    +0.001 A 
ATOM     21  C   LIG    1        6.825  -1.885  -4.477  0.00  0.00    +0.015 A 
BRANCH  17  22
ATOM     22  O   LIG    1        4.774  -0.435  -1.817  0.00  0.00    -0.506 OA
ATOM     23  H   LIG    1        4.501   0.496  -1.753  0.00  0.00    +0.292 HD
ENDBRANCH  17  22
ENDBRANCH   2  16
BRANCH   4  24
ATOM     24  C   LIG    1        5.408  -6.574  -2.170  0.00  0.00    +0.062 A 
ATOM     25  C   LIG    1        6.714  -7.077  -2.070  0.00  0.00    +0.128 A 
ATOM     26  C   LIG    1        6.951  -8.448  -1.884  0.00  0.00    +0.046 A 
ATOM     27  C   LIG    1        5.885  -9.342  -1.799  0.00  0.00    +0.004 A 
ATOM     28  C   LIG    1        4.582  -8.869  -1.901  0.00  0.00    +0.001 A 
ATOM     29  C   LIG    1        4.347  -7.500  -2.083  0.00  0.00    +0.015 A 
BRANCH  25  30
ATOM     30  O   LIG    1        7.794  -6.238  -2.121  0.00  0.00    -0.506 OA
ATOM     31  H   LIG    1        8.609  -6.761  -2.068  0.00  0.00    +0.292 HD
ENDBRANCH  25  30
ENDBRANCH   4  24
TORSDOF 7
