REMARK  Name = *****
REMARK                            x       y       z     vdW  Elec       q    Type
REMARK                         _______ _______ _______ _____ _____    ______ ____
ROOT
ATOM      1  C   LIG    1       -2.724   0.694  -1.324  0.00  0.00    +0.042 C 
ATOM      2  C   LIG    1       -2.184  -0.089  -0.117  0.00  0.00    +0.069 C 
ATOM      3  C   LIG    1       -2.707   0.406   1.282  0.00  0.00    -0.000 C 
ATOM      4  C   LIG    1       -1.718   0.015   2.422  0.00  0.00    +0.014 C 
ATOM      5  C   LIG    1       -3.992  -0.452   1.494  0.00  0.00    +0.001 C 
ATOM      6  C   LIG    1       -5.332   0.260   1.763  0.00  0.00    -0.004 C 
ATOM      7  C   LIG    1       -5.198   1.659   2.470  0.00  0.00    -0.001 C 
ATOM      8  C   LIG    1       -4.336   2.396   1.380  0.00  0.00    +0.005 C 
ATOM      9  C   LIG    1       -4.707   1.717   4.100  0.00  0.00    -0.022 C 
ATOM     10  C   LIG    1       -4.904   3.377   3.989  0.00  0.00    +0.012 C 
ATOM     11  C   LIG    1       -5.726   0.503   4.541  0.00  0.00    +0.003 C 
ATOM     12  C   LIG    1       -7.134   1.008   4.845  0.00  0.00    +0.083 C 
ATOM     13  C   LIG    1       -7.008   1.237   6.310  0.00  0.00    +0.162 C 
ATOM     14  O   LIG    1       -7.555   0.575   7.157  0.00  0.00    -0.292 OA
ATOM     15  C   LIG    1       -5.958   2.259   6.621  0.00  0.00    +0.029 C 
ATOM     16  C   LIG    1       -6.552   3.411   6.976  0.00  0.00    +0.190 C 
ATOM     17  C   LIG    1       -5.789  -0.848   3.855  0.00  0.00    +0.005 C 
ATOM     18  C   LIG    1       -4.652   2.099   5.772  0.00  0.00    +0.049 C 
ATOM     19  C   LIG    1       -6.277  -0.697   2.456  0.00  0.00    +0.004 C 
ATOM     20  C   LIG    1       -4.107  -1.427   0.304  0.00  0.00    +0.007 C 
ATOM     21  C   LIG    1       -2.889   1.939   1.406  0.00  0.00    +0.010 C 
ATOM     22  C   LIG    1       -2.683  -1.541  -0.193  0.00  0.00    +0.035 C 
ENDROOT
BRANCH   2  23
ATOM     23  O   LIG    1       -0.766  -0.050  -0.211  0.00  0.00    -0.388 OA
ATOM     24  H   LIG    1       -0.397  -0.702   0.408  0.00  0.00    +0.210 HD
ENDBRANCH   2  23
BRANCH  16  25
ATOM     25  O   LIG    1       -7.200   3.515   8.217  0.00  0.00    -0.514 OA
ATOM     26  H   LIG    1       -6.878   2.793   8.791  0.00  0.00    +0.291 HD
ENDBRANCH  16  25
TORSDOF 2
