REMARK  Name = *****
REMARK                            x       y       z     vdW  Elec       q    Type
REMARK                         _______ _______ _______ _____ _____    ______ ____
ROOT
ATOM      1  C   LIG    1        0.551   2.841  -1.418  0.00  0.00    -0.007 A 
ATOM      2  C   LIG    1       -0.468   2.838  -0.462  0.00  0.00    +0.010 A 
ATOM      3  C   LIG    1       -1.542   3.721  -0.594  0.00  0.00    +0.010 A 
ATOM      4  C   LIG    1       -1.600   4.591  -1.689  0.00  0.00    -0.007 A 
ATOM      5  C   LIG    1       -0.589   4.575  -2.657  0.00  0.00    +0.010 A 
ATOM      6  C   LIG    1        0.493   3.703  -2.517  0.00  0.00    +0.010 A 
ENDROOT
BRANCH   1   8
ATOM      7  N   LIG    1        2.803   2.100  -1.870  0.00  0.00    -0.276 NA
ATOM      8  C   LIG    1        1.691   1.926  -1.238  0.00  0.00    +0.113 C 
BRANCH   7  11
ATOM      9  O   LIG    1        2.430  -0.797  -2.279  0.00  0.00    -0.271 OA
ATOM     10  C   LIG    1        3.514  -0.241  -2.216  0.00  0.00    +0.263 C 
ATOM     11  C   LIG    1        3.821   1.083  -1.564  0.00  0.00    +0.220 C 
ATOM     12  C   LIG    1        5.127   1.424  -2.263  0.00  0.00    +0.226 C 
ATOM     13  O   LIG    1        5.745   0.184  -2.635  0.00  0.00    -0.277 OA
ATOM     14  N   LIG    1        4.697  -0.764  -2.680  0.00  0.00    -0.193 N 
ATOM     15  H   LIG    1        4.733  -1.528  -3.340  0.00  0.00    +0.182 HD
ENDBRANCH   7  11
ENDBRANCH   1   8
BRANCH   4  16
ATOM     16  C   LIG    1       -2.755   5.507  -1.811  0.00  0.00    +0.113 C 
ATOM     17  N   LIG    1       -2.881   6.316  -2.808  0.00  0.00    -0.276 NA
BRANCH  17  18
ATOM     18  C   LIG    1       -4.123   7.114  -2.814  0.00  0.00    +0.220 C 
ATOM     19  C   LIG    1       -4.193   8.134  -1.709  0.00  0.00    +0.263 C 
ATOM     20  O   LIG    1       -3.954   7.953  -0.526  0.00  0.00    -0.271 OA
ATOM     21  N   LIG    1       -4.660   9.309  -2.240  0.00  0.00    -0.193 N 
ATOM     22  H   LIG    1       -4.652  10.192  -1.748  0.00  0.00    +0.182 HD
ATOM     23  O   LIG    1       -4.725   9.279  -3.647  0.00  0.00    -0.277 OA
ATOM     24  C   LIG    1       -4.154   8.023  -4.039  0.00  0.00    +0.226 C 
ENDBRANCH  17  18
ENDBRANCH   4  16
TORSDOF 4
