REMARK  Name = *****
REMARK                            x       y       z     vdW  Elec       q    Type
REMARK                         _______ _______ _______ _____ _____    ______ ____
ROOT
ATOM      1  C   LIG    1        8.842   4.086   3.992  0.00  0.00    +0.144 C 
ATOM      2  C   LIG    1       10.123   3.851   4.456  0.00  0.00    +0.014 C 
ENDROOT
BRANCH   2   3
ATOM      3  C   LIG    1       10.421   4.337   5.870  0.00  0.00    -0.016 A 
ATOM      4  C   LIG    1       10.859   5.640   6.156  0.00  0.00    +0.012 A 
ATOM      5  C   LIG    1       11.075   6.051   7.487  0.00  0.00    +0.046 A 
ATOM      6  C   LIG    1       10.885   5.165   8.552  0.00  0.00    +0.120 A 
ATOM      7  C   LIG    1       10.499   3.857   8.267  0.00  0.00    +0.046 A 
ATOM      8  C   LIG    1       10.267   3.448   6.944  0.00  0.00    +0.012 A 
BRANCH   6   9
ATOM      9  O   LIG    1       11.102   5.672   9.807  0.00  0.00    -0.495 OA
ATOM     10  C   LIG    1       10.908   4.771  10.898  0.00  0.00    +0.277 C 
ENDBRANCH   6   9
ENDBRANCH   2   3
BRANCH   2  11
ATOM     11  C   LIG    1       11.257   3.130   3.717  0.00  0.00    -0.016 A 
ATOM     12  C   LIG    1       11.082   2.037   2.855  0.00  0.00    +0.008 A 
ATOM     13  C   LIG    1       12.157   1.445   2.163  0.00  0.00    +0.001 A 
ATOM     14  C   LIG    1       13.461   1.867   2.388  0.00  0.00    +0.000 A 
ATOM     15  C   LIG    1       13.684   2.884   3.305  0.00  0.00    +0.001 A 
ATOM     16  C   LIG    1       12.600   3.511   3.946  0.00  0.00    +0.008 A 
ENDBRANCH   2  11
BRANCH   1  17
ATOM     17  C   LIG    1        8.308   3.642   2.679  0.00  0.00    +0.350 C 
ATOM     18  O   LIG    1        8.981   3.444   1.699  0.00  0.00    -0.244 OA
BRANCH  17  19
ATOM     19  O   LIG    1        6.940   3.563   2.714  0.00  0.00    -0.460 OA
BRANCH  19  20
ATOM     20  C   LIG    1        6.278   2.313   2.475  0.00  0.00    +0.236 C 
BRANCH  20  21
ATOM     21  C   LIG    1        5.911   2.063   1.003  0.00  0.00    +0.026 C 
BRANCH  21  22
ATOM     22  C   LIG    1        4.864   0.937   0.844  0.00  0.00    +0.003 C 
ATOM     23  C   LIG    1        3.509   1.091   1.513  0.00  0.00    +0.004 C 
ENDBRANCH  21  22
BRANCH  21  24
ATOM     24  C   LIG    1        7.162   1.801   0.111  0.00  0.00    +0.007 C 
BRANCH  24  25
ATOM     25  C   LIG    1        8.083   0.601   0.441  0.00  0.00    +0.000 C 
BRANCH  25  27
ATOM     26  C   LIG    1        8.273  -1.975   0.423  0.00  0.00    +0.004 C 
ATOM     27  C   LIG    1        7.426  -0.750   0.169  0.00  0.00    -0.003 C 
ENDBRANCH  25  27
ENDBRANCH  24  25
ENDBRANCH  21  24
ENDBRANCH  20  21
ENDBRANCH  19  20
ENDBRANCH  17  19
ENDBRANCH   1  17
BRANCH   1  28
ATOM     28  C   LIG    1        7.928   4.841   4.749  0.00  0.00    +0.107 C 
ATOM     29  N   LIG    1        7.180   5.459   5.368  0.00  0.00    -0.191 NA
ENDBRANCH   1  28
TORSDOF 12
