REMARK  Name = *****
REMARK                            x       y       z     vdW  Elec       q    Type
REMARK                         _______ _______ _______ _____ _____    ______ ____
ROOT
ATOM      1  C   LIG    1        3.711   3.134  -0.805  0.00  0.00    +0.161 C 
ENDROOT
BRANCH   1   2
ATOM      2  C   LIG    1        4.864   2.854  -1.762  0.00  0.00    -0.014 A 
ATOM      3  C   LIG    1        5.224   1.562  -2.174  0.00  0.00    +0.055 A 
ATOM      4  C   LIG    1        6.309   1.371  -3.014  0.00  0.00    +0.159 A 
ATOM      5  C   LIG    1        7.040   2.450  -3.500  0.00  0.00    +0.158 A 
ATOM      6  C   LIG    1        6.686   3.745  -3.145  0.00  0.00    +0.049 A 
ATOM      7  C   LIG    1        5.605   3.941  -2.277  0.00  0.00    +0.010 A 
BRANCH   4   8
ATOM      8  O   LIG    1        6.671   0.097  -3.349  0.00  0.00    -0.503 OA
ATOM      9  H   LIG    1        7.464   0.207  -3.909  0.00  0.00    +0.292 HD
ENDBRANCH   4   8
BRANCH   5  10
ATOM     10  O   LIG    1        8.097   2.184  -4.325  0.00  0.00    -0.503 OA
ATOM     11  H   LIG    1        8.501   3.030  -4.578  0.00  0.00    +0.292 HD
ENDBRANCH   5  10
ENDBRANCH   1   2
BRANCH   1  12
ATOM     12  O   LIG    1        4.224   3.952   0.259  0.00  0.00    -0.386 OA
ATOM     13  H   LIG    1        4.415   3.318   0.979  0.00  0.00    +0.210 HD
ENDBRANCH   1  12
BRANCH   1  14
ATOM     14  C   LIG    1        2.959   1.907  -0.170  0.00  0.00    +0.087 C 
BRANCH  14  16
ATOM     15  C   LIG    1        0.663   3.090  -0.277  0.00  0.00    +0.005 C 
ATOM     16  C   LIG    1        1.671   2.333   0.576  0.00  0.00    +0.018 C 
ENDBRANCH  14  16
BRANCH  14  17
ATOM     17  N   LIG    1        3.874   1.222   0.788  0.00  0.00    -0.308 NA
ATOM     18  H   LIG    1        4.758   1.012   0.320  0.00  0.00    +0.122 HD
BRANCH  17  19
ATOM     19  C   LIG    1        3.365  -0.010   1.409  0.00  0.00    +0.048 C 
ATOM     20  C   LIG    1        4.458  -0.547   2.337  0.00  0.00    +0.024 C 
ATOM     21  C   LIG    1        2.966  -1.095   0.407  0.00  0.00    +0.024 C 
ENDBRANCH  17  19
ENDBRANCH  14  17
ENDBRANCH   1  14
TORSDOF 8
