REMARK  Name = *****
REMARK                            x       y       z     vdW  Elec       q    Type
REMARK                         _______ _______ _______ _____ _____    ______ ____
ROOT
ATOM      1  C   LIG    1        4.432  -0.250   0.973  0.00  0.00    +0.036 C 
ATOM      2  C   LIG    1        4.550  -1.442  -0.001  0.00  0.00    +0.018 C 
ENDROOT
BRANCH   1   3
ATOM      3  C   LIG    1        2.932   0.239   1.019  0.00  0.00    +0.013 C 
BRANCH   3   5
ATOM      4  C   LIG    1        0.457  -0.321   1.526  0.00  0.00    +0.004 C 
ATOM      5  C   LIG    1        1.906  -0.803   1.536  0.00  0.00    -0.003 C 
ENDBRANCH   3   5
ENDBRANCH   1   3
BRANCH   1   6
ATOM      6  C   LIG    1        4.891  -0.684   2.389  0.00  0.00    +0.243 C 
BRANCH   6   7
ATOM      7  O   LIG    1        6.260  -1.136   2.389  0.00  0.00    -0.450 OA
BRANCH   7   8
ATOM      8  C   LIG    1        7.116  -0.462   3.193  0.00  0.00    +0.398 C 
ATOM      9  O   LIG    1        6.884   0.541   3.829  0.00  0.00    -0.227 OA
ATOM     10  N   LIG    1        8.320  -1.092   3.205  0.00  0.00    -0.295 N 
ATOM     11  H   LIG    1        8.965  -0.809   3.928  0.00  0.00    +0.148 HD
ATOM     12  H   LIG    1        8.367  -2.011   2.815  0.00  0.00    +0.148 HD
ENDBRANCH   7   8
ENDBRANCH   6   7
ENDBRANCH   1   6
BRANCH   1  13
ATOM     13  C   LIG    1        5.406   0.898   0.549  0.00  0.00    +0.243 C 
BRANCH  13  14
ATOM     14  O   LIG    1        5.221   1.358  -0.798  0.00  0.00    -0.450 OA
BRANCH  14  15
ATOM     15  C   LIG    1        6.080   0.821  -1.707  0.00  0.00    +0.398 C 
ATOM     16  O   LIG    1        6.911  -0.035  -1.518  0.00  0.00    -0.227 OA
ATOM     17  N   LIG    1        5.837   1.358  -2.929  0.00  0.00    -0.295 N 
ATOM     18  H   LIG    1        6.277   0.908  -3.719  0.00  0.00    +0.148 HD
ATOM     19  H   LIG    1        5.018   1.924  -3.053  0.00  0.00    +0.148 HD
ENDBRANCH  14  15
ENDBRANCH  13  14
ENDBRANCH   1  13
TORSDOF 8
