REMARK  Name = *****
REMARK                            x       y       z     vdW  Elec       q    Type
REMARK                         _______ _______ _______ _____ _____    ______ ____
ROOT
ATOM      1  C   LIG    1        4.969   1.362  -3.593  0.00  0.00    -0.030 A 
ATOM      2  C   LIG    1        5.416   2.620  -3.242  0.00  0.00    +0.006 A 
ATOM      3  C   LIG    1        4.700   3.795  -3.491  0.00  0.00    +0.009 A 
ATOM      4  C   LIG    1        3.390   3.752  -3.952  0.00  0.00    -0.017 A 
ATOM      5  C   LIG    1        2.849   2.446  -4.057  0.00  0.00    +0.009 A 
ATOM      6  C   LIG    1        3.615   1.273  -3.876  0.00  0.00    +0.006 A 
ENDROOT
BRANCH   4   7
ATOM      7  C   LIG    1        2.636   4.962  -4.444  0.00  0.00    -0.007 A 
ATOM      8  C   LIG    1        2.638   6.292  -3.920  0.00  0.00    +0.030 A 
ATOM      9  C   LIG    1        1.878   7.298  -4.589  0.00  0.00    +0.012 A 
ATOM     10  C   LIG    1        1.101   7.032  -5.714  0.00  0.00    +0.001 A 
ATOM     11  C   LIG    1        1.084   5.751  -6.225  0.00  0.00    +0.001 A 
ATOM     12  C   LIG    1        1.849   4.754  -5.614  0.00  0.00    +0.009 A 
BRANCH   8  13
ATOM     13  C   LIG    1        3.339   6.756  -2.711  0.00  0.00    +0.205 A 
ATOM     14  N   LIG    1        4.039   6.008  -1.844  0.00  0.00    -0.133 NA
ATOM     15  N   LIG    1        4.526   6.947  -1.030  0.00  0.00    -0.176 N 
ATOM     16  H   LIG    1        5.213   6.730  -0.314  0.00  0.00    +0.214 HD
ATOM     17  N   LIG    1        4.096   8.190  -1.243  0.00  0.00    -0.049 NA
ATOM     18  N   LIG    1        3.340   8.089  -2.325  0.00  0.00    -0.108 NA
ENDBRANCH   8  13
ENDBRANCH   4   7
BRANCH   1  19
ATOM     19  C   LIG    1        5.924   0.184  -3.743  0.00  0.00    +0.143 C 
BRANCH  19  21
ATOM     20  C   LIG    1        7.662   0.710  -5.428  0.00  0.00    +0.216 C 
ATOM     21  N   LIG    1        7.348   0.561  -4.062  0.00  0.00    -0.283 N 
ATOM     22  O   LIG    1        6.805   0.559  -6.308  0.00  0.00    -0.276 OA
BRANCH  20  23
ATOM     23  C   LIG    1        9.054   1.193  -5.824  0.00  0.00    +0.096 C 
BRANCH  23  24
ATOM     24  C   LIG    1        9.587   0.800  -7.199  0.00  0.00    +0.009 C 
BRANCH  24  26
ATOM     25  C   LIG    1       10.222  -1.124  -8.735  0.00  0.00    +0.004 C 
ATOM     26  C   LIG    1        9.642  -0.718  -7.388  0.00  0.00    -0.003 C 
ENDBRANCH  24  26
ENDBRANCH  23  24
ENDBRANCH  20  23
BRANCH  21  27
ATOM     27  C   LIG    1        8.322   0.754  -2.920  0.00  0.00    +0.187 C 
BRANCH  27  28
ATOM     28  C   LIG    1        9.177  -0.503  -2.439  0.00  0.00    +0.014 C 
ATOM     29  C   LIG    1       10.427  -0.854  -3.263  0.00  0.00    +0.009 C 
ATOM     30  C   LIG    1        8.443  -1.823  -2.170  0.00  0.00    +0.009 C 
ENDBRANCH  27  28
BRANCH  27  31
ATOM     31  C   LIG    1        9.211   2.027  -3.043  0.00  0.00    +0.326 C 
ATOM     32  O   LIG    1       10.439   1.947  -3.232  0.00  0.00    -0.249 OA
BRANCH  31  33
ATOM     33  O   LIG    1        8.725   3.254  -2.960  0.00  0.00    -0.479 OA
ATOM     34  H   LIG    1        7.811   3.408  -2.637  0.00  0.00    +0.295 HD
ENDBRANCH  31  33
ENDBRANCH  27  31
ENDBRANCH  21  27
ENDBRANCH  19  21
ENDBRANCH   1  19
TORSDOF 11
