REMARK  Name = *****
REMARK                            x       y       z     vdW  Elec       q    Type
REMARK                         _______ _______ _______ _____ _____    ______ ____
ROOT
ATOM      1  C   LIG    1        3.495  -0.438  -1.667  0.00  0.00    +0.125 A 
ATOM      2  C   LIG    1        3.666  -1.550  -2.491  0.00  0.00    +0.069 A 
ATOM      3 CL   LIG    1        3.518  -3.184  -1.954  0.00  0.00    -0.082 Cl
ATOM      4  C   LIG    1        4.002  -1.363  -3.844  0.00  0.00    +0.047 A 
ATOM      5  C   LIG    1        4.144  -0.085  -4.405  0.00  0.00    +0.057 A 
ATOM      6  N   LIG    1        4.567   0.025  -5.722  0.00  0.00    -0.324 N 
ATOM      7  H   LIG    1        4.351  -0.777  -6.314  0.00  0.00    +0.148 HD
ATOM      8  C   LIG    1        4.558   1.294  -6.445  0.00  0.00    +0.192 C 
ATOM      9  N   LIG    1        5.087   2.345  -5.577  0.00  0.00    -0.167 NA
ATOM     10  H   LIG    1        5.277   3.222  -6.061  0.00  0.00    +0.150 HD
ATOM     11  S   LIG    1        4.204   2.617  -4.188  0.00  0.00    +0.062 S 
ATOM     12  O   LIG    1        2.903   3.098  -4.594  0.00  0.00    -0.153 OA
ATOM     13  O   LIG    1        5.048   3.370  -3.292  0.00  0.00    -0.153 OA
ATOM     14  C   LIG    1        3.989   1.001  -3.546  0.00  0.00    +0.128 A 
ATOM     15  C   LIG    1        3.663   0.848  -2.193  0.00  0.00    +0.060 A 
ENDROOT
BRANCH   1  16
ATOM     16  S   LIG    1        3.045  -0.598   0.031  0.00  0.00    +0.057 S 
ATOM     17  O   LIG    1        3.076   0.711   0.643  0.00  0.00    -0.153 OA
ATOM     18  O   LIG    1        1.892  -1.458   0.139  0.00  0.00    -0.153 OA
BRANCH  16  19
ATOM     19  N   LIG    1        4.348  -1.414   0.700  0.00  0.00    -0.203 NA
ATOM     20  H   LIG    1        4.789  -0.839   1.419  0.00  0.00    +0.144 HD
ATOM     21  H   LIG    1        4.050  -2.333   1.033  0.00  0.00    +0.144 HD
ENDBRANCH  16  19
ENDBRANCH   1  16
BRANCH   8  22
ATOM     22  C   LIG    1        3.197   1.607  -7.145  0.00  0.00    +0.207 C 
ATOM     23 CL   LIG    1        3.287   3.147  -8.052  0.00  0.00    -0.101 Cl
ATOM     24 CL   LIG    1        2.781   0.293  -8.301  0.00  0.00    -0.101 Cl
ENDBRANCH   8  22
TORSDOF 3
