REMARK  Name = *****
REMARK                            x       y       z     vdW  Elec       q    Type
REMARK                         _______ _______ _______ _____ _____    ______ ____
ROOT
ATOM      1  N   LIG    1        0.796  -0.243   0.878  0.00  0.00    -0.314 N 
ATOM      2  H   LIG    1        1.107  -1.174   0.597  0.00  0.00    +0.152 HD
ENDROOT
BRANCH   1   5
ATOM      3  C   LIG    1        3.694  -0.760   1.213  0.00  0.00    +0.047 C 
ATOM      4  C   LIG    1        2.876   0.068   2.172  0.00  0.00    -0.011 A 
ATOM      5  C   LIG    1        1.474   0.234   2.031  0.00  0.00    +0.036 A 
ATOM      6  C   LIG    1        0.789   0.951   3.030  0.00  0.00    +0.023 A 
ATOM      7  C   LIG    1        1.456   1.556   4.098  0.00  0.00    +0.003 A 
ATOM      8  C   LIG    1        2.835   1.461   4.189  0.00  0.00    +0.020 A 
ATOM      9  C   LIG    1        3.539   0.719   3.240  0.00  0.00    +0.046 A 
ATOM     10 CL   LIG    1        5.261   0.654   3.423  0.00  0.00    -0.083 Cl
ENDBRANCH   1   5
BRANCH   1  11
ATOM     11  C   LIG    1       -0.466   0.077   0.311  0.00  0.00    +0.045 A 
ATOM     12  C   LIG    1       -1.200  -0.848  -0.467  0.00  0.00    +0.080 A 
ATOM     13  C   LIG    1       -2.463  -0.505  -0.993  0.00  0.00    +0.017 A 
ATOM     14  C   LIG    1       -2.997   0.764  -0.789  0.00  0.00    +0.001 A 
ATOM     15  C   LIG    1       -2.264   1.704  -0.077  0.00  0.00    +0.002 A 
ATOM     16  C   LIG    1       -1.017   1.364   0.460  0.00  0.00    +0.024 A 
BRANCH  12  17
ATOM     17  C   LIG    1       -0.713  -2.202  -0.839  0.00  0.00    +0.339 C 
ATOM     18  O   LIG    1       -1.081  -2.848  -1.796  0.00  0.00    -0.245 OA
BRANCH  17  19
ATOM     19  O   LIG    1        0.179  -2.713   0.035  0.00  0.00    -0.477 OA
ATOM     20  H   LIG    1        0.310  -3.627  -0.299  0.00  0.00    +0.295 HD
ENDBRANCH  17  19
ENDBRANCH  12  17
ENDBRANCH   1  11
TORSDOF 4
