REMARK  Name = *****
REMARK                            x       y       z     vdW  Elec       q    Type
REMARK                         _______ _______ _______ _____ _____    ______ ____
ROOT
ATOM      1  C   LIG    1        7.481   4.552   6.311  0.00  0.00    +0.011 C 
ATOM      2  C   LIG    1        6.457   5.345   5.948  0.00  0.00    -0.036 C 
ATOM      3  C   LIG    1        5.005   5.174   6.448  0.00  0.00    +0.213 C 
ATOM      4  C   LIG    1        4.457   3.789   7.012  0.00  0.00    +0.126 C 
ATOM      5  C   LIG    1        4.365   2.367   6.197  0.00  0.00    +0.185 C 
ATOM      6  C   LIG    1        2.974   1.781   6.672  0.00  0.00    +0.064 C 
ATOM      7  C   LIG    1        2.644   2.514   7.958  0.00  0.00    +0.031 C 
ATOM      8  C   LIG    1        1.226   2.261   8.442  0.00  0.00    +0.011 C 
ATOM      9  C   LIG    1        4.331   2.343   4.622  0.00  0.00    +0.203 C 
ATOM     10  O   LIG    1        3.314   2.099   3.967  0.00  0.00    -0.288 OA
ATOM     11  C   LIG    1        5.556   2.629   3.844  0.00  0.00    -0.008 C 
ATOM     12  C   LIG    1        6.585   1.585   3.571  0.00  0.00    +0.047 C 
ATOM     13  C   LIG    1        5.575   3.841   3.269  0.00  0.00    -0.016 C 
ATOM     14  C   LIG    1        6.785   4.460   2.740  0.00  0.00    +0.022 C 
ATOM     15  C   LIG    1        7.022   5.233   1.481  0.00  0.00    -0.025 C 
ATOM     16  C   LIG    1        8.438   5.289   0.963  0.00  0.00    +0.012 C 
ATOM     17  C   LIG    1        5.985   5.138   0.389  0.00  0.00    +0.012 C 
ATOM     18  C   LIG    1        6.666   5.967   2.768  0.00  0.00    +0.003 C 
ATOM     19  C   LIG    1        7.517   6.598   3.825  0.00  0.00    +0.009 C 
ATOM     20  C   LIG    1        2.995   3.948   7.564  0.00  0.00    +0.191 C 
ATOM     21  C   LIG    1        6.746   6.656   5.175  0.00  0.00    +0.034 C 
ENDROOT
BRANCH   3  22
ATOM     22  O   LIG    1        5.016   6.224   7.510  0.00  0.00    -0.457 OA
BRANCH  22  23
ATOM     23  C   LIG    1        4.002   7.091   7.654  0.00  0.00    +0.304 C 
ATOM     24  O   LIG    1        2.848   6.893   7.325  0.00  0.00    -0.251 OA
ATOM     25  C   LIG    1        4.372   8.397   8.295  0.00  0.00    +0.136 C 
ENDBRANCH  22  23
ENDBRANCH   3  22
BRANCH   5  26
ATOM     26  O   LIG    1        5.406   1.516   6.784  0.00  0.00    -0.450 OA
BRANCH  26  27
ATOM     27  C   LIG    1        5.413   0.171   6.535  0.00  0.00    +0.305 C 
ATOM     28  O   LIG    1        4.762  -0.397   5.674  0.00  0.00    -0.251 OA
ATOM     29  C   LIG    1        6.340  -0.545   7.477  0.00  0.00    +0.136 C 
ENDBRANCH  26  27
ENDBRANCH   5  26
BRANCH  20  30
ATOM     30  O   LIG    1        2.170   4.453   6.481  0.00  0.00    -0.457 OA
BRANCH  30  31
ATOM     31  C   LIG    1        0.930   4.987   6.781  0.00  0.00    +0.340 C 
ATOM     32  O   LIG    1        0.295   4.877   7.784  0.00  0.00    -0.245 OA
BRANCH  31  33
ATOM     33  C   LIG    1        0.513   5.808   5.592  0.00  0.00    +0.059 A 
ATOM     34  C   LIG    1       -0.849   5.997   5.326  0.00  0.00    +0.015 A 
ATOM     35  C   LIG    1       -1.249   6.827   4.277  0.00  0.00    +0.001 A 
ATOM     36  C   LIG    1       -0.299   7.497   3.500  0.00  0.00    +0.000 A 
ATOM     37  C   LIG    1        1.056   7.337   3.768  0.00  0.00    +0.001 A 
ATOM     38  C   LIG    1        1.456   6.493   4.797  0.00  0.00    +0.015 A 
ENDBRANCH  31  33
ENDBRANCH  30  31
ENDBRANCH  20  30
TORSDOF 7
