REMARK  Name = *****
REMARK                            x       y       z     vdW  Elec       q    Type
REMARK                         _______ _______ _______ _____ _____    ______ ____
ROOT
ATOM      1  CA  HYP A  1        3.065   1.286   0.129  0.00  0.00    +0.166 C 
ATOM      2  N   HYP A  1        2.284   2.534   0.057  0.00  0.00    -0.302 NA
ATOM      3  H   HYP A  1        2.066   2.785  -0.906  0.00  0.00    +0.123 HD
ATOM      4  CD  HYP A  1        3.042   3.559   0.769  0.00  0.00    +0.113 C 
ATOM      5  CG  HYP A  1        3.900   2.792   1.783  0.00  0.00    +0.130 C 
ATOM      6  CB  HYP A  1        3.547   1.324   1.571  0.00  0.00    +0.062 C 
ENDROOT
BRANCH   1   8
ATOM      7  O   HYP A  1        1.290   0.117  -1.072  0.00  0.00    -0.249 OA
ATOM      8  C   HYP A  1        2.201   0.077  -0.255  0.00  0.00    +0.322 C 
BRANCH   8   9
ATOM      9  OXT HYP A  1        2.595  -1.097   0.294  0.00  0.00    -0.479 OA
ATOM     10  HXT HYP A  1        3.354  -1.043   0.902  0.00  0.00    +0.295 HD
ENDBRANCH   8   9
ENDBRANCH   1   8
BRANCH   5  11
ATOM     11  OD  HYP A  1        5.294   2.973   1.532  0.00  0.00    -0.391 OA
ATOM     12  HD  HYP A  1        5.445   2.953   0.572  0.00  0.00    +0.210 HD
ENDBRANCH   5  11
TORSDOF 3
