REMARK  Name = *****
REMARK                            x       y       z     vdW  Elec       q    Type
REMARK                         _______ _______ _______ _____ _____    ______ ____
ROOT
ATOM      1  C   LIG    1        7.019  -1.358  -0.998  0.00  0.00    +0.159 C 
ENDROOT
BRANCH   1   2
ATOM      2  C   LIG    1        6.845  -0.026  -1.634  0.00  0.00    -0.028 A 
ATOM      3  C   LIG    1        5.956   0.835  -1.096  0.00  0.00    +0.006 A 
ATOM      4  C   LIG    1        5.368   1.948  -1.617  0.00  0.00    +0.009 A 
ATOM      5  C   LIG    1        5.850   2.408  -2.796  0.00  0.00    -0.017 A 
ATOM      6  C   LIG    1        6.842   1.553  -3.384  0.00  0.00    +0.009 A 
ATOM      7  C   LIG    1        7.362   0.383  -2.812  0.00  0.00    +0.006 A 
BRANCH   5   8
ATOM      8  C   LIG    1        5.354   3.654  -3.432  0.00  0.00    -0.007 A 
ATOM      9  C   LIG    1        4.448   4.635  -2.910  0.00  0.00    +0.028 A 
ATOM     10  C   LIG    1        4.101   5.712  -3.770  0.00  0.00    +0.012 A 
ATOM     11  C   LIG    1        4.618   5.860  -5.059  0.00  0.00    +0.001 A 
ATOM     12  C   LIG    1        5.503   4.934  -5.548  0.00  0.00    +0.001 A 
ATOM     13  C   LIG    1        5.852   3.868  -4.745  0.00  0.00    +0.009 A 
BRANCH   9  14
ATOM     14  C   LIG    1        3.765   4.706  -1.585  0.00  0.00    +0.180 A 
ATOM     15  N   LIG    1        4.245   4.374  -0.339  0.00  0.00    -0.239 N 
ATOM     16  H   LIG    1        5.102   3.911  -0.070  0.00  0.00    +0.192 HD
ATOM     17  N   LIG    1        3.315   4.566   0.608  0.00  0.00    -0.046 NA
ATOM     18  N   LIG    1        2.300   5.126  -0.023  0.00  0.00    -0.023 NA
ATOM     19  N   LIG    1        2.561   5.225  -1.368  0.00  0.00    -0.108 NA
ENDBRANCH   9  14
ENDBRANCH   5   8
ENDBRANCH   1   2
BRANCH   1  21
ATOM     20  C   LIG    1        7.038  -0.966   1.553  0.00  0.00    +0.111 A 
ATOM     21  N   LIG    1        7.603  -1.369   0.342  0.00  0.00    -0.318 N 
ATOM     22  C   LIG    1        8.899  -1.819   0.602  0.00  0.00    +0.153 A 
ATOM     23  C   LIG    1        9.216  -1.155   1.793  0.00  0.00    +0.104 A 
ATOM     24  N   LIG    1        8.035  -0.705   2.387  0.00  0.00    -0.234 NA
BRANCH  23  25
ATOM     25  C   LIG    1       10.543  -0.870   2.512  0.00  0.00    +0.104 C 
ATOM     26  C   LIG    1       11.699  -0.564   1.558  0.00  0.00    +0.048 C 
ATOM     27  C   LIG    1       10.951  -1.970   3.495  0.00  0.00    +0.048 C 
BRANCH  25  28
ATOM     28  O   LIG    1       10.413   0.330   3.311  0.00  0.00    -0.383 OA
ATOM     29  H   LIG    1        9.511   0.290   3.681  0.00  0.00    +0.211 HD
ENDBRANCH  25  28
ENDBRANCH  23  25
BRANCH  22  30
ATOM     30  C   LIG    1        9.749  -2.683  -0.231  0.00  0.00    +0.355 C 
ATOM     31  O   LIG    1       10.885  -2.945  -0.076  0.00  0.00    -0.243 OA
BRANCH  30  32
ATOM     32  O   LIG    1        9.063  -3.292  -1.252  0.00  0.00    -0.476 OA
ATOM     33  H   LIG    1        8.118  -3.398  -1.106  0.00  0.00    +0.295 HD
ENDBRANCH  30  32
ENDBRANCH  22  30
BRANCH  20  34
ATOM     34  C   LIG    1        5.554  -0.873   1.990  0.00  0.00    +0.074 C 
BRANCH  34  36
ATOM     35  C   LIG    1        3.033  -0.397   1.181  0.00  0.00    +0.004 C 
ATOM     36  C   LIG    1        4.501  -0.491   0.972  0.00  0.00    +0.004 C 
ENDBRANCH  34  36
ENDBRANCH  20  34
ENDBRANCH   1  21
TORSDOF 10
