REMARK  Name = *****
REMARK                            x       y       z     vdW  Elec       q    Type
REMARK                         _______ _______ _______ _____ _____    ______ ____
ROOT
ATOM      1  C   LIG    1       -1.966   1.395   7.810  0.00  0.00    +0.025 C 
ATOM      2  C   LIG    1       -2.038   0.069   7.026  0.00  0.00    +0.042 C 
ATOM      3  CA  LIG    1       -3.494  -0.221   6.578  0.00  0.00    +0.201 C 
ATOM      4  N   LIG    1       -3.669   0.384   5.248  0.00  0.00    -0.271 N 
ATOM      5  C   LIG    1       -2.490   0.392   4.357  0.00  0.00    +0.165 C 
ATOM      6  CA  LIG    1       -2.928   1.803   3.892  0.00  0.00    +0.190 C 
ATOM      7  C   LIG    1       -3.885   1.729   5.104  0.00  0.00    +0.240 C 
ATOM      8  O   LIG    1       -4.512   2.500   5.802  0.00  0.00    -0.273 OA
ATOM      9  S   LIG    1       -1.041   0.271   5.473  0.00  0.00    -0.127 S 
ATOM     10  C   LIG    1       -1.361  -1.006   7.883  0.00  0.00    +0.025 C 
ENDROOT
BRANCH   6  11
ATOM     11  N   LIG    1       -1.884   2.853   3.882  0.00  0.00    -0.300 N 
ATOM     12  H   LIG    1       -1.606   3.354   4.725  0.00  0.00    +0.150 HD
ATOM     13  C   LIG    1       -1.086   3.065   2.771  0.00  0.00    +0.235 C 
ATOM     14  O   LIG    1       -1.225   2.391   1.752  0.00  0.00    -0.274 OA
BRANCH  13  15
ATOM     15  CA  LIG    1       -0.007   4.175   2.958  0.00  0.00    +0.168 C 
BRANCH  15  16
ATOM     16  C   LIG    1        0.335   4.955   1.694  0.00  0.00    -0.022 A 
ATOM     17  C   LIG    1       -0.622   5.254   0.711  0.00  0.00    +0.006 A 
ATOM     18  C   LIG    1       -0.265   5.939  -0.456  0.00  0.00    +0.000 A 
ATOM     19  C   LIG    1        1.050   6.352  -0.654  0.00  0.00    +0.000 A 
ATOM     20  C   LIG    1        2.007   6.094   0.323  0.00  0.00    +0.000 A 
ATOM     21  C   LIG    1        1.652   5.411   1.491  0.00  0.00    +0.006 A 
ENDBRANCH  15  16
BRANCH  15  22
ATOM     22  N   LIG    1       -0.417   5.086   4.058  0.00  0.00    -0.316 NA
ATOM     23  H1  LIG    1        0.280   5.830   4.120  0.00  0.00    +0.119 HD
ATOM     24  H2  LIG    1       -1.277   5.557   3.772  0.00  0.00    +0.119 HD
ENDBRANCH  15  22
ENDBRANCH  13  15
ENDBRANCH   6  11
BRANCH   3  25
ATOM     25  C   LIG    1       -3.907  -1.700   6.465  0.00  0.00    +0.327 C 
ATOM     26  O   LIG    1       -3.857  -2.511   7.377  0.00  0.00    -0.249 OA
BRANCH  25  27
ATOM     27  OXT LIG    1       -4.418  -2.033   5.250  0.00  0.00    -0.479 OA
ATOM     28  HXT LIG    1       -4.464  -1.242   4.674  0.00  0.00    +0.295 HD
ENDBRANCH  25  27
ENDBRANCH   3  25
TORSDOF 6
