REMARK  Name = *****
REMARK                            x       y       z     vdW  Elec       q    Type
REMARK                         _______ _______ _______ _____ _____    ______ ____
ROOT
ATOM      1  C   LIG    1        0.961   0.056   0.203  0.00  0.00    +0.024 C 
ATOM      2  C   LIG    1        2.485  -0.035  -0.004  0.00  0.00    +0.058 C 
ENDROOT
BRANCH   2   3
ATOM      3  N   LIG    1        2.901  -0.019  -1.444  0.00  0.00    -0.298 NA
ATOM      4  C   LIG    1        2.348  -1.138  -2.214  0.00  0.00    +0.105 C 
BRANCH   3   5
ATOM      5  C   LIG    1        2.594   1.282  -2.083  0.00  0.00    +0.119 C 
BRANCH   5   6
ATOM      6  C   LIG    1        2.995   1.400  -3.543  0.00  0.00    -0.033 A 
ATOM      7  C   LIG    1        4.331   1.251  -3.940  0.00  0.00    +0.005 A 
ATOM      8  C   LIG    1        4.680   1.336  -5.291  0.00  0.00    +0.000 A 
ATOM      9  C   LIG    1        3.704   1.579  -6.255  0.00  0.00    +0.000 A 
ATOM     10  C   LIG    1        2.373   1.740  -5.873  0.00  0.00    +0.000 A 
ATOM     11  C   LIG    1        2.022   1.654  -4.524  0.00  0.00    +0.005 A 
ENDBRANCH   5   6
ENDBRANCH   3   5
ENDBRANCH   2   3
BRANCH   2  12
ATOM     12  C   LIG    1        3.059  -1.280   0.738  0.00  0.00    +0.053 C 
BRANCH  12  13
ATOM     13  C   LIG    1        2.843  -1.337   2.239  0.00  0.00    -0.046 A 
ATOM     14  C   LIG    1        3.458  -0.418   3.095  0.00  0.00    +0.003 A 
ATOM     15  C   LIG    1        3.319  -0.533   4.481  0.00  0.00    +0.000 A 
ATOM     16  C   LIG    1        2.558  -1.569   5.026  0.00  0.00    +0.000 A 
ATOM     17  C   LIG    1        1.928  -2.480   4.185  0.00  0.00    +0.000 A 
ATOM     18  C   LIG    1        2.067  -2.366   2.800  0.00  0.00    +0.003 A 
ENDBRANCH  12  13
ENDBRANCH   2  12
TORSDOF 5
