REMARK  Name = *****
REMARK                            x       y       z     vdW  Elec       q    Type
REMARK                         _______ _______ _______ _____ _____    ______ ____
ROOT
ATOM      1  N   ALA A  1        6.660  -1.851   2.752  0.00  0.00    -0.294 NA
ATOM      2  H   ALA A  1        6.602  -2.786   2.343  0.00  0.00    +0.123 HD
ENDROOT
BRANCH   1   3
ATOM      3  CA  ALA A  1        6.919  -1.972   4.206  0.00  0.00    +0.138 C 
ATOM      4  CB  ALA A  1        5.709  -2.623   4.875  0.00  0.00    +0.034 C 
BRANCH   3   5
ATOM      5  C   ALA A  1        8.152  -2.843   4.559  0.00  0.00    +0.233 C 
ATOM      6  N   UNK A  2        8.843  -2.495   5.723  0.00  0.00    -0.283 N 
ATOM      7  C   UNK A  2        9.031  -1.108   6.134  0.00  0.00    +0.080 C 
ATOM      8  C   UNK A  2       10.488  -1.019   6.567  0.00  0.00    +0.012 C 
ATOM      9  C   UNK A  2       10.534   0.110   7.582  0.00  0.00    +0.005 C 
ATOM     10  C   UNK A  2        9.120   0.236   8.153  0.00  0.00    +0.002 C 
ATOM     11  C   UNK A  2       10.781  -2.405   7.130  0.00  0.00    +0.039 C 
ATOM     12  C   UNK A  2        8.232  -0.734   7.379  0.00  0.00    +0.023 C 
ATOM     13  C   UNK A  2        9.947  -3.344   6.241  0.00  0.00    +0.185 C 
ATOM     14  O   ALA A  1        8.406  -3.881   3.945  0.00  0.00    -0.274 OA
BRANCH  13  15
ATOM     15  C   UNK A  2        9.477  -4.519   7.122  0.00  0.00    +0.326 C 
ATOM     16  O   UNK A  2       10.222  -5.316   7.658  0.00  0.00    -0.249 OA
BRANCH  15  17
ATOM     17  O   UNK A  2        8.131  -4.526   7.325  0.00  0.00    -0.479 OA
ATOM     18  H   UNK A  2        7.726  -3.801   6.818  0.00  0.00    +0.295 HD
ENDBRANCH  15  17
ENDBRANCH  13  15
ENDBRANCH   3   5
ENDBRANCH   1   3
BRANCH   1  19
ATOM     19  C   UNK A  0        7.660  -1.025   2.009  0.00  0.00    +0.164 C 
BRANCH  19  20
ATOM     20  C   UNK A  0        7.761   0.402   2.571  0.00  0.00    +0.324 C 
ATOM     21  O   UNK A  0        8.779   1.098   2.457  0.00  0.00    -0.249 OA
BRANCH  20  22
ATOM     22  O   UNK A  0        6.602   0.831   3.131  0.00  0.00    -0.464 OA
BRANCH  22  24
ATOM     23  C   UNK A  0        7.168   2.919   4.349  0.00  0.00    +0.048 C 
ATOM     24  C   UNK A  0        6.394   2.243   3.232  0.00  0.00    +0.229 C 
ENDBRANCH  22  24
ENDBRANCH  20  22
ENDBRANCH  19  20
BRANCH  19  25
ATOM     25  C   UNK A  0        7.262  -0.958   0.506  0.00  0.00    +0.035 C 
BRANCH  25  26
ATOM     26  C   UNK A  0        8.171  -0.101  -0.421  0.00  0.00    +0.037 C 
BRANCH  26  27
ATOM     27  C   UNK A  0        7.791  -0.074  -1.902  0.00  0.00    -0.047 A 
ATOM     28  C   UNK A  0        8.561   0.678  -2.812  0.00  0.00    +0.003 A 
ATOM     29  C   UNK A  0        8.247   0.708  -4.180  0.00  0.00    +0.000 A 
ATOM     30  C   UNK A  0        7.145   0.007  -4.661  0.00  0.00    +0.000 A 
ATOM     31  C   UNK A  0        6.358  -0.718  -3.775  0.00  0.00    +0.000 A 
ATOM     32  C   UNK A  0        6.681  -0.762  -2.413  0.00  0.00    +0.003 A 
ENDBRANCH  26  27
ENDBRANCH  25  26
ENDBRANCH  19  25
ENDBRANCH   1  19
TORSDOF 11
