REMARK  Name = *****
REMARK                            x       y       z     vdW  Elec       q    Type
REMARK                         _______ _______ _______ _____ _____    ______ ____
ROOT
ATOM      1  O   LIG    1        2.324  -0.642   0.796  0.00  0.00    -0.254 OA
ATOM      2  P   LIG    1        1.816   0.463  -0.086  0.00  0.00    +0.346 P 
ATOM      3  O   LIG    1        1.948   1.889   0.655  0.00  0.00    -0.305 OA
ATOM      4  C   LIG    1        3.289   2.303   0.884  0.00  0.00    +0.171 C 
ATOM      5  C   LIG    1        3.991   2.526  -0.451  0.00  0.00    +0.044 C 
ATOM      6  C   LIG    1        4.016   1.249  -1.292  0.00  0.00    +0.093 C 
ATOM      7  N   LIG    1        2.679   0.697  -1.454  0.00  0.00    -0.233 NA
ATOM      8  H   LIG    1        2.736  -0.130  -2.033  0.00  0.00    +0.133 HD
ENDROOT
BRANCH   2   9
ATOM      9  N   LIG    1        0.274   0.275  -0.607  0.00  0.00    -0.217 NA
BRANCH   9  10
ATOM     10  C   LIG    1       -0.770   1.073   0.067  0.00  0.00    +0.110 C 
BRANCH  10  11
ATOM     11  C   LIG    1       -1.127   0.621   1.488  0.00  0.00    +0.124 C 
ATOM     12 CL   LIG    1       -2.413   1.655   2.165  0.00  0.00    -0.124 Cl
ENDBRANCH  10  11
ENDBRANCH   9  10
BRANCH   9  13
ATOM     13  C   LIG    1       -0.214  -1.091  -0.903  0.00  0.00    +0.110 C 
BRANCH  13  14
ATOM     14  C   LIG    1        0.720  -1.945  -1.776  0.00  0.00    +0.124 C 
ATOM     15 CL   LIG    1        0.046  -3.578  -2.028  0.00  0.00    -0.124 Cl
ENDBRANCH  13  14
ENDBRANCH   9  13
ENDBRANCH   2   9
TORSDOF 5
