REMARK  Name = *****
REMARK                            x       y       z     vdW  Elec       q    Type
REMARK                         _______ _______ _______ _____ _____    ______ ____
ROOT
ATOM      1  C   LIG    1        5.011  -1.310   0.090  0.00  0.00    +0.149 A 
ATOM      2  C   LIG    1        5.588  -2.584   0.019  0.00  0.00    +0.117 A 
ATOM      3  C   LIG    1        6.899  -2.746  -0.426  0.00  0.00    +0.123 A 
ATOM      4  C   LIG    1        7.673  -1.655  -0.797  0.00  0.00    +0.046 A 
ATOM      5  C   LIG    1        7.128  -0.379  -0.697  0.00  0.00    +0.010 A 
ATOM      6  C   LIG    1        5.814  -0.204  -0.241  0.00  0.00    +0.072 A 
ENDROOT
BRANCH   1   7
ATOM      7  N   LIG    1        3.591  -1.123   0.614  0.00  0.00    -0.381 NA
ATOM      8  C   LIG    1        2.729  -2.358   0.329  0.00  0.00    +0.361 C 
ATOM      9  C   LIG    1        3.705  -0.945   2.130  0.00  0.00    +0.361 C 
BRANCH   7  11
ATOM     10  C   LIG    1        2.737   0.071  -1.495  0.00  0.00    +0.076 C 
ATOM     11  C   LIG    1        2.888   0.113   0.020  0.00  0.00    +0.282 C 
ENDBRANCH   7  11
ENDBRANCH   1   7
BRANCH   3  12
ATOM     12  O   LIG    1        7.389  -4.016  -0.470  0.00  0.00    -0.507 OA
ATOM     13  H   LIG    1        8.309  -4.002  -0.792  0.00  0.00    +0.292 HD
ENDBRANCH   3  12
TORSDOF 3
