REMARK  Name = *****
REMARK                            x       y       z     vdW  Elec       q    Type
REMARK                         _______ _______ _______ _____ _____    ______ ____
ROOT
ATOM      1  C   LIG    1        2.682  -4.446  -2.313  0.00  0.00    +0.202 A 
ATOM      2  N   LIG    1        3.496  -5.546  -2.158  0.00  0.00    -0.187 NA
ATOM      3  C   LIG    1        2.681  -6.543  -2.426  0.00  0.00    +0.262 A 
ATOM      4  O   LIG    1        1.407  -6.135  -2.693  0.00  0.00    -0.332 OA
ATOM      5  N   LIG    1        1.409  -4.747  -2.620  0.00  0.00    -0.056 NA
ENDROOT
BRANCH   3   6
ATOM      6  C   LIG    1        2.933  -7.972  -2.449  0.00  0.00    +0.074 A 
ATOM      7  C   LIG    1        2.166  -8.843  -3.229  0.00  0.00    +0.136 A 
ATOM      8  F   LIG    1        1.167  -8.379  -3.994  0.00  0.00    -0.205 F 
ATOM      9  C   LIG    1        2.428 -10.212  -3.258  0.00  0.00    +0.039 A 
ATOM     10  C   LIG    1        3.471 -10.733  -2.494  0.00  0.00    +0.003 A 
ATOM     11  C   LIG    1        4.248  -9.882  -1.710  0.00  0.00    +0.001 A 
ATOM     12  C   LIG    1        3.986  -8.508  -1.692  0.00  0.00    +0.016 A 
ENDBRANCH   3   6
BRANCH   1  15
ATOM     13  C   LIG    1        2.775  -0.682  -2.391  0.00  0.00    +0.059 A 
ATOM     14  C   LIG    1        2.303  -1.999  -2.433  0.00  0.00    +0.026 A 
ATOM     15  C   LIG    1        3.172  -3.077  -2.204  0.00  0.00    +0.023 A 
ATOM     16  C   LIG    1        4.514  -2.814  -1.895  0.00  0.00    +0.012 A 
ATOM     17  C   LIG    1        4.981  -1.498  -1.818  0.00  0.00    +0.002 A 
ATOM     18  C   LIG    1        4.113  -0.433  -2.067  0.00  0.00    +0.015 A 
BRANCH  13  20
ATOM     19  O   LIG    1        2.033   1.560  -2.129  0.00  0.00    -0.245 OA
ATOM     20  C   LIG    1        1.876   0.468  -2.652  0.00  0.00    +0.337 C 
BRANCH  20  21
ATOM     21  O   LIG    1        0.900   0.213  -3.546  0.00  0.00    -0.477 OA
ATOM     22  H   LIG    1        0.976  -0.634  -4.025  0.00  0.00    +0.295 HD
ENDBRANCH  20  21
ENDBRANCH  13  20
ENDBRANCH   1  15
TORSDOF 4
