REMARK  Name = *****
REMARK                            x       y       z     vdW  Elec       q    Type
REMARK                         _______ _______ _______ _____ _____    ______ ____
ROOT
ATOM      1  C   LIG    1        4.612   1.181   0.153  0.00  0.00    +0.036 A 
ATOM      2  N   LIG    1        5.217   0.246   0.957  0.00  0.00    -0.348 N 
ATOM      3  H   LIG    1        4.727  -0.489   1.459  0.00  0.00    +0.167 HD
ATOM      4  C   LIG    1        6.559   0.480   0.936  0.00  0.00    +0.196 A 
ATOM      5  N   LIG    1        6.854   1.512   0.178  0.00  0.00    -0.244 NA
ATOM      6  C   LIG    1        5.652   1.958  -0.311  0.00  0.00    +0.133 A 
ENDROOT
BRANCH   1   7
ATOM      7  C   LIG    1        3.137   1.244  -0.057  0.00  0.00    +0.069 C 
BRANCH   7   8
ATOM      8  C   LIG    1        2.432  -0.122   0.013  0.00  0.00    +0.084 C 
BRANCH   8   9
ATOM      9  N   LIG    1        2.540  -0.756   1.337  0.00  0.00    -0.330 NA
ATOM     10  H   LIG    1        2.099  -0.147   2.029  0.00  0.00    +0.118 HD
ATOM     11  H   LIG    1        1.980  -1.611   1.332  0.00  0.00    +0.118 HD
ENDBRANCH   8   9
ENDBRANCH   7   8
ENDBRANCH   1   7
TORSDOF 3
