REMARK  Name = *****
REMARK                            x       y       z     vdW  Elec       q    Type
REMARK                         _______ _______ _______ _____ _____    ______ ____
ROOT
ATOM      1  C   LIG    1        2.357   0.048  -0.070  0.00  0.00    +0.117 A 
ATOM      2  C   LIG    1        3.058  -1.153  -0.132  0.00  0.00    +0.049 A 
ATOM      3  C   LIG    1        4.443  -1.133  -0.290  0.00  0.00    +0.049 A 
ATOM      4  C   LIG    1        5.107   0.085  -0.385  0.00  0.00    +0.117 A 
ATOM      5  C   LIG    1        4.409   1.289  -0.313  0.00  0.00    +0.049 A 
ATOM      6  C   LIG    1        3.021   1.269  -0.153  0.00  0.00    +0.049 A 
ENDROOT
BRANCH   1   7
ATOM      7  O   LIG    1        1.002  -0.016   0.072  0.00  0.00    -0.507 OA
ATOM      8  H   LIG    1        0.645   0.887   0.050  0.00  0.00    +0.292 HD
ENDBRANCH   1   7
BRANCH   4   9
ATOM      9  O   LIG    1        6.460   0.059  -0.555  0.00  0.00    -0.507 OA
ATOM     10  H   LIG    1        6.776   0.970  -0.670  0.00  0.00    +0.292 HD
ENDBRANCH   4   9
TORSDOF 2
