REMARK  Name = *****
REMARK                            x       y       z     vdW  Elec       q    Type
REMARK                         _______ _______ _______ _____ _____    ______ ____
ROOT
ATOM      1  C   LIG    1       -3.732   0.249  -0.834  0.00  0.00    +0.132 C 
ATOM      2  C   LIG    1       -3.704  -0.688   0.418  0.00  0.00    +0.011 C 
ATOM      3  C   LIG    1       -2.255  -0.984   0.856  0.00  0.00    +0.015 C 
ATOM      4  C   LIG    1       -4.408  -1.955  -0.140  0.00  0.00    +0.002 C 
ATOM      5  C   LIG    1       -4.988  -2.956   0.882  0.00  0.00    +0.001 C 
ATOM      6  C   LIG    1       -5.699  -2.276   2.075  0.00  0.00    +0.023 C 
ATOM      7  C   LIG    1       -4.863  -1.133   2.671  0.00  0.00    +0.009 C 
ATOM      8  C   LIG    1       -6.099  -3.266   3.159  0.00  0.00    -0.041 A 
ATOM      9  C   LIG    1       -5.589  -4.574   3.203  0.00  0.00    -0.041 A 
ATOM     10  C   LIG    1       -6.031  -5.456   4.206  0.00  0.00    +0.049 A 
ATOM     11  C   LIG    1       -6.919  -5.037   5.197  0.00  0.00    +0.121 A 
ATOM     12  C   LIG    1       -7.399  -3.731   5.168  0.00  0.00    +0.046 A 
ATOM     13  C   LIG    1       -4.614  -5.078   2.170  0.00  0.00    +0.036 C 
ATOM     14  C   LIG    1       -7.003  -2.859   4.153  0.00  0.00    +0.008 A 
ATOM     15  C   LIG    1       -3.935  -3.951   1.392  0.00  0.00    +0.009 C 
ATOM     16  C   LIG    1       -5.512  -1.405  -1.070  0.00  0.00    +0.008 C 
ATOM     17  C   LIG    1       -4.494  -0.098   1.613  0.00  0.00    +0.011 C 
ATOM     18  C   LIG    1       -5.120   0.027  -1.440  0.00  0.00    +0.049 C 
ENDROOT
BRANCH   1  20
ATOM     19  C   LIG    1       -3.299   2.829  -0.288  0.00  0.00    +0.007 C 
ATOM     20  C   LIG    1       -3.489   1.671  -0.535  0.00  0.00    -0.070 C 
ENDBRANCH   1  20
BRANCH   1  21
ATOM     21  O   LIG    1       -2.779  -0.184  -1.808  0.00  0.00    -0.376 OA
ATOM     22  H   LIG    1       -1.918   0.185  -1.548  0.00  0.00    +0.211 HD
ENDBRANCH   1  21
BRANCH  11  23
ATOM     23  O   LIG    1       -7.268  -5.989   6.119  0.00  0.00    -0.489 OA
BRANCH  23  24
ATOM     24  C   LIG    1       -7.644  -5.509   7.403  0.00  0.00    +0.173 C 
ATOM     25  C   LIG    1       -9.155  -5.386   7.575  0.00  0.00    +0.044 C 
ATOM     26  C   LIG    1       -9.305  -5.283   9.085  0.00  0.00    +0.004 C 
ATOM     27  C   LIG    1       -8.210  -6.187   9.654  0.00  0.00    +0.004 C 
ATOM     28  C   LIG    1       -7.303  -6.543   8.476  0.00  0.00    +0.044 C 
ENDBRANCH  23  24
ENDBRANCH  11  23
TORSDOF 4
