REMARK  Name = *****
REMARK                            x       y       z     vdW  Elec       q    Type
REMARK                         _______ _______ _______ _____ _____    ______ ____
ROOT
ATOM      1  C   LIG    1        2.519  -2.176   1.319  0.00  0.00    -0.020 C 
ATOM      2  C   LIG    1        2.000  -1.791   2.599  0.00  0.00    +0.006 C 
ATOM      3  C   LIG    1        1.817  -2.958   3.343  0.00  0.00    +0.047 C 
ATOM      4  C   LIG    1        1.304  -2.955   4.647  0.00  0.00    +0.030 C 
ATOM      5  C   LIG    1        0.956  -1.723   5.207  0.00  0.00    +0.047 C 
ATOM      6  C   LIG    1        1.128  -0.550   4.482  0.00  0.00    +0.118 C 
ATOM      7  N   LIG    1        2.227  -4.010   2.558  0.00  0.00    -0.360 NA
ATOM      8  H   LIG    1        2.210  -4.980   2.839  0.00  0.00    +0.165 HD
ATOM      9  C   LIG    1        1.653  -0.559   3.190  0.00  0.00    +0.055 C 
ATOM     10  C   LIG    1        2.647  -3.552   1.340  0.00  0.00    +0.087 C 
ENDROOT
BRANCH   6  11
ATOM     11  O   LIG    1        0.782   0.662   5.008  0.00  0.00    -0.507 OA
ATOM     12  H   LIG    1        0.428   0.522   5.902  0.00  0.00    +0.292 HD
ENDBRANCH   6  11
BRANCH   1  13
ATOM     13  C   LIG    1        2.860  -1.283   0.162  0.00  0.00    +0.067 C 
BRANCH  13  14
ATOM     14  CA  LIG    1        1.701  -1.036  -0.818  0.00  0.00    +0.165 C 
BRANCH  14  15
ATOM     15  N   LIG    1        0.503  -0.381  -0.196  0.00  0.00    -0.318 NA
ATOM     16  H1  LIG    1        0.352  -0.819   0.722  0.00  0.00    +0.119 HD
ATOM     17  H2  LIG    1        0.774   0.578   0.044  0.00  0.00    +0.119 HD
ENDBRANCH  14  15
BRANCH  14  18
ATOM     18  C   LIG    1        1.254  -2.336  -1.502  0.00  0.00    +0.322 C 
ATOM     19  O   LIG    1        1.993  -3.152  -2.031  0.00  0.00    -0.249 OA
BRANCH  18  20
ATOM     20  OXT LIG    1       -0.101  -2.462  -1.489  0.00  0.00    -0.479 OA
ATOM     21  HXT LIG    1       -0.435  -1.647  -1.037  0.00  0.00    +0.295 HD
ENDBRANCH  18  20
ENDBRANCH  14  18
ENDBRANCH  13  14
ENDBRANCH   1  13
TORSDOF 6
