REMARK  Name = *****
REMARK                            x       y       z     vdW  Elec       q    Type
REMARK                         _______ _______ _______ _____ _____    ______ ____
ROOT
ATOM      1  C   LIG    1       -1.016   5.412  -0.117  0.00  0.00    +0.250 C 
ATOM      2  N   LIG    1        0.139   4.920   0.456  0.00  0.00    -0.298 N 
ATOM      3  H   LIG    1        0.186   3.927   0.655  0.00  0.00    +0.150 HD
ATOM      4  O   LIG    1       -1.074   6.551  -0.566  0.00  0.00    -0.270 OA
ENDROOT
BRANCH   2   5
ATOM      5  CA  LIG    1        1.384   5.727   0.582  0.00  0.00    +0.190 C 
ATOM      6  C   LIG    1        1.522   6.727   1.761  0.00  0.00    +0.165 C 
ATOM      7  S   LIG    1        0.325   6.608   3.123  0.00  0.00    -0.127 S 
ATOM      8  C   LIG    1        1.422   5.636   4.251  0.00  0.00    +0.042 C 
ATOM      9  CA  LIG    1        2.842   5.636   3.630  0.00  0.00    +0.201 C 
ATOM     10  C   LIG    1        0.866   4.202   4.307  0.00  0.00    +0.025 C 
ATOM     11  C   LIG    1        1.294   6.259   5.646  0.00  0.00    +0.025 C 
ATOM     12  N   LIG    1        2.723   5.983   2.202  0.00  0.00    -0.271 N 
ATOM     13  C   LIG    1        2.531   4.975   1.294  0.00  0.00    +0.240 C 
ATOM     14  O   LIG    1        2.963   3.843   1.274  0.00  0.00    -0.273 OA
BRANCH   9  15
ATOM     15  C   LIG    1        3.879   6.535   4.313  0.00  0.00    +0.327 C 
ATOM     16  O   LIG    1        4.178   6.470   5.497  0.00  0.00    -0.249 OA
BRANCH  15  17
ATOM     17  OXT LIG    1        4.504   7.389   3.467  0.00  0.00    -0.479 OA
ATOM     18  HXT LIG    1        4.205   7.237   2.547  0.00  0.00    +0.295 HD
ENDBRANCH  15  17
ENDBRANCH   9  15
ENDBRANCH   2   5
BRANCH   1  21
ATOM     19  C   LIG    1       -1.901   3.201   2.146  0.00  0.00    +0.090 C 
ATOM     20  C   LIG    1       -2.420   3.530   0.805  0.00  0.00    +0.147 A 
ATOM     21  C   LIG    1       -2.112   4.462  -0.173  0.00  0.00    +0.106 A 
ATOM     22  C   LIG    1       -3.163   4.292  -1.141  0.00  0.00    +0.126 A 
ATOM     23  N   LIG    1       -3.944   3.254  -0.785  0.00  0.00    -0.077 NA
ATOM     24  O   LIG    1       -3.486   2.796   0.417  0.00  0.00    -0.359 OA
BRANCH  22  25
ATOM     25  C   LIG    1       -3.492   5.017  -2.375  0.00  0.00    +0.004 A 
ATOM     26  C   LIG    1       -4.832   5.051  -2.809  0.00  0.00    +0.010 A 
ATOM     27  C   LIG    1       -5.200   5.705  -3.986  0.00  0.00    +0.001 A 
ATOM     28  C   LIG    1       -4.231   6.343  -4.752  0.00  0.00    +0.000 A 
ATOM     29  C   LIG    1       -2.899   6.318  -4.342  0.00  0.00    +0.001 A 
ATOM     30  C   LIG    1       -2.529   5.654  -3.165  0.00  0.00    +0.010 A 
ENDBRANCH  22  25
ENDBRANCH   1  21
TORSDOF 5
