REMARK  Name = *****
REMARK                            x       y       z     vdW  Elec       q    Type
REMARK                         _______ _______ _______ _____ _____    ______ ____
ROOT
ATOM      1  C   LIG    1        5.993   2.921   1.444  0.00  0.00    +0.180 C 
ENDROOT
BRANCH   1   2
ATOM      2  O   LIG    1        5.063   1.862   1.746  0.00  0.00    -0.386 OA
ATOM      3  H   LIG    1        4.213   2.292   1.967  0.00  0.00    +0.210 HD
ENDBRANCH   1   2
BRANCH   1   4
ATOM      4  C   LIG    1        6.714   3.374   2.724  0.00  0.00    +0.208 C 
BRANCH   4   6
ATOM      5  O   LIG    1        7.266   1.869   4.519  0.00  0.00    -0.298 OA
ATOM      6  C   LIG    1        7.519   2.266   3.394  0.00  0.00    +0.257 C 
ENDBRANCH   4   6
BRANCH   4   7
ATOM      7  O   LIG    1        5.741   3.878   3.647  0.00  0.00    -0.382 OA
ATOM      8  H   LIG    1        5.660   3.195   4.348  0.00  0.00    +0.210 HD
ENDBRANCH   4   7
ENDBRANCH   1   4
BRANCH   1   9
ATOM      9  C   LIG    1        6.896   2.412   0.312  0.00  0.00    +0.171 C 
BRANCH   9  10
ATOM     10  O   LIG    1        7.639   1.256   0.734  0.00  0.00    -0.387 OA
ATOM     11  H   LIG    1        6.969   0.626   1.076  0.00  0.00    +0.210 HD
ENDBRANCH   9  10
BRANCH   9  12
ATOM     12  C   LIG    1        7.887   3.457  -0.200  0.00  0.00    +0.190 C 
BRANCH  12  13
ATOM     13  O   LIG    1        8.585   2.927  -1.325  0.00  0.00    -0.392 OA
ATOM     14  H   LIG    1        8.863   2.026  -1.063  0.00  0.00    +0.209 HD
ENDBRANCH  12  13
ENDBRANCH   9  12
ENDBRANCH   1   9
TORSDOF 8
