REMARK  Name = *****
REMARK                            x       y       z     vdW  Elec       q    Type
REMARK                         _______ _______ _______ _____ _____    ______ ____
ROOT
ATOM      1  N   LIG    1        0.962  -0.041  -0.077  0.00  0.00    -0.312 N 
ATOM      2  H   LIG    1        0.520  -0.952  -0.112  0.00  0.00    +0.146 HD
ATOM      3  H   LIG    1        0.549   0.597   0.593  0.00  0.00    +0.146 HD
ATOM      4  C   LIG    1        2.320  -0.084   0.004  0.00  0.00    +0.320 C 
ATOM      5  N   LIG    1        2.895  -1.049  -0.763  0.00  0.00    -0.181 N 
ATOM      6  H   LIG    1        3.905  -1.073  -0.851  0.00  0.00    +0.184 HD
ATOM      7  O   LIG    1        2.950   0.693   0.707  0.00  0.00    -0.251 OA
ENDROOT
BRANCH   5   8
ATOM      8  O   LIG    1        2.140  -1.659  -1.787  0.00  0.00    -0.294 OA
ATOM      9  H   LIG    1        1.505  -0.953  -2.023  0.00  0.00    +0.241 HD
ENDBRANCH   5   8
TORSDOF 1
