REMARK  Name = *****
REMARK                            x       y       z     vdW  Elec       q    Type
REMARK                         _______ _______ _______ _____ _____    ______ ____
ROOT
ATOM      1  C   LIG    1        1.792   0.247   2.559  0.00  0.00    +0.169 C 
ATOM      2  C   LIG    1        0.744  -0.888   2.372  0.00  0.00    +0.175 C 
ATOM      3  C   LIG    1        0.068  -1.334   3.694  0.00  0.00    +0.169 C 
ATOM      4  C   LIG    1       -0.156  -0.048   4.556  0.00  0.00    +0.084 C 
ATOM      5  C   LIG    1        1.155   0.617   5.007  0.00  0.00    +0.042 C 
ATOM      6  C   LIG    1        2.313   0.447   3.997  0.00  0.00    +0.084 C 
ENDROOT
BRANCH   4   7
ATOM      7  N   LIG    1       -1.141  -0.177   5.640  0.00  0.00    -0.325 NA
ATOM      8  H   LIG    1       -1.258   0.722   6.112  0.00  0.00    +0.118 HD
ATOM      9  H   LIG    1       -0.833  -0.814   6.370  0.00  0.00    +0.118 HD
ENDBRANCH   4   7
BRANCH   6  10
ATOM     10  N   LIG    1        3.216  -0.630   4.402  0.00  0.00    -0.325 NA
ATOM     11  H   LIG    1        3.933  -0.262   5.027  0.00  0.00    +0.118 HD
ATOM     12  H   LIG    1        3.715  -0.952   3.568  0.00  0.00    +0.118 HD
ENDBRANCH   6  10
BRANCH   2  13
ATOM     13  O   LIG    1       -0.275  -0.355   1.477  0.00  0.00    -0.387 OA
ATOM     14  H   LIG    1       -1.122  -0.742   1.689  0.00  0.00    +0.210 HD
ENDBRANCH   2  13
BRANCH   1  15
ATOM     15  O   LIG    1        2.916   0.172   1.651  0.00  0.00    -0.342 OA
BRANCH  15  18
ATOM     16  C   LIG    1        4.599   1.065  -1.040  0.00  0.00    +0.138 C 
ATOM     17  O   LIG    1        3.810  -0.025  -0.520  0.00  0.00    -0.345 OA
ATOM     18  C   LIG    1        2.635   0.374   0.253  0.00  0.00    +0.268 C 
ATOM     19  C   LIG    1        2.226   1.854  -0.085  0.00  0.00    +0.107 C 
ATOM     20  C   LIG    1        3.390   2.806   0.258  0.00  0.00    +0.026 C 
ATOM     21  C   LIG    1        4.749   2.143   0.028  0.00  0.00    +0.035 C 
BRANCH  19  22
ATOM     22  N   LIG    1        0.976   2.407   0.461  0.00  0.00    -0.323 NA
ATOM     23  H   LIG    1        1.150   2.829   1.367  0.00  0.00    +0.119 HD
ATOM     24  H   LIG    1        0.318   1.630   0.621  0.00  0.00    +0.119 HD
ENDBRANCH  19  22
BRANCH  16  25
ATOM     25  C   LIG    1        5.971   0.601  -1.617  0.00  0.00    +0.079 C 
ATOM     26  C   LIG    1        6.875  -0.037  -0.559  0.00  0.00    +0.026 C 
BRANCH  25  28
ATOM     27  C   LIG    1        5.207   0.210  -3.913  0.00  0.00    +0.101 C 
ATOM     28  N   LIG    1        5.849  -0.359  -2.735  0.00  0.00    -0.314 NA
ATOM     29  H   LIG    1        5.295  -1.153  -2.405  0.00  0.00    +0.122 HD
ENDBRANCH  25  28
ENDBRANCH  16  25
ENDBRANCH  15  18
ENDBRANCH   1  15
BRANCH   3  30
ATOM     30  O   LIG    1        0.866  -2.381   4.256  0.00  0.00    -0.341 OA
BRANCH  30  31
ATOM     31  C   LIG    1        0.456  -2.965   5.479  0.00  0.00    +0.281 C 
ATOM     32  C   LIG    1       -0.982  -3.564   5.521  0.00  0.00    +0.190 C 
ATOM     33  C   LIG    1       -1.118  -4.952   4.801  0.00  0.00    +0.121 C 
ATOM     34  C   LIG    1        0.070  -5.887   5.214  0.00  0.00    +0.104 C 
ATOM     35  C   LIG    1       -0.107  -6.408   6.650  0.00  0.00    +0.045 C 
ATOM     36  C   LIG    1        1.394  -5.117   5.080  0.00  0.00    +0.199 C 
ATOM     37  O   LIG    1        1.407  -3.956   5.905  0.00  0.00    -0.346 OA
BRANCH  33  38
ATOM     38  N   LIG    1       -1.293  -4.724   3.328  0.00  0.00    -0.311 NA
ATOM     39  H   LIG    1       -2.046  -4.042   3.224  0.00  0.00    +0.122 HD
ATOM     40  C   LIG    1       -1.730  -5.917   2.599  0.00  0.00    +0.101 C 
ENDBRANCH  33  38
BRANCH  32  41
ATOM     41  O   LIG    1       -1.435  -3.675   6.885  0.00  0.00    -0.385 OA
ATOM     42  H   LIG    1       -0.643  -3.717   7.458  0.00  0.00    +0.210 HD
ENDBRANCH  32  41
BRANCH  34  43
ATOM     43  O   LIG    1        0.123  -7.081   4.418  0.00  0.00    -0.385 OA
ATOM     44  H   LIG    1        0.584  -6.857   3.596  0.00  0.00    +0.210 HD
ENDBRANCH  34  43
ENDBRANCH  30  31
ENDBRANCH   3  30
TORSDOF 13
