REMARK  Name = *****
REMARK                            x       y       z     vdW  Elec       q    Type
REMARK                         _______ _______ _______ _____ _____    ______ ____
ROOT
ATOM      1  C   LIG    1       -3.415   0.363   1.565  0.00  0.00    +0.042 C 
ATOM      2  C   LIG    1       -2.645  -0.115   0.336  0.00  0.00    +0.069 C 
ATOM      3  C   LIG    1       -3.201   0.345  -1.057  0.00  0.00    -0.000 C 
ATOM      4  C   LIG    1       -4.743   0.213  -1.122  0.00  0.00    +0.014 C 
ATOM      5  C   LIG    1       -2.594  -0.713  -2.057  0.00  0.00    +0.001 C 
ATOM      6  C   LIG    1       -1.425  -0.217  -2.924  0.00  0.00    -0.004 C 
ATOM      7  C   LIG    1       -1.677   1.190  -3.494  0.00  0.00    -0.001 C 
ATOM      8  C   LIG    1       -1.770   2.131  -2.284  0.00  0.00    +0.005 C 
ATOM      9  C   LIG    1       -2.427   1.404  -4.984  0.00  0.00    -0.022 C 
ATOM     10  C   LIG    1       -2.544   2.942  -5.098  0.00  0.00    +0.012 C 
ATOM     11  C   LIG    1       -1.334   0.641  -5.818  0.00  0.00    +0.001 C 
ATOM     12  C   LIG    1       -1.250   0.454  -7.325  0.00  0.00    +0.059 C 
ATOM     13  C   LIG    1       -2.582   0.088  -7.761  0.00  0.00    +0.040 A 
ATOM     14  C   LIG    1       -3.763   0.275  -7.013  0.00  0.00    -0.006 A 
ATOM     15  C   LIG    1       -4.700  -0.318  -7.878  0.00  0.00    +0.138 A 
ATOM     16  N   LIG    1       -4.165  -0.907  -8.967  0.00  0.00    -0.182 NA
ATOM     17  N   LIG    1       -2.854  -0.685  -8.803  0.00  0.00    -0.281 N 
ATOM     18  H   LIG    1       -2.174  -1.161  -9.448  0.00  0.00    +0.189 HD
ATOM     19  C   LIG    1       -1.503  -0.863  -5.317  0.00  0.00    +0.005 C 
ATOM     20  C   LIG    1       -3.846   0.863  -5.560  0.00  0.00    +0.045 C 
ATOM     21  C   LIG    1       -0.937  -1.194  -3.979  0.00  0.00    +0.004 C 
ATOM     22  C   LIG    1       -2.141  -1.913  -1.176  0.00  0.00    +0.007 C 
ATOM     23  C   LIG    1       -2.919   1.840  -1.357  0.00  0.00    +0.010 C 
ATOM     24  C   LIG    1       -2.652  -1.642   0.233  0.00  0.00    +0.035 C 
ENDROOT
BRANCH   2  25
ATOM     25  O   LIG    1       -1.298   0.335   0.534  0.00  0.00    -0.388 OA
ATOM     26  H   LIG    1       -0.740   0.020  -0.193  0.00  0.00    +0.210 HD
ENDBRANCH   2  25
TORSDOF 1
