REMARK  Name = *****
REMARK                            x       y       z     vdW  Elec       q    Type
REMARK                         _______ _______ _______ _____ _____    ______ ____
ROOT
ATOM      1  O   LIG    1        0.483   4.639  -2.310  0.00  0.00    -0.283 OA
ATOM      2  C   LIG    1        1.081   4.603  -1.234  0.00  0.00    +0.228 C 
ATOM      3  C   LIG    1        2.426   3.974  -1.188  0.00  0.00    +0.171 C 
ATOM      4  C   LIG    1        3.141   3.842  -0.056  0.00  0.00    +0.048 C 
ATOM      5  C   LIG    1        2.499   4.298   1.230  0.00  0.00    +0.194 C 
ATOM      6  O   LIG    1        2.999   4.048   2.324  0.00  0.00    -0.287 OA
ATOM      7  C   LIG    1        1.225   5.046   1.182  0.00  0.00    +0.033 A 
ATOM      8  C   LIG    1        0.693   5.614   2.348  0.00  0.00    +0.012 A 
ATOM      9  C   LIG    1       -0.526   6.298   2.304  0.00  0.00    +0.001 A 
ATOM     10  C   LIG    1       -1.225   6.408   1.102  0.00  0.00    +0.001 A 
ATOM     11  C   LIG    1       -0.699   5.847  -0.059  0.00  0.00    +0.012 A 
ATOM     12  C   LIG    1        0.529   5.174  -0.012  0.00  0.00    +0.036 A 
ENDROOT
BRANCH   4  13
ATOM     13  C   LIG    1        4.512   3.165   0.110  0.00  0.00    +0.026 C 
ATOM     14  C   LIG    1        5.112   2.427  -1.109  0.00  0.00    +0.009 C 
ATOM     15  C   LIG    1        5.842   3.319  -2.131  0.00  0.00    +0.009 C 
ATOM     16  C   LIG    1        6.834   4.327  -1.520  0.00  0.00    +0.019 C 
ATOM     17  C   LIG    1        6.160   5.066  -0.348  0.00  0.00    +0.009 C 
ATOM     18  C   LIG    1        5.593   4.104   0.692  0.00  0.00    +0.009 C 
BRANCH  16  19
ATOM     19  C   LIG    1        8.214   3.775  -1.165  0.00  0.00    -0.044 A 
ATOM     20  C   LIG    1        9.229   4.668  -0.774  0.00  0.00    +0.005 A 
ATOM     21  C   LIG    1       10.516   4.213  -0.469  0.00  0.00    +0.020 A 
ATOM     22  C   LIG    1       10.810   2.858  -0.564  0.00  0.00    +0.041 A 
ATOM     23 CL   LIG    1       12.392   2.291  -0.201  0.00  0.00    -0.084 Cl
ATOM     24  C   LIG    1        9.830   1.957  -0.962  0.00  0.00    +0.020 A 
ATOM     25  C   LIG    1        8.545   2.415  -1.263  0.00  0.00    +0.005 A 
ENDBRANCH  16  19
ENDBRANCH   4  13
BRANCH   3  26
ATOM     26  O   LIG    1        2.862   3.516  -2.415  0.00  0.00    -0.503 OA
ATOM     27  H   LIG    1        2.141   3.726  -3.049  0.00  0.00    +0.292 HD
ENDBRANCH   3  26
TORSDOF 3
