REMARK  Name = *****
REMARK                            x       y       z     vdW  Elec       q    Type
REMARK                         _______ _______ _______ _____ _____    ______ ____
ROOT
ATOM      1  C   LIG    1        2.236   0.233  -1.108  0.00  0.00    +0.105 C 
ATOM      2  N   LIG    1        2.295  -0.489   0.166  0.00  0.00    -0.297 NA
ENDROOT
BRANCH   2   3
ATOM      3  C   LIG    1        2.883   0.393   1.192  0.00  0.00    +0.120 C 
BRANCH   3   4
ATOM      4  C   LIG    1        2.971  -0.147   2.612  0.00  0.00    -0.026 A 
ATOM      5  C   LIG    1        1.826  -0.525   3.369  0.00  0.00    -0.013 A 
ATOM      6  C   LIG    1        1.996  -0.892   4.729  0.00  0.00    -0.018 A 
ATOM      7  C   LIG    1        0.882  -1.249   5.505  0.00  0.00    +0.008 A 
ATOM      8  C   LIG    1       -0.402  -1.278   4.957  0.00  0.00    +0.001 A 
ATOM      9  C   LIG    1       -0.580  -0.949   3.621  0.00  0.00    +0.001 A 
ATOM     10  C   LIG    1        3.278  -0.898   5.302  0.00  0.00    +0.008 A 
ATOM     11  C   LIG    1        4.396  -0.557   4.550  0.00  0.00    +0.001 A 
ATOM     12  C   LIG    1        0.515  -0.567   2.849  0.00  0.00    +0.009 A 
ATOM     13  C   LIG    1        4.244  -0.183   3.216  0.00  0.00    +0.005 A 
ENDBRANCH   3   4
ENDBRANCH   2   3
BRANCH   2  14
ATOM     14  C   LIG    1        3.035  -1.752   0.004  0.00  0.00    +0.119 C 
BRANCH  14  15
ATOM     15  C   LIG    1        2.462  -2.883   0.830  0.00  0.00    -0.033 A 
ATOM     16  C   LIG    1        1.145  -3.315   0.641  0.00  0.00    +0.005 A 
ATOM     17  C   LIG    1        0.628  -4.389   1.375  0.00  0.00    +0.004 A 
ATOM     18  C   LIG    1        1.414  -5.088   2.309  0.00  0.00    -0.042 A 
ATOM     19  C   LIG    1        2.716  -4.605   2.527  0.00  0.00    +0.004 A 
ATOM     20  C   LIG    1        3.238  -3.535   1.790  0.00  0.00    +0.005 A 
BRANCH  18  21
ATOM     21  C   LIG    1        0.872  -6.313   3.067  0.00  0.00    -0.013 C 
ATOM     22  C   LIG    1        1.993  -7.324   3.410  0.00  0.00    +0.015 C 
ATOM     23  C   LIG    1       -0.173  -7.097   2.238  0.00  0.00    +0.015 C 
ATOM     24  C   LIG    1        0.210  -5.856   4.380  0.00  0.00    +0.015 C 
ENDBRANCH  18  21
ENDBRANCH  14  15
ENDBRANCH   2  14
TORSDOF 5
