REMARK  Name = *****
REMARK                            x       y       z     vdW  Elec       q    Type
REMARK                         _______ _______ _______ _____ _____    ______ ____
ROOT
ATOM      1  C   LIG    1       -1.746  -0.478  -1.423  0.00  0.00    +0.016 C 
ATOM      2  C   LIG    1       -3.130  -0.045  -0.877  0.00  0.00    -0.003 C 
ATOM      3  C   LIG    1       -3.950   0.485  -2.042  0.00  0.00    -0.036 C 
ATOM      4  C   LIG    1       -3.842   1.818  -2.156  0.00  0.00    -0.022 C 
ATOM      5  C   LIG    1       -2.981   2.384  -1.073  0.00  0.00    +0.032 C 
ATOM      6  C   LIG    1       -2.989   1.253  -0.012  0.00  0.00    +0.007 C 
ATOM      7  C   LIG    1       -4.155   1.492   0.999  0.00  0.00    +0.001 C 
ATOM      8  C   LIG    1       -3.897   2.679   1.946  0.00  0.00    +0.031 C 
ATOM      9  C   LIG    1       -2.883   2.348   2.987  0.00  0.00    -0.027 C 
ATOM     10  C   LIG    1       -2.756   1.114   3.500  0.00  0.00    -0.065 C 
ATOM     11  C   LIG    1       -3.685  -0.052   3.126  0.00  0.00    -0.008 C 
ATOM     12  C   LIG    1       -4.712  -0.203   4.290  0.00  0.00    +0.016 C 
ATOM     13  C   LIG    1       -2.849  -1.372   3.125  0.00  0.00    +0.013 C 
ATOM     14  C   LIG    1       -1.375  -1.152   2.772  0.00  0.00    +0.032 C 
ATOM     15  C   LIG    1       -0.683  -0.268   3.821  0.00  0.00    +0.119 C 
ATOM     16  C   LIG    1       -1.623   0.779   4.440  0.00  0.00    +0.062 C 
ATOM     17  C   LIG    1       -4.551   0.244   1.818  0.00  0.00    +0.003 C 
ATOM     18  C   LIG    1       -4.850  -0.916   0.861  0.00  0.00    +0.005 C 
ATOM     19  C   LIG    1       -3.722  -1.240  -0.109  0.00  0.00    +0.012 C 
ENDROOT
BRANCH   3  20
ATOM     20  C   LIG    1       -4.642  -0.344  -3.018  0.00  0.00    -0.004 A 
ATOM     21  C   LIG    1       -4.018  -0.743  -4.197  0.00  0.00    +0.119 A 
ATOM     22  N   LIG    1       -4.604  -1.501  -5.158  0.00  0.00    -0.263 NA
ATOM     23  C   LIG    1       -5.881  -1.872  -4.932  0.00  0.00    +0.111 A 
ATOM     24  C   LIG    1       -6.598  -1.519  -3.800  0.00  0.00    +0.020 A 
ATOM     25  C   LIG    1       -5.968  -0.736  -2.834  0.00  0.00    +0.011 A 
ENDBRANCH   3  20
BRANCH  15  26
ATOM     26  O   LIG    1       -0.179  -1.093   4.874  0.00  0.00    -0.392 OA
ATOM     27  H   LIG    1        0.460  -1.712   4.481  0.00  0.00    +0.210 HD
ENDBRANCH  15  26
TORSDOF 2
