REMARK  Name = *****
REMARK                            x       y       z     vdW  Elec       q    Type
REMARK                         _______ _______ _______ _____ _____    ______ ____
ROOT
ATOM      1  C   LIG    1        4.594  -1.346   0.776  0.00  0.00    +0.119 C 
ATOM      2  N   LIG    1        5.216  -2.459   1.526  0.00  0.00    -0.330 N 
ATOM      3  H   LIG    1        4.854  -2.589   2.482  0.00  0.00    +0.147 HD
ATOM      4  C   LIG    1        6.614  -2.570   1.502  0.00  0.00    +0.133 A 
ATOM      5  C   LIG    1        7.384  -1.964   0.563  0.00  0.00    +0.126 A 
ATOM      6  N   LIG    1        8.737  -2.146   0.613  0.00  0.00    -0.315 N 
ATOM      7  H   LIG    1        9.268  -1.844  -0.187  0.00  0.00    +0.170 HD
ATOM      8  C   LIG    1        9.305  -2.978   1.520  0.00  0.00    +0.195 A 
ATOM      9  N   LIG    1        8.678  -3.591   2.465  0.00  0.00    -0.176 NA
ATOM     10  N   LIG    1        6.791  -1.171  -0.421  0.00  0.00    -0.327 N 
ATOM     11  H   LIG    1        7.312  -1.165  -1.292  0.00  0.00    +0.147 HD
ATOM     12  C   LIG    1        7.320  -3.378   2.582  0.00  0.00    +0.297 A 
ATOM     13  O   LIG    1        6.654  -3.815   3.521  0.00  0.00    -0.264 OA
ATOM     14  C   LIG    1        5.323  -1.208  -0.599  0.00  0.00    +0.128 C 
ENDROOT
BRANCH   8  15
ATOM     15  N   LIG    1       10.642  -3.132   1.357  0.00  0.00    -0.329 N 
ATOM     16  H   LIG    1       11.024  -3.675   2.128  0.00  0.00    +0.145 HD
ATOM     17  H   LIG    1       11.147  -2.260   1.261  0.00  0.00    +0.145 HD
ENDBRANCH   8  15
BRANCH   1  18
ATOM     18  C   LIG    1        3.090  -1.649   0.576  0.00  0.00    +0.164 C 
BRANCH  18  20
ATOM     19  C   LIG    1        0.795  -1.792   1.679  0.00  0.00    +0.040 C 
ATOM     20  C   LIG    1        2.285  -1.540   1.891  0.00  0.00    +0.142 C 
BRANCH  20  21
ATOM     21  O   LIG    1        2.758  -2.486   2.855  0.00  0.00    -0.389 OA
ATOM     22  H   LIG    1        2.573  -3.373   2.492  0.00  0.00    +0.210 HD
ENDBRANCH  20  21
ENDBRANCH  18  20
BRANCH  18  23
ATOM     23  O   LIG    1        2.951  -2.981   0.048  0.00  0.00    -0.387 OA
ATOM     24  H   LIG    1        3.696  -3.485   0.443  0.00  0.00    +0.210 HD
ENDBRANCH  18  23
ENDBRANCH   1  18
TORSDOF 5
