REMARK  Name = *****
REMARK                            x       y       z     vdW  Elec       q    Type
REMARK                         _______ _______ _______ _____ _____    ______ ____
ROOT
ATOM      1  C   LIG    1        2.732   0.121   0.245  0.00  0.00    +0.370 C 
ATOM      2  N   LIG    1        3.734  -0.225  -0.625  0.00  0.00    -0.182 N 
ATOM      3  C   LIG    1        4.995   0.098   0.040  0.00  0.00    +0.212 C 
ATOM      4  C   LIG    1        5.685  -1.187   0.468  0.00  0.00    -0.006 A 
ATOM      5  C   LIG    1        6.268  -1.971  -0.550  0.00  0.00    -0.037 A 
ATOM      6  C   LIG    1        6.193  -1.501  -1.982  0.00  0.00    +0.074 C 
ATOM      7  C   LIG    1        4.792  -1.403  -2.562  0.00  0.00    -0.006 A 
ATOM      8  C   LIG    1        4.640  -1.951  -3.861  0.00  0.00    +0.007 A 
ATOM      9  C   LIG    1        3.431  -1.893  -4.543  0.00  0.00    +0.001 A 
ATOM     10  C   LIG    1        2.357  -1.256  -3.952  0.00  0.00    +0.003 A 
ATOM     11  C   LIG    1        2.495  -0.696  -2.677  0.00  0.00    +0.040 A 
ATOM     12  C   LIG    1        6.911  -3.177  -0.233  0.00  0.00    +0.004 A 
ATOM     13  C   LIG    1        6.973  -3.615   1.086  0.00  0.00    +0.000 A 
ATOM     14  C   LIG    1        6.381  -2.860   2.094  0.00  0.00    +0.000 A 
ATOM     15  C   LIG    1        5.733  -1.660   1.787  0.00  0.00    +0.007 A 
ATOM     16  C   LIG    1        4.498   1.053   1.150  0.00  0.00    +0.287 C 
ATOM     17  C   LIG    1        3.689  -0.769  -1.923  0.00  0.00    +0.099 A 
ATOM     18  N   LIG    1        3.041   0.800   1.321  0.00  0.00    -0.113 NA
ENDROOT
BRANCH   1  19
ATOM     19  N   LIG    1        1.459  -0.292   0.064  0.00  0.00    -0.251 N 
ATOM     20  H   LIG    1        1.400  -1.260  -0.229  0.00  0.00    +0.241 HD
ATOM     21  H   LIG    1        0.907  -0.115   0.896  0.00  0.00    +0.241 HD
ENDBRANCH   1  19
TORSDOF 1
