REMARK  Name = *****
REMARK                            x       y       z     vdW  Elec       q    Type
REMARK                         _______ _______ _______ _____ _____    ______ ____
ROOT
ATOM      1  C   LIG    1        6.420   1.255   3.647  0.00  0.00    +0.173 A 
ATOM      2  C   LIG    1        7.266   2.351   3.394  0.00  0.00    +0.206 A 
ATOM      3  C   LIG    1        6.865   3.299   2.423  0.00  0.00    +0.187 A 
ATOM      4  C   LIG    1        5.546   3.343   1.935  0.00  0.00    +0.085 A 
ATOM      5  C   LIG    1        4.775   2.230   2.219  0.00  0.00    +0.094 A 
ATOM      6  C   LIG    1        3.373   2.004   1.893  0.00  0.00    +0.342 C 
ATOM      7  O   LIG    1        3.039   0.825   2.494  0.00  0.00    -0.451 OA
ATOM      8  C   LIG    1        4.208   0.066   2.918  0.00  0.00    +0.233 C 
ATOM      9  O   LIG    1        2.621   2.761   1.325  0.00  0.00    -0.245 OA
ATOM     10  C   LIG    1        5.218   1.159   2.968  0.00  0.00    +0.056 A 
ENDROOT
BRANCH   8  11
ATOM     11  C   LIG    1        4.457  -1.100   1.865  0.00  0.00    +0.136 C 
ATOM     12  N   LIG    1        3.302  -2.023   1.622  0.00  0.00    -0.295 NA
ATOM     13  C   LIG    1        2.130  -1.406   1.017  0.00  0.00    +0.105 C 
ATOM     14  C   LIG    1        2.959  -2.765   2.836  0.00  0.00    +0.089 C 
ATOM     15  C   LIG    1        4.101  -3.704   3.231  0.00  0.00    +0.051 C 
ATOM     16  C   LIG    1        5.486  -3.149   2.990  0.00  0.00    -0.034 A 
ATOM     17  C   LIG    1        6.585  -3.911   3.409  0.00  0.00    +0.053 A 
ATOM     18  C   LIG    1        7.844  -3.474   3.067  0.00  0.00    +0.170 A 
ATOM     19  O   LIG    1        9.000  -4.099   3.419  0.00  0.00    -0.453 OA
ATOM     20  C   LIG    1        9.969  -3.214   2.833  0.00  0.00    +0.467 C 
ATOM     21  O   LIG    1        9.379  -2.139   2.079  0.00  0.00    -0.449 OA
ATOM     22  C   LIG    1        8.047  -2.357   2.288  0.00  0.00    +0.208 A 
ATOM     23  C   LIG    1        6.982  -1.600   1.814  0.00  0.00    +0.170 A 
ATOM     24  C   LIG    1        5.678  -1.957   2.230  0.00  0.00    +0.022 A 
BRANCH  23  25
ATOM     25  O   LIG    1        7.091  -0.521   0.979  0.00  0.00    -0.491 OA
ATOM     26  C   LIG    1        8.188  -0.551   0.069  0.00  0.00    +0.277 C 
ENDBRANCH  23  25
ENDBRANCH   8  11
BRANCH   4  27
ATOM     27  N   LIG    1        5.148   4.301   0.987  0.00  0.00    -0.354 N 
ATOM     28  H   LIG    1        5.646   5.183   1.077  0.00  0.00    +0.142 HD
ATOM     29  H   LIG    1        4.136   4.406   0.901  0.00  0.00    +0.142 HD
ENDBRANCH   4  27
BRANCH   1  30
ATOM     30  O   LIG    1        6.742   0.224   4.484  0.00  0.00    -0.488 OA
BRANCH  30  32
ATOM     31  C   LIG    1        5.883  -0.159   6.683  0.00  0.00    +0.048 C 
ATOM     32  C   LIG    1        6.879   0.628   5.848  0.00  0.00    +0.226 C 
ENDBRANCH  30  32
ENDBRANCH   1  30
BRANCH   2  33
ATOM     33  O   LIG    1        8.486   2.355   4.022  0.00  0.00    -0.485 OA
BRANCH  33  34
ATOM     34  C   LIG    1        8.995   3.624   4.452  0.00  0.00    +0.226 C 
ATOM     35  C   LIG    1        9.052   3.658   5.971  0.00  0.00    +0.048 C 
ENDBRANCH  33  34
ENDBRANCH   2  33
BRANCH   3  36
ATOM     36  O   LIG    1        7.773   4.177   1.864  0.00  0.00    -0.487 OA
BRANCH  36  37
ATOM     37  C   LIG    1        8.560   3.480   0.879  0.00  0.00    +0.226 C 
ATOM     38  C   LIG    1        7.954   3.620  -0.509  0.00  0.00    +0.048 C 
ENDBRANCH  36  37
ENDBRANCH   3  36
TORSDOF 9
