REMARK  Name = *****
REMARK                            x       y       z     vdW  Elec       q    Type
REMARK                         _______ _______ _______ _____ _____    ______ ____
ROOT
ATOM      1  C   LIG    1        4.824  -2.483   1.084  0.00  0.00    +0.127 C 
ATOM      2  C   LIG    1        6.285  -2.537   0.670  0.00  0.00    +0.234 C 
ATOM      3  O   LIG    1        7.118  -1.702   1.018  0.00  0.00    -0.274 OA
ATOM      4  N   LIG    1        6.671  -3.603  -0.077  0.00  0.00    -0.266 N 
ATOM      5  H   LIG    1        7.652  -3.679  -0.310  0.00  0.00    +0.157 HD
ATOM      6  C   LIG    1        5.846  -4.638  -0.342  0.00  0.00    +0.150 C 
ATOM      7  N   LIG    1        4.593  -4.672  -0.110  0.00  0.00    -0.158 NA
ATOM      8  C   LIG    1        3.978  -3.547   0.382  0.00  0.00    +0.254 C 
ATOM      9  O   LIG    1        2.762  -3.421   0.297  0.00  0.00    -0.273 OA
ENDROOT
BRANCH   1  10
ATOM     10  C   LIG    1        4.739  -2.678   2.655  0.00  0.00    +0.010 C 
ATOM     11  C   LIG    1        3.330  -2.416   3.217  0.00  0.00    +0.009 C 
BRANCH  10  12
ATOM     12  C   LIG    1        5.253  -4.068   3.134  0.00  0.00    +0.004 C 
BRANCH  12  14
ATOM     13  C   LIG    1        5.857  -5.569   5.089  0.00  0.00    +0.004 C 
ATOM     14  C   LIG    1        5.347  -4.200   4.662  0.00  0.00    -0.003 C 
ENDBRANCH  12  14
ENDBRANCH  10  12
ENDBRANCH   1  10
BRANCH   1  15
ATOM     15  C   LIG    1        4.301  -1.071   0.668  0.00  0.00    +0.022 C 
ATOM     16  C   LIG    1        4.406  -0.755  -0.825  0.00  0.00    +0.005 C 
ENDBRANCH   1  15
BRANCH   6  17
ATOM     17  S   LIG    1        6.656  -5.994  -1.047  0.00  0.00    -0.110 S 
ATOM     18  H   LIG    1        5.564  -6.772  -1.100  0.00  0.00    +0.110 HD
ENDBRANCH   6  17
TORSDOF 5
