REMARK  Name = *****
REMARK                            x       y       z     vdW  Elec       q    Type
REMARK                         _______ _______ _______ _____ _____    ______ ____
ROOT
ATOM      1  C   LIG    1        1.186   0.006   0.129  0.00  0.00    +0.179 C 
ATOM      2  N   LIG    1        2.628  -0.043   0.022  0.00  0.00    -0.199 N 
ATOM      3  C   LIG    1        3.262  -1.265  -0.102  0.00  0.00    +0.353 C 
ATOM      4  O   LIG    1        2.776  -2.384  -0.171  0.00  0.00    -0.244 OA
ATOM      5  N   LIG    1        4.633  -1.107  -0.149  0.00  0.00    -0.232 N 
ATOM      6  C   LIG    1        5.257   0.104  -0.062  0.00  0.00    +0.197 C 
ATOM      7  C   LIG    1        6.608  -0.176  -0.158  0.00  0.00    +0.171 C 
ATOM      8  N   LIG    1        6.807  -1.549  -0.295  0.00  0.00    -0.228 NA
ATOM      9  N   LIG    1        4.523   1.226   0.090  0.00  0.00    -0.110 NA
ATOM     10  C   LIG    1        5.598  -2.069  -0.282  0.00  0.00    +0.210 C 
ATOM     11  N   LIG    1        3.272   1.168   0.144  0.00  0.00    -0.060 NA
ENDROOT
BRANCH   7  12
ATOM     12  C   LIG    1        7.708   0.780  -0.125  0.00  0.00    +0.264 C 
ATOM     13  O   LIG    1        7.579   1.992  -0.008  0.00  0.00    -0.269 OA
ATOM     14  N   LIG    1        8.938   0.196  -0.238  0.00  0.00    -0.324 N 
ATOM     15  H   LIG    1        9.763   0.774  -0.228  0.00  0.00    +0.145 HD
ATOM     16  H   LIG    1        9.007  -0.810  -0.334  0.00  0.00    +0.145 HD
ENDBRANCH   7  12
TORSDOF 1
