REMARK  Name = *****
REMARK                            x       y       z     vdW  Elec       q    Type
REMARK                         _______ _______ _______ _____ _____    ______ ____
ROOT
ATOM      1  C   LIG    1        5.280  -6.223   1.882  0.00  0.00    +0.046 C 
ATOM      2  C   LIG    1        5.128  -4.740   1.765  0.00  0.00    -0.017 C 
ATOM      3  C   LIG    1        5.223  -3.916   0.626  0.00  0.00    +0.053 C 
ATOM      4  N   LIG    1        5.124  -2.603   1.123  0.00  0.00    -0.335 NA
ATOM      5  C   LIG    1        4.683  -2.612   2.443  0.00  0.00    +0.050 C 
ATOM      6  C   LIG    1        4.280  -1.567   3.299  0.00  0.00    +0.030 C 
ATOM      7  C   LIG    1        3.948  -1.876   4.620  0.00  0.00    +0.047 C 
ATOM      8  C   LIG    1        4.028  -3.180   5.075  0.00  0.00    +0.118 C 
ATOM      9  C   LIG    1        4.421  -4.215   4.229  0.00  0.00    +0.055 C 
ATOM     10  C   LIG    1        4.743  -3.927   2.880  0.00  0.00    +0.007 C 
ENDROOT
BRANCH   3  11
ATOM     11  C   LIG    1        5.411  -4.312  -0.808  0.00  0.00    -0.001 C 
ATOM     12  C   LIG    1        6.103  -5.476  -1.171  0.00  0.00    +0.013 C 
ATOM     13  C   LIG    1        6.202  -5.919  -2.497  0.00  0.00    +0.046 C 
ATOM     14  C   LIG    1        5.654  -5.151  -3.514  0.00  0.00    +0.117 C 
ATOM     15  C   LIG    1        4.993  -3.978  -3.210  0.00  0.00    +0.046 C 
ATOM     16  C   LIG    1        4.838  -3.583  -1.869  0.00  0.00    +0.013 C 
BRANCH  14  17
ATOM     17  O   LIG    1        5.789  -5.603  -4.791  0.00  0.00    -0.507 OA
ATOM     18  H   LIG    1        5.373  -4.963  -5.393  0.00  0.00    +0.292 HD
ENDBRANCH  14  17
ENDBRANCH   3  11
BRANCH   8  19
ATOM     19  O   LIG    1        3.703  -3.418   6.380  0.00  0.00    -0.507 OA
ATOM     20  H   LIG    1        3.813  -4.366   6.555  0.00  0.00    +0.292 HD
ENDBRANCH   8  19
BRANCH   4  21
ATOM     21  C   LIG    1        5.465  -1.345   0.458  0.00  0.00    +0.157 C 
BRANCH  21  22
ATOM     22  C   LIG    1        6.912  -0.955   0.635  0.00  0.00    -0.028 C 
ATOM     23  C   LIG    1        7.921  -1.775   0.119  0.00  0.00    +0.009 C 
ATOM     24  C   LIG    1        9.254  -1.379   0.166  0.00  0.00    +0.046 C 
ATOM     25  C   LIG    1        9.618  -0.148   0.715  0.00  0.00    +0.121 C 
ATOM     26  C   LIG    1        8.623   0.662   1.265  0.00  0.00    +0.046 C 
ATOM     27  C   LIG    1        7.280   0.260   1.230  0.00  0.00    +0.009 C 
BRANCH  25  28
ATOM     28  O   LIG    1       10.900   0.351   0.754  0.00  0.00    -0.491 OA
BRANCH  28  29
ATOM     29  C   LIG    1       11.867  -0.491   0.113  0.00  0.00    +0.244 C 
BRANCH  29  30
ATOM     30  C   LIG    1       13.270   0.135   0.110  0.00  0.00    +0.125 C 
BRANCH  30  31
ATOM     31  N   LIG    1       14.314  -0.731  -0.515  0.00  0.00    -0.299 NA
ATOM     32  C   LIG    1       13.913  -1.141  -1.870  0.00  0.00    +0.084 C 
ATOM     33  C   LIG    1       14.893  -1.980  -2.693  0.00  0.00    +0.015 C 
ATOM     34  C   LIG    1       16.084  -1.178  -3.187  0.00  0.00    +0.001 C 
ATOM     35  C   LIG    1       17.218  -1.084  -2.178  0.00  0.00    +0.001 C 
ATOM     36  C   LIG    1       16.805  -0.975  -0.713  0.00  0.00    +0.015 C 
ATOM     37  C   LIG    1       15.616  -0.049  -0.440  0.00  0.00    +0.084 C 
ENDBRANCH  30  31
ENDBRANCH  29  30
ENDBRANCH  28  29
ENDBRANCH  25  28
ENDBRANCH  21  22
ENDBRANCH   4  21
TORSDOF 9
