REMARK  Name = *****
REMARK                            x       y       z     vdW  Elec       q    Type
REMARK                         _______ _______ _______ _____ _____    ______ ____
ROOT
ATOM      1  C   LIG    1        2.382   1.118   3.605  0.00  0.00    +0.125 A 
ATOM      2  C   LIG    1        2.586   1.277   4.976  0.00  0.00    +0.069 A 
ATOM      3 CL   LIG    1        1.419   1.979   6.038  0.00  0.00    -0.082 Cl
ATOM      4  C   LIG    1        3.798   0.858   5.552  0.00  0.00    +0.047 A 
ATOM      5  C   LIG    1        4.807   0.252   4.789  0.00  0.00    +0.057 A 
ATOM      6  N   LIG    1        6.010  -0.083   5.398  0.00  0.00    -0.326 N 
ATOM      7  H   LIG    1        5.969  -0.169   6.409  0.00  0.00    +0.148 HD
ATOM      8  C   LIG    1        6.963  -0.971   4.761  0.00  0.00    +0.163 C 
ATOM      9  N   LIG    1        7.181  -0.536   3.394  0.00  0.00    -0.170 NA
ATOM     10  H   LIG    1        7.959  -0.995   2.928  0.00  0.00    +0.150 HD
ATOM     11  S   LIG    1        5.843  -0.520   2.399  0.00  0.00    +0.062 S 
ATOM     12  O   LIG    1        5.499  -1.892   2.100  0.00  0.00    -0.153 OA
ATOM     13  O   LIG    1        6.117   0.424   1.340  0.00  0.00    -0.153 OA
ATOM     14  C   LIG    1        4.581   0.140   3.419  0.00  0.00    +0.128 A 
ATOM     15  C   LIG    1        3.388   0.555   2.817  0.00  0.00    +0.060 A 
ENDROOT
BRANCH   8  16
ATOM     16  C   LIG    1        6.571  -2.452   4.911  0.00  0.00    +0.033 C 
ATOM     17  C   LIG    1        6.580  -2.948   6.389  0.00  0.00    +0.018 C 
ATOM     18  C   LIG    1        8.031  -3.406   6.575  0.00  0.00    +0.015 C 
ATOM     19  C   LIG    1        7.977  -4.386   5.402  0.00  0.00    +0.012 C 
ATOM     20  C   LIG    1        6.747  -5.165   5.800  0.00  0.00    -0.027 C 
ATOM     21  C   LIG    1        5.912  -4.306   6.404  0.00  0.00    -0.027 C 
ATOM     22  C   LIG    1        7.597  -3.435   4.247  0.00  0.00    +0.015 C 
ENDBRANCH   8  16
BRANCH   1  23
ATOM     23  S   LIG    1        0.865   1.631   2.871  0.00  0.00    +0.057 S 
ATOM     24  O   LIG    1       -0.188   0.757   3.329  0.00  0.00    -0.153 OA
ATOM     25  O   LIG    1        0.788   3.071   2.920  0.00  0.00    -0.153 OA
BRANCH  23  26
ATOM     26  N   LIG    1        1.041   1.267   1.236  0.00  0.00    -0.203 NA
ATOM     27  H   LIG    1        0.331   0.584   0.963  0.00  0.00    +0.144 HD
ATOM     28  H   LIG    1        1.000   2.131   0.691  0.00  0.00    +0.144 HD
ENDBRANCH  23  26
ENDBRANCH   1  23
TORSDOF 3
