REMARK  Name = *****
REMARK                            x       y       z     vdW  Elec       q    Type
REMARK                         _______ _______ _______ _____ _____    ______ ____
ROOT
ATOM      1  C   LIG    1        9.210  -2.812   6.185  0.00  0.00    +0.134 C 
ATOM      2  C   LIG    1        8.079  -2.390   7.117  0.00  0.00    +0.079 C 
ATOM      3  C   LIG    1        7.433  -1.053   6.743  0.00  0.00    +0.158 C 
ATOM      4  C   LIG    1        8.540  -0.006   6.672  0.00  0.00    +0.030 A 
ATOM      5  C   LIG    1        9.883  -0.346   6.373  0.00  0.00    +0.007 A 
ATOM      6  C   LIG    1       10.857   0.665   6.333  0.00  0.00    +0.132 A 
ATOM      7  C   LIG    1       10.513   2.001   6.572  0.00  0.00    +0.078 A 
ATOM      8  C   LIG    1       11.542   3.049   6.555  0.00  0.00    +0.198 C 
ATOM      9  O   LIG    1       12.697   2.758   6.257  0.00  0.00    -0.286 OA
ATOM     10  C   LIG    1       11.186   4.427   6.929  0.00  0.00    +0.037 A 
ATOM     11  C   LIG    1        9.864   4.779   7.221  0.00  0.00    +0.075 A 
ATOM     12  C   LIG    1        9.563   6.102   7.594  0.00  0.00    +0.132 A 
ATOM     13  C   LIG    1       10.600   7.040   7.661  0.00  0.00    +0.046 A 
ATOM     14  C   LIG    1       11.913   6.680   7.363  0.00  0.00    +0.004 A 
ATOM     15  C   LIG    1        8.816   3.742   7.107  0.00  0.00    +0.202 C 
ATOM     16  O   LIG    1        7.619   4.004   7.174  0.00  0.00    -0.286 OA
ATOM     17  C   LIG    1       12.210   5.374   7.001  0.00  0.00    +0.012 A 
ATOM     18  C   LIG    1        9.197   2.336   6.875  0.00  0.00    +0.078 A 
ATOM     19  C   LIG    1        8.226   1.329   6.956  0.00  0.00    +0.135 A 
ATOM     20  C   LIG    1       10.343  -1.784   6.220  0.00  0.00    +0.082 C 
ENDROOT
BRANCH   1  21
ATOM     21  O   LIG    1        8.694  -2.910   4.846  0.00  0.00    -0.381 OA
ATOM     22  H   LIG    1        9.377  -3.370   4.316  0.00  0.00    +0.211 HD
ENDBRANCH   1  21
BRANCH  19  23
ATOM     23  O   LIG    1        6.950   1.596   7.385  0.00  0.00    -0.506 OA
ATOM     24  H   LIG    1        6.830   2.572   7.435  0.00  0.00    +0.292 HD
ENDBRANCH  19  23
BRANCH   6  25
ATOM     25  O   LIG    1       12.152   0.278   6.085  0.00  0.00    -0.506 OA
ATOM     26  H   LIG    1       12.720   1.081   6.037  0.00  0.00    +0.292 HD
ENDBRANCH   6  25
BRANCH  12  27
ATOM     27  O   LIG    1        8.285   6.401   7.981  0.00  0.00    -0.494 OA
ATOM     28  C   LIG    1        7.823   7.723   7.732  0.00  0.00    +0.277 C 
ENDBRANCH  12  27
BRANCH   1  29
ATOM     29  C   LIG    1        9.797  -4.203   6.509  0.00  0.00    +0.202 C 
ATOM     30  O   LIG    1       10.185  -4.935   5.587  0.00  0.00    -0.291 OA
BRANCH  29  31
ATOM     31  C   LIG    1        9.909  -4.672   7.954  0.00  0.00    +0.309 C 
BRANCH  31  32
ATOM     32  O   LIG    1       10.834  -3.944   8.745  0.00  0.00    -0.457 OA
BRANCH  32  33
ATOM     33  C   LIG    1       10.281  -3.285   9.822  0.00  0.00    +0.307 C 
ATOM     34  O   LIG    1        9.113  -3.118  10.021  0.00  0.00    -0.251 OA
BRANCH  33  35
ATOM     35  C   LIG    1       11.371  -2.893  10.787  0.00  0.00    +0.120 C 
BRANCH  35  36
ATOM     36  C   LIG    1       11.464  -3.934  11.905  0.00  0.00    +0.011 C 
BRANCH  36  38
ATOM     37  C   LIG    1        9.667  -2.848  13.355  0.00  0.00    +0.004 C 
ATOM     38  C   LIG    1       10.153  -4.124  12.683  0.00  0.00    -0.003 C 
ENDBRANCH  36  38
ENDBRANCH  35  36
ENDBRANCH  33  35
ENDBRANCH  32  33
ENDBRANCH  31  32
ENDBRANCH  29  31
ENDBRANCH   1  29
BRANCH   3  39
ATOM     39  O   LIG    1        6.649  -1.010   5.540  0.00  0.00    -0.343 OA
BRANCH  39  40
ATOM     40  C   LIG    1        5.622  -1.997   5.471  0.00  0.00    +0.253 C 
ATOM     41  O   LIG    1        4.677  -1.939   6.530  0.00  0.00    -0.346 OA
ATOM     42  C   LIG    1        3.591  -1.012   6.462  0.00  0.00    +0.148 C 
ATOM     43  C   LIG    1        3.808   0.179   7.392  0.00  0.00    +0.040 C 
ATOM     44  C   LIG    1        3.050  -0.636   5.062  0.00  0.00    +0.163 C 
ATOM     45  C   LIG    1        4.087  -0.758   3.932  0.00  0.00    +0.109 C 
ATOM     46  C   LIG    1        4.937  -2.002   4.107  0.00  0.00    +0.086 C 
BRANCH  45  47
ATOM     47  N   LIG    1        3.434  -0.743   2.608  0.00  0.00    -0.302 N 
ATOM     48  H   LIG    1        3.017  -1.597   2.243  0.00  0.00    +0.149 HD
ATOM     49  C   LIG    1        3.088   0.460   1.991  0.00  0.00    +0.318 C 
ATOM     50  O   LIG    1        3.348   1.542   2.525  0.00  0.00    -0.266 OA
BRANCH  49  51
ATOM     51  C   LIG    1        2.412   0.342   0.602  0.00  0.00    +0.469 C 
ATOM     52  F   LIG    1        3.154   0.921  -0.382  0.00  0.00    -0.162 F 
ATOM     53  F   LIG    1        1.184   0.928   0.560  0.00  0.00    -0.162 F 
ATOM     54  F   LIG    1        2.227  -0.959   0.227  0.00  0.00    -0.162 F 
ENDBRANCH  49  51
ENDBRANCH  45  47
BRANCH  44  55
ATOM     55  O   LIG    1        2.439   0.661   5.068  0.00  0.00    -0.387 OA
ATOM     56  H   LIG    1        3.055   1.292   4.639  0.00  0.00    +0.210 HD
ENDBRANCH  44  55
ENDBRANCH  39  40
ENDBRANCH   3  39
TORSDOF 16
