REMARK  Name = *****
REMARK                            x       y       z     vdW  Elec       q    Type
REMARK                         _______ _______ _______ _____ _____    ______ ____
ROOT
ATOM      1  C   LIG    1        4.871   1.620   3.101  0.00  0.00    +0.084 C 
ATOM      2  C   LIG    1        4.808   2.877   2.231  0.00  0.00    +0.027 C 
ENDROOT
BRANCH   1   3
ATOM      3  N   LIG    1        3.567   0.895   3.099  0.00  0.00    -0.305 NA
ATOM      4  H   LIG    1        3.623   0.157   3.805  0.00  0.00    +0.123 HD
BRANCH   3   6
ATOM      5  C   LIG    1        1.708  -0.201   1.888  0.00  0.00    +0.027 C 
ATOM      6  C   LIG    1        3.155   0.317   1.793  0.00  0.00    +0.088 C 
BRANCH   6   7
ATOM      7  C   LIG    1        4.068  -0.829   1.308  0.00  0.00    +0.247 C 
BRANCH   7   8
ATOM      8  O   LIG    1        3.584  -1.418   0.083  0.00  0.00    -0.490 OA
BRANCH   8   9
ATOM      9  C   LIG    1        4.007  -2.709  -0.113  0.00  0.00    +0.121 A 
ATOM     10  C   LIG    1        3.168  -3.581  -0.807  0.00  0.00    +0.045 A 
ATOM     11  C   LIG    1        3.525  -4.933  -0.933  0.00  0.00    +0.004 A 
ATOM     12  C   LIG    1        4.728  -5.400  -0.383  0.00  0.00    +0.000 A 
ATOM     13  C   LIG    1        5.581  -4.518   0.256  0.00  0.00    +0.004 A 
ATOM     14  C   LIG    1        5.232  -3.184   0.377  0.00  0.00    +0.045 A 
ENDBRANCH   8   9
ENDBRANCH   7   8
ENDBRANCH   6   7
ENDBRANCH   3   6
ENDBRANCH   1   3
BRANCH   1  15
ATOM     15  C   LIG    1        5.401   1.993   4.535  0.00  0.00    +0.161 C 
BRANCH  15  16
ATOM     16  C   LIG    1        4.568   2.993   5.322  0.00  0.00    -0.018 A 
ATOM     17  C   LIG    1        5.055   4.289   5.554  0.00  0.00    +0.010 A 
ATOM     18  C   LIG    1        4.273   5.248   6.202  0.00  0.00    +0.046 A 
ATOM     19  C   LIG    1        2.992   4.911   6.628  0.00  0.00    +0.117 A 
ATOM     20  C   LIG    1        2.504   3.627   6.449  0.00  0.00    +0.046 A 
ATOM     21  C   LIG    1        3.285   2.669   5.798  0.00  0.00    +0.010 A 
BRANCH  19  22
ATOM     22  O   LIG    1        2.232   5.884   7.207  0.00  0.00    -0.507 OA
ATOM     23  H   LIG    1        1.318   5.561   7.265  0.00  0.00    +0.292 HD
ENDBRANCH  19  22
ENDBRANCH  15  16
BRANCH  15  24
ATOM     24  O   LIG    1        5.618   0.784   5.277  0.00  0.00    -0.386 OA
ATOM     25  H   LIG    1        5.277   0.926   6.176  0.00  0.00    +0.210 HD
ENDBRANCH  15  24
ENDBRANCH   1  15
TORSDOF 9
