REMARK  Name = *****
REMARK                            x       y       z     vdW  Elec       q    Type
REMARK                         _______ _______ _______ _____ _____    ______ ____
ROOT
ATOM      1  C   LIG    1       12.416   8.123   6.486  0.00  0.00    +0.000 C 
ATOM      2  C   LIG    1       12.847   8.837   7.531  0.00  0.00    +0.000 C 
ENDROOT
BRANCH   1   4
ATOM      3  C   LIG    1       12.911   6.515   4.651  0.00  0.00    -0.050 C 
ATOM      4  C   LIG    1       13.283   7.288   5.686  0.00  0.00    +0.003 C 
ATOM      5  C   LIG    1       11.506   6.300   4.152  0.00  0.00    +0.044 C 
BRANCH   3   7
ATOM      6  C   LIG    1       14.934   6.276   3.196  0.00  0.00    +0.001 C 
ATOM      7  C   LIG    1       13.898   5.769   3.879  0.00  0.00    +0.003 C 
BRANCH   6   9
ATOM      8  C   LIG    1       16.325   8.190   2.424  0.00  0.00    -0.050 C 
ATOM      9  C   LIG    1       15.307   7.669   3.125  0.00  0.00    +0.003 C 
ATOM     10  C   LIG    1       17.253   7.450   1.502  0.00  0.00    +0.044 C 
BRANCH   8  12
ATOM     11  C   LIG    1       16.126  10.499   1.623  0.00  0.00    +0.000 C 
ATOM     12  C   LIG    1       16.583   9.615   2.517  0.00  0.00    +0.003 C 
BRANCH  11  14
ATOM     13  C   LIG    1       15.973  12.715   2.740  0.00  0.00    -0.072 C 
ATOM     14  C   LIG    1       16.358  11.918   1.726  0.00  0.00    -0.001 C 
ATOM     15  C   LIG    1       15.205  12.257   3.957  0.00  0.00    +0.039 C 
BRANCH  13  16
ATOM     16  C   LIG    1       16.277  14.200   2.691  0.00  0.00    +0.034 C 
BRANCH  16  17
ATOM     17  C   LIG    1       17.172  14.647   3.851  0.00  0.00    +0.031 C 
BRANCH  17  20
ATOM     18  C   LIG    1       17.166  18.541   4.198  0.00  0.00    +0.038 C 
ATOM     19  C   LIG    1       16.742  17.106   4.355  0.00  0.00    -0.080 C 
ATOM     20  C   LIG    1       17.462  16.117   3.790  0.00  0.00    -0.028 C 
ATOM     21  C   LIG    1       15.478  16.912   5.148  0.00  0.00    +0.038 C 
ENDBRANCH  17  20
ENDBRANCH  16  17
ENDBRANCH  13  16
ENDBRANCH  11  14
ENDBRANCH   8  12
ENDBRANCH   6   9
ENDBRANCH   3   7
ENDBRANCH   1   4
BRANCH   2  22
ATOM     22  C   LIG    1       11.959   9.688   8.291  0.00  0.00    +0.003 C 
ATOM     23  C   LIG    1       12.289  10.427   9.362  0.00  0.00    -0.050 C 
ATOM     24  C   LIG    1       11.265  11.314  10.032  0.00  0.00    +0.044 C 
BRANCH  23  25
ATOM     25  C   LIG    1       13.645  10.485   9.906  0.00  0.00    +0.003 C 
ATOM     26  C   LIG    1       14.024  10.197  11.157  0.00  0.00    +0.001 C 
BRANCH  26  27
ATOM     27  C   LIG    1       13.149   9.641  12.166  0.00  0.00    +0.003 C 
ATOM     28  C   LIG    1       13.274   9.723  13.503  0.00  0.00    -0.050 C 
ATOM     29  C   LIG    1       14.330  10.511  14.229  0.00  0.00    +0.044 C 
BRANCH  28  30
ATOM     30  C   LIG    1       12.300   9.070  14.373  0.00  0.00    +0.003 C 
ATOM     31  C   LIG    1       11.661   7.937  14.058  0.00  0.00    +0.000 C 
BRANCH  31  32
ATOM     32  C   LIG    1       10.751   7.260  14.945  0.00  0.00    -0.001 C 
ATOM     33  C   LIG    1       10.427   5.957  14.874  0.00  0.00    -0.072 C 
ATOM     34  C   LIG    1       10.992   4.963  13.892  0.00  0.00    +0.039 C 
BRANCH  33  35
ATOM     35  C   LIG    1        9.473   5.372  15.900  0.00  0.00    +0.034 C 
BRANCH  35  36
ATOM     36  C   LIG    1        8.053   5.139  15.370  0.00  0.00    +0.031 C 
BRANCH  36  37
ATOM     37  C   LIG    1        7.401   6.416  14.911  0.00  0.00    -0.028 C 
ATOM     38  C   LIG    1        6.668   7.264  15.657  0.00  0.00    -0.080 C 
ATOM     39  C   LIG    1        6.122   8.536  15.066  0.00  0.00    +0.038 C 
ATOM     40  C   LIG    1        6.348   7.066  17.112  0.00  0.00    +0.038 C 
ENDBRANCH  36  37
ENDBRANCH  35  36
ENDBRANCH  33  35
ENDBRANCH  31  32
ENDBRANCH  28  30
ENDBRANCH  26  27
ENDBRANCH  23  25
ENDBRANCH   2  22
TORSDOF 16
