REMARK  Name = *****
REMARK                            x       y       z     vdW  Elec       q    Type
REMARK                         _______ _______ _______ _____ _____    ______ ____
ROOT
ATOM      1  C   LIG    1        2.769  -1.175  -0.314  0.00  0.00    +0.068 C 
ENDROOT
BRANCH   1   2
ATOM      2  C   LIG    1        2.206  -2.580  -0.229  0.00  0.00    -0.041 A 
ATOM      3  C   LIG    1        1.053  -2.934  -0.946  0.00  0.00    +0.052 A 
ATOM      4  C   LIG    1        0.549  -4.227  -0.851  0.00  0.00    +0.159 A 
ATOM      5  C   LIG    1        1.190  -5.191  -0.080  0.00  0.00    +0.158 A 
ATOM      6  C   LIG    1        2.348  -4.870   0.616  0.00  0.00    +0.049 A 
ATOM      7  C   LIG    1        2.849  -3.563   0.546  0.00  0.00    +0.007 A 
BRANCH   4   8
ATOM      8  O   LIG    1       -0.601  -4.543  -1.517  0.00  0.00    -0.503 OA
ATOM      9  H   LIG    1       -0.769  -5.479  -1.286  0.00  0.00    +0.292 HD
ENDBRANCH   4   8
BRANCH   5  10
ATOM     10  O   LIG    1        0.637  -6.441  -0.032  0.00  0.00    -0.503 OA
ATOM     11  H   LIG    1        1.205  -7.005   0.521  0.00  0.00    +0.292 HD
ENDBRANCH   5  10
ENDBRANCH   1   2
BRANCH   1  13
ATOM     12  C   LIG    1        0.780   0.193   0.583  0.00  0.00    +0.040 C 
ATOM     13  C   LIG    1        2.268  -0.145   0.734  0.00  0.00    +0.116 C 
BRANCH  13  14
ATOM     14  N   LIG    1        2.996   1.140   0.475  0.00  0.00    -0.316 NA
ATOM     15  H   LIG    1        2.729   1.817   1.195  0.00  0.00    +0.119 HD
ATOM     16  H   LIG    1        3.991   0.976   0.667  0.00  0.00    +0.119 HD
ENDBRANCH  13  14
BRANCH  13  17
ATOM     17  C   LIG    1        2.617  -0.594   2.179  0.00  0.00    +0.325 C 
ATOM     18  O   LIG    1        3.676  -0.296   2.732  0.00  0.00    -0.249 OA
BRANCH  17  19
ATOM     19  O   LIG    1        1.692  -1.341   2.815  0.00  0.00    -0.479 OA
ATOM     20  H   LIG    1        0.907  -1.581   2.287  0.00  0.00    +0.295 HD
ENDBRANCH  17  19
ENDBRANCH  13  17
ENDBRANCH   1  13
TORSDOF 7
