REMARK  Name = *****
REMARK                            x       y       z     vdW  Elec       q    Type
REMARK                         _______ _______ _______ _____ _____    ______ ____
ROOT
ATOM      1  C   LIG    1        7.280   0.245  -0.553  0.00  0.00    +0.113 A 
ATOM      2  C   LIG    1        8.090  -0.478  -1.425  0.00  0.00    +0.030 A 
ATOM      3  C   LIG    1        9.390  -0.025  -1.682  0.00  0.00    +0.010 A 
ATOM      4  C   LIG    1        9.866   1.188  -1.148  0.00  0.00    -0.012 A 
ATOM      5  C   LIG    1        9.016   1.902  -0.289  0.00  0.00    +0.010 A 
ATOM      6  C   LIG    1        7.750   1.409   0.051  0.00  0.00    +0.030 A 
ENDROOT
BRANCH   4   7
ATOM      7  C   LIG    1       11.189   1.709  -1.510  0.00  0.00    +0.052 A 
ATOM      8  C   LIG    1       12.180   2.494  -0.797  0.00  0.00    +0.121 A 
ATOM      9  N   LIG    1       13.223   2.752  -1.607  0.00  0.00    -0.077 NA
ATOM     10  O   LIG    1       12.952   2.170  -2.812  0.00  0.00    -0.359 OA
ATOM     11  C   LIG    1       11.744   1.559  -2.773  0.00  0.00    +0.142 A 
ATOM     12  C   LIG    1       11.352   0.918  -4.049  0.00  0.00    +0.090 C 
BRANCH   8  13
ATOM     13  C   LIG    1       12.241   2.986   0.593  0.00  0.00    +0.004 A 
ATOM     14  C   LIG    1       11.641   2.291   1.649  0.00  0.00    +0.010 A 
ATOM     15  C   LIG    1       11.752   2.748   2.968  0.00  0.00    +0.001 A 
ATOM     16  C   LIG    1       12.513   3.877   3.262  0.00  0.00    +0.000 A 
ATOM     17  C   LIG    1       13.129   4.577   2.230  0.00  0.00    +0.001 A 
ATOM     18  C   LIG    1       12.971   4.151   0.905  0.00  0.00    +0.010 A 
ENDBRANCH   8  13
ENDBRANCH   4   7
BRANCH   1  19
ATOM     19  S   LIG    1        5.606  -0.282  -0.238  0.00  0.00    +0.102 S 
ATOM     20  O   LIG    1        4.760   0.854  -0.588  0.00  0.00    -0.146 OA
ATOM     21  O   LIG    1        5.434  -1.552  -0.902  0.00  0.00    -0.146 OA
BRANCH  19  23
ATOM     22  C   LIG    1        4.551  -1.002   1.941  0.00  0.00    +0.207 C 
ATOM     23  N   LIG    1        5.577  -0.495   1.358  0.00  0.00    -0.096 NA
BRANCH  22  25
ATOM     24  C   LIG    1        2.192  -0.391   1.328  0.00  0.00    +0.013 C 
ATOM     25  C   LIG    1        3.244  -1.483   1.357  0.00  0.00    +0.093 C 
ENDBRANCH  22  25
BRANCH  22  26
ATOM     26  O   LIG    1        4.618  -1.122   3.286  0.00  0.00    -0.494 OA
ATOM     27  H   LIG    1        3.824  -1.510   3.685  0.00  0.00    +0.293 HD
ENDBRANCH  22  26
ENDBRANCH  19  23
ENDBRANCH   1  19
TORSDOF 6
