REMARK  Name = *****
REMARK                            x       y       z     vdW  Elec       q    Type
REMARK                         _______ _______ _______ _____ _____    ______ ____
ROOT
ATOM      1  C   LIG    1        6.400  -0.063   4.454  0.00  0.00    +0.166 C 
ATOM      2  N   LIG    1        6.013  -0.993   5.531  0.00  0.00    -0.285 N 
ATOM      3  C   LIG    1        5.424  -0.604   6.726  0.00  0.00    +0.237 C 
ATOM      4  O   LIG    1        5.106   0.581   6.861  0.00  0.00    -0.274 OA
ATOM      5  C   LIG    1        6.484  -2.327   5.238  0.00  0.00    +0.153 C 
ATOM      6  C   LIG    1        7.028  -2.292   3.798  0.00  0.00    +0.195 C 
ATOM      7  C   LIG    1        7.489  -0.834   3.692  0.00  0.00    +0.078 C 
ENDROOT
BRANCH   1  10
ATOM      8  N   LIG    1        4.602   1.465   3.706  0.00  0.00    -0.299 N 
ATOM      9  H   LIG    1        4.978   2.107   4.398  0.00  0.00    +0.150 HD
ATOM     10  C   LIG    1        5.243   0.268   3.478  0.00  0.00    +0.234 C 
ATOM     11  O   LIG    1        4.837  -0.510   2.612  0.00  0.00    -0.274 OA
BRANCH   8  13
ATOM     12  C   LIG    1        3.533   3.318   2.354  0.00  0.00    +0.046 C 
ATOM     13  C   LIG    1        3.443   1.904   2.935  0.00  0.00    +0.118 C 
ATOM     14  C   LIG    1        3.621   2.133   1.438  0.00  0.00    +0.046 C 
BRANCH  12  16
ATOM     15  C   LIG    1        2.107   4.934   1.105  0.00  0.00    +0.004 C 
ATOM     16  C   LIG    1        2.389   4.221   2.203  0.00  0.00    -0.028 C 
ENDBRANCH  12  16
BRANCH  13  17
ATOM     17  C   LIG    1        2.125   1.290   3.363  0.00  0.00    +0.231 C 
ATOM     18  N   LIG    1        1.133   2.025   3.709  0.00  0.00    -0.098 NA
BRANCH  18  19
ATOM     19  S   LIG    1       -0.260   1.375   4.186  0.00  0.00    +0.075 S 
ATOM     20  O   LIG    1       -1.253   2.444   4.221  0.00  0.00    -0.151 OA
ATOM     21  O   LIG    1       -0.051   0.560   5.358  0.00  0.00    -0.151 OA
BRANCH  19  22
ATOM     22  C   LIG    1       -0.841   0.295   2.826  0.00  0.00    +0.155 C 
ATOM     23  C   LIG    1       -0.858  -1.179   3.132  0.00  0.00    +0.030 C 
ATOM     24  C   LIG    1       -2.146  -0.405   3.120  0.00  0.00    +0.030 C 
ENDBRANCH  19  22
ENDBRANCH  18  19
BRANCH  17  25
ATOM     25  O   LIG    1        2.101  -0.060   3.338  0.00  0.00    -0.493 OA
ATOM     26  H   LIG    1        2.969  -0.429   3.076  0.00  0.00    +0.293 HD
ENDBRANCH  17  25
ENDBRANCH  13  17
ENDBRANCH   8  13
ENDBRANCH   1  10
BRANCH   3  27
ATOM     27  C   LIG    1        5.344  -1.662   7.925  0.00  0.00    +0.168 C 
BRANCH  27  28
ATOM     28  C   LIG    1        4.154  -1.484   8.944  0.00  0.00    -0.011 C 
ATOM     29  C   LIG    1        2.852  -1.770   8.174  0.00  0.00    +0.013 C 
ATOM     30  C   LIG    1        4.084  -0.098   9.613  0.00  0.00    +0.013 C 
ATOM     31  C   LIG    1        4.200  -2.493  10.126  0.00  0.00    +0.013 C 
ENDBRANCH  27  28
BRANCH  27  32
ATOM     32  N   LIG    1        6.654  -1.621   8.617  0.00  0.00    -0.269 N 
ATOM     33  H   LIG    1        7.076  -0.713   8.764  0.00  0.00    +0.153 HD
ATOM     34  C   LIG    1        7.306  -2.645   9.200  0.00  0.00    +0.401 C 
ATOM     35  O   LIG    1        8.391  -2.429   9.756  0.00  0.00    -0.226 OA
BRANCH  34  36
ATOM     36  O   LIG    1        6.641  -3.873   9.126  0.00  0.00    -0.445 OA
BRANCH  36  37
ATOM     37  C   LIG    1        7.293  -5.053   9.676  0.00  0.00    +0.107 C 
ATOM     38  C   LIG    1        6.215  -6.151   9.743  0.00  0.00    +0.055 C 
ATOM     39  C   LIG    1        7.827  -4.866  11.106  0.00  0.00    +0.055 C 
ATOM     40  C   LIG    1        8.402  -5.505   8.721  0.00  0.00    +0.055 C 
ENDBRANCH  36  37
ENDBRANCH  34  36
ENDBRANCH  27  32
ENDBRANCH   3  27
BRANCH   6  41
ATOM     41  O   LIG    1        8.136  -3.173   3.570  0.00  0.00    -0.471 OA
BRANCH  41  42
ATOM     42  C   LIG    1        7.750  -4.502   3.611  0.00  0.00    +0.223 A 
ATOM     43  C   LIG    1        8.517  -5.465   2.955  0.00  0.00    +0.049 A 
ATOM     44  C   LIG    1        8.046  -6.807   2.973  0.00  0.00    +0.030 A 
ATOM     45  C   LIG    1        8.804  -7.769   2.263  0.00  0.00    +0.014 A 
ATOM     46  C   LIG    1        9.971  -7.413   1.568  0.00  0.00    +0.021 A 
ATOM     47  C   LIG    1       10.426  -6.100   1.595  0.00  0.00    +0.042 A 
ATOM     48 CL   LIG    1       11.877  -5.666   0.779  0.00  0.00    -0.084 Cl
ATOM     49  C   LIG    1        6.863  -7.101   3.704  0.00  0.00    +0.146 A 
ATOM     50  C   LIG    1        6.219  -6.051   4.339  0.00  0.00    +0.160 A 
ATOM     51  C   LIG    1        9.712  -5.131   2.286  0.00  0.00    +0.034 A 
ATOM     52  N   LIG    1        6.638  -4.784   4.308  0.00  0.00    -0.217 NA
BRANCH  49  53
ATOM     53  O   LIG    1        6.382  -8.387   3.767  0.00  0.00    -0.493 OA
ATOM     54  C   LIG    1        5.548  -8.641   4.909  0.00  0.00    +0.277 C 
ENDBRANCH  49  53
ENDBRANCH  41  42
ENDBRANCH   6  41
TORSDOF 15
