REMARK  Name = *****
REMARK                            x       y       z     vdW  Elec       q    Type
REMARK                         _______ _______ _______ _____ _____    ______ ____
ROOT
ATOM      1  O   LIG    1        7.558  -0.243  -6.181  0.00  0.00    -0.265 OA
ATOM      2  C   LIG    1        7.398  -0.101  -4.975  0.00  0.00    +0.289 C 
ATOM      3  C   LIG    1        8.348   0.639  -4.124  0.00  0.00    +0.204 C 
ATOM      4  F   LIG    1        9.426   1.184  -4.718  0.00  0.00    -0.198 F 
ATOM      5  C   LIG    1        8.124   0.743  -2.815  0.00  0.00    +0.137 C 
ATOM      6  N   LIG    1        7.011   0.174  -2.219  0.00  0.00    -0.271 N 
ATOM      7  C   LIG    1        6.079  -0.548  -2.961  0.00  0.00    +0.332 C 
ATOM      8  O   LIG    1        5.096  -1.104  -2.477  0.00  0.00    -0.246 OA
ATOM      9  N   LIG    1        6.322  -0.628  -4.310  0.00  0.00    -0.273 N 
ATOM     10  H   LIG    1        5.657  -1.149  -4.859  0.00  0.00    +0.173 HD
ENDROOT
BRANCH   6  11
ATOM     11  C   LIG    1        6.775   0.266  -0.778  0.00  0.00    +0.223 C 
ATOM     12  O   LIG    1        7.534   1.349  -0.207  0.00  0.00    -0.356 OA
ATOM     13  C   LIG    1        8.394   0.816   0.808  0.00  0.00    +0.162 C 
ATOM     14  C   LIG    1        8.547  -0.656   0.504  0.00  0.00    +0.033 C 
ATOM     15  C   LIG    1        7.178  -1.001  -0.028  0.00  0.00    +0.057 C 
ENDBRANCH   6  11
TORSDOF 1
