REMARK  Name = *****
REMARK                            x       y       z     vdW  Elec       q    Type
REMARK                         _______ _______ _______ _____ _____    ______ ____
ROOT
ATOM      1  C   LIG    1        4.732  -1.645  -0.128  0.00  0.00    +0.119 C 
ATOM      2  N   LIG    1        5.298  -0.445   0.535  0.00  0.00    -0.330 N 
ATOM      3  H   LIG    1        4.999   0.457   0.157  0.00  0.00    +0.147 HD
ATOM      4  C   LIG    1        6.686  -0.406   0.760  0.00  0.00    +0.133 A 
ATOM      5  C   LIG    1        7.483  -1.500   0.693  0.00  0.00    +0.126 A 
ATOM      6  N   LIG    1        8.820  -1.364   0.942  0.00  0.00    -0.315 N 
ATOM      7  H   LIG    1        9.406  -2.082   0.543  0.00  0.00    +0.170 HD
ATOM      8  C   LIG    1        9.369  -0.143   1.154  0.00  0.00    +0.195 A 
ATOM      9  N   LIG    1        8.722   0.970   1.221  0.00  0.00    -0.176 NA
ATOM     10  N   LIG    1        6.944  -2.738   0.350  0.00  0.00    -0.327 N 
ATOM     11  H   LIG    1        7.460  -3.509   0.762  0.00  0.00    +0.147 HD
ATOM     12  C   LIG    1        7.355   0.935   1.034  0.00  0.00    +0.297 A 
ATOM     13  O   LIG    1        6.653   1.946   1.041  0.00  0.00    -0.264 OA
ATOM     14  C   LIG    1        5.480  -2.921   0.369  0.00  0.00    +0.128 C 
ENDROOT
BRANCH   8  15
ATOM     15  N   LIG    1       10.716  -0.178   1.310  0.00  0.00    -0.329 N 
ATOM     16  H   LIG    1       11.061   0.736   1.594  0.00  0.00    +0.145 HD
ATOM     17  H   LIG    1       11.034  -0.892   1.955  0.00  0.00    +0.145 HD
ENDBRANCH   8  15
BRANCH   1  18
ATOM     18  C   LIG    1        3.219  -1.725   0.172  0.00  0.00    +0.164 C 
BRANCH  18  20
ATOM     19  C   LIG    1        2.574  -2.967  -1.992  0.00  0.00    +0.040 C 
ATOM     20  C   LIG    1        2.497  -2.926  -0.471  0.00  0.00    +0.142 C 
BRANCH  20  21
ATOM     21  O   LIG    1        1.111  -2.858  -0.111  0.00  0.00    -0.389 OA
ATOM     22  H   LIG    1        0.846  -1.932  -0.286  0.00  0.00    +0.210 HD
ENDBRANCH  20  21
ENDBRANCH  18  20
BRANCH  18  23
ATOM     23  O   LIG    1        2.558  -0.522  -0.277  0.00  0.00    -0.387 OA
ATOM     24  H   LIG    1        2.902   0.194   0.291  0.00  0.00    +0.210 HD
ENDBRANCH  18  23
ENDBRANCH   1  18
TORSDOF 5
