REMARK  Name = *****
REMARK                            x       y       z     vdW  Elec       q    Type
REMARK                         _______ _______ _______ _____ _____    ______ ____
ROOT
ATOM      1  C   LIG    1        4.580  -2.038  -0.153  0.00  0.00    +0.084 C 
ATOM      2  C   LIG    1        4.797  -0.666   0.504  0.00  0.00    +0.027 C 
ENDROOT
BRANCH   1   3
ATOM      3  N   LIG    1        3.664  -1.937  -1.336  0.00  0.00    -0.305 NA
ATOM      4  H   LIG    1        4.081  -1.283  -2.004  0.00  0.00    +0.123 HD
BRANCH   3   6
ATOM      5  C   LIG    1        1.575  -2.430  -0.063  0.00  0.00    +0.027 C 
ATOM      6  C   LIG    1        2.289  -1.461  -1.013  0.00  0.00    +0.088 C 
BRANCH   6   7
ATOM      7  C   LIG    1        1.424  -1.288  -2.297  0.00  0.00    +0.247 C 
BRANCH   7   8
ATOM      8  O   LIG    1        0.107  -0.793  -1.992  0.00  0.00    -0.490 OA
BRANCH   8   9
ATOM      9  C   LIG    1       -0.066   0.558  -1.870  0.00  0.00    +0.121 A 
ATOM     10  C   LIG    1        0.665   1.527  -2.554  0.00  0.00    +0.045 A 
ATOM     11  C   LIG    1        0.405   2.884  -2.353  0.00  0.00    +0.004 A 
ATOM     12  C   LIG    1       -0.609   3.284  -1.483  0.00  0.00    +0.000 A 
ATOM     13  C   LIG    1       -1.376   2.322  -0.829  0.00  0.00    +0.004 A 
ATOM     14  C   LIG    1       -1.108   0.964  -1.028  0.00  0.00    +0.045 A 
ENDBRANCH   8   9
ENDBRANCH   7   8
ENDBRANCH   6   7
ENDBRANCH   3   6
ENDBRANCH   1   3
BRANCH   1  15
ATOM     15  C   LIG    1        5.940  -2.716  -0.560  0.00  0.00    +0.161 C 
BRANCH  15  16
ATOM     16  C   LIG    1        6.945  -2.996   0.551  0.00  0.00    -0.018 A 
ATOM     17  C   LIG    1        6.664  -2.784   1.914  0.00  0.00    +0.010 A 
ATOM     18  C   LIG    1        7.656  -2.892   2.886  0.00  0.00    +0.046 A 
ATOM     19  C   LIG    1        8.928  -3.300   2.524  0.00  0.00    +0.117 A 
ATOM     20  C   LIG    1        9.224  -3.596   1.196  0.00  0.00    +0.046 A 
ATOM     21  C   LIG    1        8.232  -3.435   0.218  0.00  0.00    +0.010 A 
BRANCH  19  22
ATOM     22  O   LIG    1        9.856  -3.399   3.515  0.00  0.00    -0.507 OA
ATOM     23  H   LIG    1       10.685  -3.736   3.138  0.00  0.00    +0.292 HD
ENDBRANCH  19  22
ENDBRANCH  15  16
BRANCH  15  24
ATOM     24  O   LIG    1        5.656  -3.963  -1.204  0.00  0.00    -0.386 OA
ATOM     25  H   LIG    1        4.788  -3.832  -1.636  0.00  0.00    +0.210 HD
ENDBRANCH  15  24
ENDBRANCH   1  15
TORSDOF 9
