REMARK  Name = *****
REMARK                            x       y       z     vdW  Elec       q    Type
REMARK                         _______ _______ _______ _____ _____    ______ ____
ROOT
ATOM      1  C   LIG    1       12.194  -0.253 -21.687  0.00  0.00    +0.030 A 
ATOM      2  C   LIG    1       13.236   0.519 -21.152  0.00  0.00    +0.027 A 
ATOM      3  C   LIG    1       14.569   0.097 -21.157  0.00  0.00    +0.047 A 
ATOM      4  C   LIG    1       14.927  -1.131 -21.698  0.00  0.00    +0.121 A 
ATOM      5  C   LIG    1       13.909  -1.966 -22.147  0.00  0.00    +0.047 A 
ATOM      6  C   LIG    1       12.567  -1.534 -22.132  0.00  0.00    +0.027 A 
ENDROOT
BRANCH   1  10
ATOM      7  N   LIG    1        8.246   1.404 -22.335  0.00  0.00    -0.327 N 
ATOM      8  C   LIG    1        8.429  -0.068 -22.269  0.00  0.00    +0.124 C 
ATOM      9  C   LIG    1        9.887  -0.494 -22.566  0.00  0.00    +0.124 C 
ATOM     10  N   LIG    1       10.868   0.219 -21.706  0.00  0.00    -0.327 N 
ATOM     11  C   LIG    1       10.704   1.694 -21.829  0.00  0.00    +0.124 C 
ATOM     12  C   LIG    1        9.263   2.130 -21.535  0.00  0.00    +0.124 C 
BRANCH   7  16
ATOM     13  C   LIG    1        4.240   2.423 -21.311  0.00  0.00    +0.052 A 
ATOM     14  C   LIG    1        4.575   2.016 -22.611  0.00  0.00    +0.028 A 
ATOM     15  C   LIG    1        5.898   1.679 -22.937  0.00  0.00    +0.025 A 
ATOM     16  C   LIG    1        6.917   1.742 -21.979  0.00  0.00    +0.030 A 
ATOM     17  C   LIG    1        6.559   2.125 -20.682  0.00  0.00    +0.025 A 
ATOM     18  C   LIG    1        5.253   2.466 -20.358  0.00  0.00    +0.028 A 
BRANCH  13  22
ATOM     19  N   LIG    1        1.140   3.591 -19.960  0.00  0.00    -0.210 N 
ATOM     20  C   LIG    1        2.538   3.475 -19.835  0.00  0.00    +0.351 C 
ATOM     21  O   LIG    1        3.222   3.939 -18.956  0.00  0.00    -0.244 OA
ATOM     22  N   LIG    1        2.921   2.761 -20.957  0.00  0.00    -0.250 N 
ATOM     23  C   LIG    1        1.791   2.492 -21.627  0.00  0.00    +0.230 C 
ATOM     24  N   LIG    1        0.693   2.945 -21.086  0.00  0.00    -0.157 NA
BRANCH  19  25
ATOM     25  C   LIG    1        0.234   4.237 -19.022  0.00  0.00    +0.109 C 
ATOM     26  C   LIG    1       -0.170   3.263 -17.915  0.00  0.00    +0.033 C 
BRANCH  25  28
ATOM     27  C   LIG    1        1.163   6.568 -19.496  0.00  0.00    +0.006 C 
ATOM     28  C   LIG    1        0.826   5.531 -18.430  0.00  0.00    +0.023 C 
ENDBRANCH  25  28
ENDBRANCH  19  25
ENDBRANCH  13  22
ENDBRANCH   7  16
ENDBRANCH   1  10
BRANCH   4  29
ATOM     29  O   LIG    1       16.219  -1.586 -21.798  0.00  0.00    -0.489 OA
BRANCH  29  30
ATOM     30  C   LIG    1       17.203  -0.539 -21.905  0.00  0.00    +0.263 C 
BRANCH  30  31
ATOM     31  C   LIG    1       18.621  -1.107 -21.964  0.00  0.00    +0.185 C 
ATOM     32  O   LIG    1       18.963  -1.729 -20.721  0.00  0.00    -0.334 OA
ATOM     33  C   LIG    1       20.381  -1.523 -20.504  0.00  0.00    +0.219 C 
ATOM     34  O   LIG    1       20.851  -0.645 -21.553  0.00  0.00    -0.341 OA
ATOM     35  C   LIG    1       19.679  -0.038 -22.105  0.00  0.00    +0.198 C 
BRANCH  33  36
ATOM     36  C   LIG    1       21.130  -2.864 -20.611  0.00  0.00    +0.031 A 
ATOM     37  C   LIG    1       22.531  -3.015 -20.521  0.00  0.00    +0.051 A 
ATOM     38 CL   LIG    1       23.606  -1.678 -20.313  0.00  0.00    -0.083 Cl
ATOM     39  C   LIG    1       23.135  -4.286 -20.571  0.00  0.00    +0.040 A 
ATOM     40  C   LIG    1       22.354  -5.427 -20.720  0.00  0.00    +0.042 A 
ATOM     41 CL   LIG    1       23.090  -6.980 -20.789  0.00  0.00    -0.084 Cl
ATOM     42  C   LIG    1       20.977  -5.313 -20.821  0.00  0.00    +0.020 A 
ATOM     43  C   LIG    1       20.378  -4.050 -20.774  0.00  0.00    +0.012 A 
ENDBRANCH  33  36
BRANCH  33  44
ATOM     44  C   LIG    1       20.511  -0.800 -19.139  0.00  0.00    +0.215 C 
BRANCH  44  45
ATOM     45  N   LIG    1       20.038  -1.575 -18.012  0.00  0.00    -0.246 N 
ATOM     46  N   LIG    1       18.903  -1.242 -17.365  0.00  0.00    -0.158 NA
ATOM     47  C   LIG    1       18.813  -2.229 -16.469  0.00  0.00    +0.244 A 
ATOM     48  N   LIG    1       19.857  -3.109 -16.466  0.00  0.00    -0.223 NA
ATOM     49  C   LIG    1       20.630  -2.648 -17.421  0.00  0.00    +0.219 A 
ENDBRANCH  44  45
ENDBRANCH  33  44
ENDBRANCH  30  31
ENDBRANCH  29  30
ENDBRANCH   4  29
TORSDOF 11
