REMARK  Name = *****
REMARK                            x       y       z     vdW  Elec       q    Type
REMARK                         _______ _______ _______ _____ _____    ______ ____
ROOT
ATOM      1  C   LIG    1        2.935   0.253  -1.153  0.00  0.00    +0.162 A 
ATOM      2  C   LIG    1        2.060   0.951  -1.995  0.00  0.00    +0.162 A 
ATOM      3  C   LIG    1        2.455   1.208  -3.312  0.00  0.00    +0.054 A 
ATOM      4  C   LIG    1        3.705   0.800  -3.822  0.00  0.00    -0.023 A 
ATOM      5  C   LIG    1        4.056   1.091  -5.285  0.00  0.00    +0.094 C 
ATOM      6  N   LIG    1        5.402   0.638  -5.725  0.00  0.00    -0.294 NA
ATOM      7  C   LIG    1        5.752  -0.647  -5.091  0.00  0.00    +0.089 C 
ATOM      8  C   LIG    1        5.792  -0.590  -3.554  0.00  0.00    +0.051 C 
ATOM      9  C   LIG    1        6.478   1.622  -5.548  0.00  0.00    +0.096 C 
ATOM     10  C   LIG    1        6.197   2.957  -6.229  0.00  0.00    +0.070 C 
ATOM     11  C   LIG    1        4.917   3.453  -5.604  0.00  0.00    +0.139 C 
ATOM     12  O   LIG    1        4.825   4.580  -5.128  0.00  0.00    -0.297 OA
ATOM     13  C   LIG    1        3.726   2.537  -5.712  0.00  0.00    +0.098 C 
ATOM     14  C   LIG    1        4.533   0.025  -2.999  0.00  0.00    -0.038 A 
ATOM     15  C   LIG    1        4.166  -0.196  -1.660  0.00  0.00    +0.053 A 
ENDROOT
BRANCH   1  17
ATOM     16  C   LIG    1        1.379  -0.106   0.622  0.00  0.00    +0.277 C 
ATOM     17  O   LIG    1        2.728  -0.076   0.165  0.00  0.00    -0.491 OA
ENDBRANCH   1  17
BRANCH   2  18
ATOM     18  O   LIG    1        0.869   1.385  -1.482  0.00  0.00    -0.491 OA
ATOM     19  C   LIG    1       -0.144   1.813  -2.380  0.00  0.00    +0.277 C 
ENDBRANCH   2  18
BRANCH  10  20
ATOM     20  C   LIG    1        6.026   2.938  -7.759  0.00  0.00    +0.015 C 
BRANCH  20  21
ATOM     21  C   LIG    1        7.220   2.441  -8.589  0.00  0.00    -0.016 C 
ATOM     22  C   LIG    1        8.490   3.252  -8.347  0.00  0.00    +0.007 C 
ATOM     23  C   LIG    1        6.850   2.498 -10.077  0.00  0.00    +0.007 C 
ENDBRANCH  20  21
ENDBRANCH  10  20
TORSDOF 4
