REMARK  Name = *****
REMARK                            x       y       z     vdW  Elec       q    Type
REMARK                         _______ _______ _______ _____ _____    ______ ____
ROOT
ATOM      1  C   LIG    1        9.204  -0.980  -4.287  0.00  0.00    +0.229 C 
ENDROOT
BRANCH   1   2
ATOM      2  O   LIG    1        7.883  -1.460  -4.038  0.00  0.00    -0.492 OA
BRANCH   2  10
ATOM      3  O   LIG    1        5.325   0.237   2.949  0.00  0.00    -0.276 OA
ATOM      4  C   LIG    1        5.916   0.144   1.879  0.00  0.00    +0.217 C 
ATOM      5  N   LIG    1        5.429  -0.650   0.877  0.00  0.00    -0.285 N 
ATOM      6  H   LIG    1        4.545  -1.102   1.067  0.00  0.00    +0.155 HD
ATOM      7  C   LIG    1        6.071  -0.834  -0.345  0.00  0.00    +0.037 A 
ATOM      8  C   LIG    1        7.373  -0.357  -0.527  0.00  0.00    -0.022 A 
ATOM      9  C   LIG    1        8.021  -0.560  -1.751  0.00  0.00    +0.051 A 
ATOM     10  C   LIG    1        7.367  -1.219  -2.795  0.00  0.00    +0.121 A 
ATOM     11  C   LIG    1        6.069  -1.700  -2.595  0.00  0.00    +0.047 A 
ATOM     12  C   LIG    1        8.092   0.269   0.635  0.00  0.00    +0.046 C 
ATOM     13  C   LIG    1        5.422  -1.520  -1.371  0.00  0.00    +0.027 A 
ATOM     14  C   LIG    1        7.127   0.992   1.556  0.00  0.00    +0.101 C 
ENDBRANCH   2  10
ENDBRANCH   1   2
BRANCH   1  15
ATOM     15  C   LIG    1        9.593  -1.308  -5.725  0.00  0.00    +0.041 C 
BRANCH  15  16
ATOM     16  C   LIG    1        9.602  -2.820  -5.991  0.00  0.00    +0.011 C 
BRANCH  16  17
ATOM     17  C   LIG    1        9.987  -3.161  -7.434  0.00  0.00    +0.078 C 
BRANCH  17  18
ATOM     18  C   LIG    1       11.378  -2.759  -7.776  0.00  0.00    +0.152 A 
ATOM     19  N   LIG    1       11.837  -2.453  -9.035  0.00  0.00    -0.226 N 
ATOM     20  N   LIG    1       13.126  -2.079  -8.954  0.00  0.00    -0.044 NA
ATOM     21  N   LIG    1       13.457  -2.208  -7.681  0.00  0.00    -0.023 NA
ATOM     22  N   LIG    1       12.390  -2.634  -6.939  0.00  0.00    -0.113 NA
BRANCH  19  23
ATOM     23  C   LIG    1       11.156  -2.534 -10.318  0.00  0.00    +0.111 C 
ATOM     24  C   LIG    1       10.981  -1.166 -10.996  0.00  0.00    +0.027 C 
ATOM     25  C   LIG    1       12.232  -0.670 -11.721  0.00  0.00    +0.002 C 
ATOM     26  C   LIG    1       12.813  -1.721 -12.663  0.00  0.00    +0.000 C 
ATOM     27  C   LIG    1       13.051  -3.058 -11.970  0.00  0.00    +0.002 C 
ATOM     28  C   LIG    1       11.793  -3.563 -11.267  0.00  0.00    +0.027 C 
ENDBRANCH  19  23
ENDBRANCH  17  18
ENDBRANCH  16  17
ENDBRANCH  15  16
ENDBRANCH   1  15
TORSDOF 7
