REMARK  Name = *****
REMARK                            x       y       z     vdW  Elec       q    Type
REMARK                         _______ _______ _______ _____ _____    ______ ____
ROOT
ATOM      1  C   LIG    1        2.837   1.017   0.018  0.00  0.00    +0.001 A 
ATOM      2  C   LIG    1        1.710   1.679  -0.465  0.00  0.00    +0.008 A 
ATOM      3  C   LIG    1        0.533   0.976  -0.773  0.00  0.00    -0.018 A 
ATOM      4  C   LIG    1       -0.587   1.670  -1.254  0.00  0.00    +0.008 A 
ATOM      5  C   LIG    1       -1.766   0.997  -1.559  0.00  0.00    +0.001 A 
ATOM      6  C   LIG    1       -1.840  -0.380  -1.389  0.00  0.00    +0.005 A 
ATOM      7  C   LIG    1       -0.732  -1.111  -0.921  0.00  0.00    -0.028 A 
ATOM      8  C   LIG    1        0.477  -0.430  -0.599  0.00  0.00    -0.014 A 
ATOM      9  C   LIG    1        1.640  -1.072  -0.110  0.00  0.00    +0.009 A 
ATOM     10  C   LIG    1        2.801  -0.358   0.198  0.00  0.00    +0.001 A 
ENDROOT
BRANCH   7  11
ATOM     11  C   LIG    1       -0.905  -2.610  -0.762  0.00  0.00    +0.163 C 
BRANCH  11  12
ATOM     12  C   LIG    1       -1.419  -3.006   0.604  0.00  0.00    +0.285 C 
ATOM     13  N   LIG    1       -0.740  -2.708   1.763  0.00  0.00    -0.234 N 
ATOM     14  H   LIG    1       -0.213  -1.840   1.768  0.00  0.00    +0.291 HD
ATOM     15  C   LIG    1       -1.653  -2.921   2.862  0.00  0.00    +0.272 C 
ATOM     16  C   LIG    1       -2.678  -3.854   2.212  0.00  0.00    +0.333 C 
ATOM     17  N   LIG    1       -2.550  -3.655   0.740  0.00  0.00    -0.084 NA
ENDBRANCH  11  12
ENDBRANCH   7  11
TORSDOF 2
