REMARK  Name = *****
REMARK                            x       y       z     vdW  Elec       q    Type
REMARK                         _______ _______ _______ _____ _____    ______ ____
ROOT
ATOM      1  C   LIG    1        4.982   2.885   1.956  0.00  0.00    +0.140 C 
ATOM      2  C   LIG    1        5.995   2.541   3.050  0.00  0.00    +0.239 C 
ATOM      3  O   LIG    1        7.157   2.211   2.816  0.00  0.00    -0.274 OA
ATOM      4  N   LIG    1        5.543   2.692   4.352  0.00  0.00    -0.228 N 
ATOM      5  C   LIG    1        6.529   2.720   5.416  0.00  0.00    +0.143 C 
ATOM      6  C   LIG    1        4.232   2.459   4.703  0.00  0.00    +0.315 C 
ATOM      7  O   LIG    1        3.834   2.382   5.864  0.00  0.00    -0.252 OA
ATOM      8  N   LIG    1        3.353   2.260   3.679  0.00  0.00    -0.239 N 
ATOM      9  H   LIG    1        2.397   2.076   3.949  0.00  0.00    +0.159 HD
ATOM     10  C   LIG    1        3.576   2.482   2.352  0.00  0.00    +0.237 C 
ATOM     11  O   LIG    1        2.639   2.435   1.557  0.00  0.00    -0.274 OA
ENDROOT
BRANCH   1  12
ATOM     12  C   LIG    1        5.304   2.168   0.597  0.00  0.00    +0.085 C 
ATOM     13  C   LIG    1        5.238   0.632   0.693  0.00  0.00    +0.023 C 
BRANCH  12  14
ATOM     14  C   LIG    1        6.614   2.559   0.029  0.00  0.00    -0.098 C 
ATOM     15  C   LIG    1        7.705   2.877  -0.369  0.00  0.00    -0.102 C 
BRANCH  15  16
ATOM     16  C   LIG    1        9.057   3.291  -0.757  0.00  0.00    +0.085 C 
ATOM     17  C   LIG    1        9.085   3.847  -2.170  0.00  0.00    +0.017 C 
ENDBRANCH  15  16
ENDBRANCH  12  14
ENDBRANCH   1  12
BRANCH   1  18
ATOM     18  C   LIG    1        4.954   4.439   1.764  0.00  0.00    +0.053 C 
BRANCH  18  20
ATOM     19  C   LIG    1        3.326   5.696   3.242  0.00  0.00    +0.004 C 
ATOM     20  C   LIG    1        4.566   5.266   2.972  0.00  0.00    -0.033 C 
ENDBRANCH  18  20
ENDBRANCH   1  18
TORSDOF 5
