REMARK  Name = *****
REMARK                            x       y       z     vdW  Elec       q    Type
REMARK                         _______ _______ _______ _____ _____    ______ ____
ROOT
ATOM      1  C   LIG    1        1.264   0.784  -0.273  0.00  0.00    +0.080 C 
ENDROOT
BRANCH   1   3
ATOM      2  C   LIG    1        1.634  -0.367   1.954  0.00  0.00    +0.140 A 
ATOM      3  C   LIG    1        1.507  -0.470   0.555  0.00  0.00    +0.020 A 
ATOM      4  C   LIG    1        1.641  -1.753  -0.025  0.00  0.00    +0.066 A 
ATOM      5 CL   LIG    1        1.576  -1.956  -1.751  0.00  0.00    -0.082 Cl
ATOM      6  C   LIG    1        1.848  -2.883   0.792  0.00  0.00    +0.061 A 
ATOM      7 CL   LIG    1        1.999  -4.485   0.150  0.00  0.00    -0.082 Cl
ATOM      8  C   LIG    1        1.944  -2.753   2.179  0.00  0.00    +0.045 A 
ATOM      9  C   LIG    1        1.844  -1.495   2.755  0.00  0.00    +0.084 A 
ATOM     10 CL   LIG    1        1.985  -1.336   4.466  0.00  0.00    -0.080 Cl
BRANCH   2  11
ATOM     11  O   LIG    1        1.556   0.875   2.531  0.00  0.00    -0.505 OA
ATOM     12  H   LIG    1        1.688   0.771   3.493  0.00  0.00    +0.292 HD
ENDBRANCH   2  11
ENDBRANCH   1   3
BRANCH   1  13
ATOM     13  C   LIG    1       -0.012   1.548   0.052  0.00  0.00    +0.020 A 
ATOM     14  C   LIG    1       -0.004   2.894   0.489  0.00  0.00    +0.066 A 
ATOM     15 CL   LIG    1        1.496   3.753   0.686  0.00  0.00    -0.082 Cl
ATOM     16  C   LIG    1       -1.216   3.560   0.761  0.00  0.00    +0.061 A 
ATOM     17 CL   LIG    1       -1.277   5.206   1.299  0.00  0.00    -0.082 Cl
ATOM     18  C   LIG    1       -2.441   2.910   0.601  0.00  0.00    +0.045 A 
ATOM     19  C   LIG    1       -2.460   1.591   0.166  0.00  0.00    +0.084 A 
ATOM     20 CL   LIG    1       -3.976   0.793  -0.033  0.00  0.00    -0.080 Cl
ATOM     21  C   LIG    1       -1.263   0.921  -0.110  0.00  0.00    +0.140 A 
BRANCH  21  22
ATOM     22  O   LIG    1       -1.295  -0.376  -0.556  0.00  0.00    -0.505 OA
ATOM     23  H   LIG    1       -2.230  -0.649  -0.624  0.00  0.00    +0.292 HD
ENDBRANCH  21  22
ENDBRANCH   1  13
TORSDOF 4
