REMARK  Name = *****
REMARK                            x       y       z     vdW  Elec       q    Type
REMARK                         _______ _______ _______ _____ _____    ______ ____
ROOT
ATOM      1  C   LIG    1        5.240  11.674  -2.249  0.00  0.00    +0.106 C 
ATOM      2  C   LIG    1        4.957  10.173  -2.029  0.00  0.00    +0.172 C 
ATOM      3  C   LIG    1        3.481   9.962  -1.630  0.00  0.00    +0.175 C 
ATOM      4  C   LIG    1        2.473  10.442  -2.700  0.00  0.00    +0.169 C 
ATOM      5  C   LIG    1        2.947  11.734  -3.510  0.00  0.00    +0.084 C 
ATOM      6  C   LIG    1        4.449  12.123  -3.480  0.00  0.00    +0.046 C 
ENDROOT
BRANCH   1   8
ATOM      7  C   LIG    1        5.661  12.222   0.122  0.00  0.00    +0.242 C 
ATOM      8  N   LIG    1        5.040  12.517  -1.080  0.00  0.00    -0.308 N 
ATOM      9  H   LIG    1        4.204  13.111  -1.056  0.00  0.00    +0.149 HD
ATOM     10  O   LIG    1        6.495  11.350   0.244  0.00  0.00    -0.273 OA
BRANCH   7  11
ATOM     11  C   LIG    1        5.199  13.102   1.308  0.00  0.00    +0.201 C 
BRANCH  11  12
ATOM     12  O   LIG    1        4.071  12.559   1.986  0.00  0.00    -0.383 OA
ATOM     13  H   LIG    1        4.352  11.703   2.362  0.00  0.00    +0.210 HD
ENDBRANCH  11  12
BRANCH  11  14
ATOM     14  C   LIG    1        6.372  13.253   2.277  0.00  0.00    +0.056 C 
BRANCH  14  15
ATOM     15  C   LIG    1        6.017  14.139   3.465  0.00  0.00    +0.080 C 
BRANCH  15  16
ATOM     16  N   LIG    1        7.173  14.267   4.346  0.00  0.00    -0.330 NA
ATOM     17  H   LIG    1        7.961  14.658   3.833  0.00  0.00    +0.118 HD
ATOM     18  H   LIG    1        6.955  14.922   5.095  0.00  0.00    +0.118 HD
ENDBRANCH  15  16
ENDBRANCH  14  15
ENDBRANCH  11  14
ENDBRANCH   7  11
ENDBRANCH   1   8
BRANCH   5  19
ATOM     19  N   LIG    1        2.195  12.952  -3.118  0.00  0.00    -0.325 NA
ATOM     20  H   LIG    1        1.234  12.851  -3.452  0.00  0.00    +0.118 HD
ATOM     21  H   LIG    1        2.555  13.756  -3.639  0.00  0.00    +0.118 HD
ENDBRANCH   5  19
BRANCH   3  22
ATOM     22  O   LIG    1        3.176  10.576  -0.373  0.00  0.00    -0.387 OA
ATOM     23  H   LIG    1        2.312  10.239  -0.082  0.00  0.00    +0.210 HD
ENDBRANCH   3  22
BRANCH   2  24
ATOM     24  O   LIG    1        5.204   9.379  -3.212  0.00  0.00    -0.341 OA
BRANCH  24  25
ATOM     25  C   LIG    1        6.549   9.456  -3.719  0.00  0.00    +0.281 C 
ATOM     26  C   LIG    1        6.575   8.602  -5.001  0.00  0.00    +0.189 C 
ATOM     27  C   LIG    1        7.987   8.537  -5.617  0.00  0.00    +0.116 C 
ATOM     28  C   LIG    1        9.002   8.147  -4.516  0.00  0.00    +0.165 C 
ATOM     29  C   LIG    1        8.833   8.926  -3.193  0.00  0.00    +0.177 C 
ATOM     30  O   LIG    1        7.463   8.956  -2.754  0.00  0.00    -0.341 OA
BRANCH  27  31
ATOM     31  N   LIG    1        8.375   9.760  -6.339  0.00  0.00    -0.323 NA
ATOM     32  H   LIG    1        7.657  10.015  -7.014  0.00  0.00    +0.119 HD
ATOM     33  H   LIG    1        8.461  10.544  -5.680  0.00  0.00    +0.119 HD
ENDBRANCH  27  31
BRANCH  26  34
ATOM     34  O   LIG    1        6.141   7.263  -4.672  0.00  0.00    -0.385 OA
ATOM     35  H   LIG    1        5.421   7.399  -4.020  0.00  0.00    +0.210 HD
ENDBRANCH  26  34
BRANCH  28  36
ATOM     36  O   LIG    1        8.841   6.741  -4.226  0.00  0.00    -0.388 OA
ATOM     37  H   LIG    1        7.875   6.580  -4.153  0.00  0.00    +0.210 HD
ENDBRANCH  28  36
BRANCH  29  38
ATOM     38  C   LIG    1        9.477  10.327  -3.171  0.00  0.00    +0.190 C 
BRANCH  38  39
ATOM     39  O   LIG    1        8.874  11.257  -4.072  0.00  0.00    -0.392 OA
ATOM     40  H   LIG    1        9.229  12.133  -3.833  0.00  0.00    +0.209 HD
ENDBRANCH  38  39
ENDBRANCH  29  38
ENDBRANCH  24  25
ENDBRANCH   2  24
BRANCH   4  41
ATOM     41  O   LIG    1        2.115   9.383  -3.627  0.00  0.00    -0.342 OA
BRANCH  41  42
ATOM     42  C   LIG    1        1.382   8.230  -3.105  0.00  0.00    +0.268 C 
ATOM     43  C   LIG    1        1.068   7.277  -4.325  0.00  0.00    +0.107 C 
ATOM     44  C   LIG    1        0.102   6.143  -3.954  0.00  0.00    +0.026 C 
ATOM     45  C   LIG    1       -1.151   6.722  -3.317  0.00  0.00    +0.035 C 
ATOM     46  C   LIG    1       -0.773   7.588  -2.114  0.00  0.00    +0.135 C 
ATOM     47  O   LIG    1        0.166   8.633  -2.452  0.00  0.00    -0.345 OA
BRANCH  43  48
ATOM     48  N   LIG    1        0.463   8.048  -5.438  0.00  0.00    -0.323 NA
ATOM     49  H   LIG    1       -0.282   7.517  -5.883  0.00  0.00    +0.119 HD
ATOM     50  H   LIG    1        0.018   8.868  -5.017  0.00  0.00    +0.119 HD
ENDBRANCH  43  48
BRANCH  46  51
ATOM     51  C   LIG    1       -0.307   6.704  -0.931  0.00  0.00    +0.109 C 
BRANCH  51  52
ATOM     52  N   LIG    1       -0.119   7.474   0.296  0.00  0.00    -0.328 NA
ATOM     53  H   LIG    1        0.387   8.328   0.064  0.00  0.00    +0.118 HD
ATOM     54  H   LIG    1       -1.028   7.788   0.638  0.00  0.00    +0.118 HD
ENDBRANCH  51  52
ENDBRANCH  46  51
ENDBRANCH  41  42
ENDBRANCH   4  41
TORSDOF 20
