REMARK  Name = *****
REMARK                            x       y       z     vdW  Elec       q    Type
REMARK                         _______ _______ _______ _____ _____    ______ ____
ROOT
ATOM      1  C   LIG    1        5.333  -0.796   0.015  0.00  0.00    +0.189 A 
ATOM      2  S   LIG    1        6.493   0.433  -0.235  0.00  0.00    -0.011 S 
ATOM      3  C   LIG    1        7.666  -0.801  -0.103  0.00  0.00    +0.256 A 
ATOM      4  N   LIG    1        7.197  -2.018   0.079  0.00  0.00    -0.119 NA
ATOM      5  N   LIG    1        5.825  -2.005   0.147  0.00  0.00    -0.124 NA
ENDROOT
BRANCH   1   8
ATOM      6  C   LIG    1        3.238  -2.634   0.811  0.00  0.00    +0.109 C 
ATOM      7  C   LIG    1        2.983  -1.202   0.410  0.00  0.00    +0.216 C 
ATOM      8  N   LIG    1        4.030  -0.395   0.066  0.00  0.00    -0.264 N 
ATOM      9  H   LIG    1        3.803   0.570  -0.135  0.00  0.00    +0.157 HD
ATOM     10  O   LIG    1        1.842  -0.738   0.409  0.00  0.00    -0.276 OA
ENDBRANCH   1   8
BRANCH   3  11
ATOM     11  S   LIG    1        9.376  -0.412  -0.206  0.00  0.00    +0.082 S 
ATOM     12  O   LIG    1        9.672   0.377   0.962  0.00  0.00    -0.151 OA
ATOM     13  O   LIG    1        9.588   0.058  -1.558  0.00  0.00    -0.151 OA
BRANCH  11  14
ATOM     14  N   LIG    1       10.227  -1.866  -0.052  0.00  0.00    -0.202 NA
ATOM     15  H   LIG    1       10.079  -2.289   0.865  0.00  0.00    +0.144 HD
ATOM     16  H   LIG    1       10.024  -2.502  -0.824  0.00  0.00    +0.144 HD
ENDBRANCH  11  14
ENDBRANCH   3  11
TORSDOF 3
