REMARK  Name = *****
REMARK                            x       y       z     vdW  Elec       q    Type
REMARK                         _______ _______ _______ _____ _____    ______ ____
ROOT
ATOM      1  C   LIG    1        9.536   6.724   0.689  0.00  0.00    +0.087 C 
ATOM      2  N   LIG    1        9.250   5.882  -0.279  0.00  0.00    -0.089 NA
ENDROOT
BRANCH   1   3
ATOM      3  C   LIG    1        8.563   7.694   1.352  0.00  0.00    -0.001 A 
ATOM      4  C   LIG    1        8.789   7.956   2.726  0.00  0.00    +0.010 A 
ATOM      5  C   LIG    1        7.869   8.654   3.494  0.00  0.00    +0.013 A 
ATOM      6  C   LIG    1        6.716   9.193   2.938  0.00  0.00    +0.055 A 
ATOM      7  C   LIG    1        6.522   9.049   1.554  0.00  0.00    +0.013 A 
ATOM      8  C   LIG    1        7.441   8.304   0.772  0.00  0.00    +0.010 A 
BRANCH   6   9
ATOM      9  C   LIG    1        5.744   9.861   3.879  0.00  0.00    +0.417 C 
ATOM     10  F   LIG    1        6.329  10.870   4.587  0.00  0.00    -0.166 F 
ATOM     11  F   LIG    1        5.269   8.992   4.819  0.00  0.00    -0.166 F 
ATOM     12  F   LIG    1        4.651  10.402   3.281  0.00  0.00    -0.166 F 
ENDBRANCH   6   9
ENDBRANCH   1   3
BRANCH   1  13
ATOM     13  C   LIG    1       11.014   6.744   1.153  0.00  0.00    +0.059 C 
BRANCH  13  14
ATOM     14  C   LIG    1       11.852   5.455   1.266  0.00  0.00    +0.009 C 
BRANCH  14  15
ATOM     15  C   LIG    1       11.580   4.398   2.355  0.00  0.00    +0.028 C 
BRANCH  15  16
ATOM     16  C   LIG    1       10.268   3.611   2.354  0.00  0.00    +0.159 C 
BRANCH  16  18
ATOM     17  C   LIG    1        9.041   4.993   3.862  0.00  0.00    +0.193 C 
ATOM     18  O   LIG    1        9.112   4.403   2.577  0.00  0.00    -0.383 OA
ENDBRANCH  16  18
ENDBRANCH  15  16
ENDBRANCH  14  15
ENDBRANCH  13  14
ENDBRANCH   1  13
BRANCH   2  19
ATOM     19  O   LIG    1        7.889   5.864  -0.578  0.00  0.00    -0.392 OA
BRANCH  19  20
ATOM     20  C   LIG    1        7.643   4.860  -1.559  0.00  0.00    +0.277 C 
BRANCH  20  21
ATOM     21  C   LIG    1        6.971   5.483  -2.787  0.00  0.00    +0.121 C 
BRANCH  21  22
ATOM     22  N   LIG    1        7.819   6.472  -3.457  0.00  0.00    -0.327 NA
ATOM     23  H   LIG    1        7.396   6.773  -4.331  0.00  0.00    +0.118 HD
ATOM     24  H   LIG    1        8.723   6.057  -3.672  0.00  0.00    +0.118 HD
ENDBRANCH  21  22
ENDBRANCH  20  21
ENDBRANCH  19  20
ENDBRANCH   2  19
TORSDOF 11
