REMARK  Name = *****
REMARK                            x       y       z     vdW  Elec       q    Type
REMARK                         _______ _______ _______ _____ _____    ______ ____
ROOT
ATOM      1  N   LIG    1        7.061   3.633   2.634  0.00  0.00    -0.326 N 
ENDROOT
BRANCH   1   2
ATOM      2  C   LIG    1        8.491   3.904   2.983  0.00  0.00    +0.082 C 
ATOM      3  C   LIG    1        9.559   3.347   1.996  0.00  0.00    +0.058 C 
ATOM      4  C   LIG    1       10.028   2.095   2.676  0.00  0.00    -0.042 A 
ATOM      5  C   LIG    1        9.639   2.084   4.020  0.00  0.00    -0.042 A 
ATOM      6  C   LIG    1        9.987   1.045   4.860  0.00  0.00    +0.004 A 
ATOM      7  C   LIG    1       10.717  -0.019   4.339  0.00  0.00    +0.000 A 
ATOM      8  C   LIG    1       11.099  -0.019   2.985  0.00  0.00    +0.000 A 
ATOM      9  C   LIG    1       10.761   1.049   2.150  0.00  0.00    +0.004 A 
ATOM     10  C   LIG    1        8.857   3.311   4.367  0.00  0.00    +0.058 C 
ENDBRANCH   1   2
BRANCH   1  11
ATOM     11  C   LIG    1        6.037   4.411   3.197  0.00  0.00    +0.030 A 
ATOM     12  C   LIG    1        6.271   5.279   4.286  0.00  0.00    +0.023 A 
ATOM     13  C   LIG    1        5.261   6.079   4.836  0.00  0.00    +0.002 A 
ATOM     14  C   LIG    1        3.991   6.088   4.291  0.00  0.00    +0.000 A 
ATOM     15  C   LIG    1        3.715   5.245   3.219  0.00  0.00    +0.002 A 
ATOM     16  C   LIG    1        4.715   4.404   2.723  0.00  0.00    +0.023 A 
ENDBRANCH   1  11
BRANCH   1  17
ATOM     17  C   LIG    1        6.702   2.432   1.849  0.00  0.00    +0.106 C 
BRANCH  17  18
ATOM     18  C   LIG    1        6.373   2.823   0.407  0.00  0.00    +0.034 C 
BRANCH  18  19
ATOM     19  C   LIG    1        6.237   1.631  -0.534  0.00  0.00    +0.086 C 
BRANCH  19  20
ATOM     20  N   LIG    1        6.043   1.972  -1.952  0.00  0.00    -0.303 NA
BRANCH  20  22
ATOM     21  C   LIG    1        3.514   2.171  -1.831  0.00  0.00    +0.020 C 
ATOM     22  C   LIG    1        4.848   2.760  -2.280  0.00  0.00    +0.081 C 
ENDBRANCH  20  22
BRANCH  20  23
ATOM     23  C   LIG    1        7.252   2.500  -2.615  0.00  0.00    +0.081 C 
ATOM     24  C   LIG    1        7.687   3.940  -2.325  0.00  0.00    +0.020 C 
ENDBRANCH  20  23
ENDBRANCH  19  20
ENDBRANCH  18  19
ENDBRANCH  17  18
ENDBRANCH   1  17
TORSDOF 8
