REMARK  Name = *****
REMARK                            x       y       z     vdW  Elec       q    Type
REMARK                         _______ _______ _______ _____ _____    ______ ____
ROOT
ATOM      1  C   LIG    1        0.878   5.669   7.460  0.00  0.00    -0.021 C 
ATOM      2  C   LIG    1        1.800   6.764   7.977  0.00  0.00    +0.104 C 
ATOM      3  S   LIG    1        2.559   7.753   6.655  0.00  0.00    -0.131 S 
ATOM      4  C   LIG    1        3.154   6.296   5.749  0.00  0.00    +0.169 C 
ATOM      5  N   LIG    1        1.995   5.502   5.365  0.00  0.00    -0.249 N 
ATOM      6  C   LIG    1        2.047   5.822   4.054  0.00  0.00    +0.244 C 
ATOM      7  O   LIG    1        1.232   5.642   3.168  0.00  0.00    -0.273 OA
ATOM      8  CA  LIG    1        3.419   6.495   4.222  0.00  0.00    +0.191 C 
ATOM      9  CA  LIG    1        0.964   5.145   6.205  0.00  0.00    +0.123 C 
ENDROOT
BRANCH   8  10
ATOM     10  N   LIG    1        3.556   7.894   3.729  0.00  0.00    -0.299 N 
ATOM     11  H   LIG    1        2.749   8.510   3.761  0.00  0.00    +0.150 HD
ATOM     12  C   LIG    1        4.799   8.490   3.727  0.00  0.00    +0.247 C 
ATOM     13  O   LIG    1        5.809   7.880   4.081  0.00  0.00    -0.273 OA
BRANCH  12  14
ATOM     14  C   LIG    1        4.856   9.945   3.214  0.00  0.00    +0.230 C 
BRANCH  14  15
ATOM     15  C   LIG    1        4.648  10.946   4.331  0.00  0.00    -0.010 A 
ATOM     16  C   LIG    1        3.358  11.385   4.669  0.00  0.00    +0.006 A 
ATOM     17  C   LIG    1        3.170  12.299   5.710  0.00  0.00    +0.000 A 
ATOM     18  C   LIG    1        4.263  12.783   6.426  0.00  0.00    +0.000 A 
ATOM     19  C   LIG    1        5.547  12.354   6.105  0.00  0.00    +0.000 A 
ATOM     20  C   LIG    1        5.737  11.442   5.069  0.00  0.00    +0.006 A 
ENDBRANCH  14  15
BRANCH  14  21
ATOM     21  O   LIG    1        6.118  10.179   2.584  0.00  0.00    -0.378 OA
ATOM     22  H   LIG    1        6.774   9.703   3.128  0.00  0.00    +0.211 HD
ENDBRANCH  14  21
ENDBRANCH  12  14
ENDBRANCH   8  10
BRANCH   9  23
ATOM     23  C   LIG    1       -0.058   4.123   5.743  0.00  0.00    +0.351 C 
ATOM     24  O   LIG    1       -0.740   3.448   6.501  0.00  0.00    -0.244 OA
BRANCH  23  25
ATOM     25  OXT LIG    1       -0.178   3.950   4.417  0.00  0.00    -0.476 OA
ATOM     26  HXT LIG    1        0.392   4.497   3.838  0.00  0.00    +0.295 HD
ENDBRANCH  23  25
ENDBRANCH   9  23
BRANCH   1  27
ATOM     27  C   LIG    1       -0.237   5.332   8.449  0.00  0.00    +0.111 C 
BRANCH  27  28
ATOM     28  S   LIG    1        0.209   3.896   9.478  0.00  0.00    -0.080 S 
BRANCH  28  31
ATOM     29  C   LIG    1       -1.910   1.345   9.790  0.00  0.00    +0.177 C 
ATOM     30  N   LIG    1       -2.046   2.624  10.427  0.00  0.00    -0.223 N 
ATOM     31  C   LIG    1       -1.261   3.740  10.375  0.00  0.00    +0.209 A 
ATOM     32  N   LIG    1       -1.796   4.665  11.139  0.00  0.00    -0.102 NA
ATOM     33  N   LIG    1       -2.920   4.095  11.688  0.00  0.00    -0.022 NA
ATOM     34  N   LIG    1       -3.080   2.849  11.262  0.00  0.00    -0.043 NA
ENDBRANCH  28  31
ENDBRANCH  27  28
ENDBRANCH   1  27
TORSDOF 9
