REMARK  Name = *****
REMARK                            x       y       z     vdW  Elec       q    Type
REMARK                         _______ _______ _______ _____ _____    ______ ____
ROOT
ATOM      1  C   LIG    1        0.044   1.351  -3.896  0.00  0.00    +0.049 C 
ATOM      2  C   LIG    1       -0.079   1.420  -2.399  0.00  0.00    +0.013 A 
ATOM      3  C   LIG    1       -0.009   0.280  -1.581  0.00  0.00    +0.060 A 
ATOM      4  N   LIG    1       -0.101   0.366  -0.227  0.00  0.00    -0.259 NA
ATOM      5  C   LIG    1       -0.269   1.580   0.332  0.00  0.00    +0.114 A 
ATOM      6  C   LIG    1       -0.302   2.757  -0.387  0.00  0.00    +0.065 A 
ATOM      7  C   LIG    1       -0.170   2.678  -1.769  0.00  0.00    +0.127 A 
ENDROOT
BRANCH   3   8
ATOM      8  C   LIG    1        0.262  -1.110  -2.115  0.00  0.00    +0.167 C 
BRANCH   8   9
ATOM      9  S   LIG    1       -1.244  -2.085  -2.430  0.00  0.00    +0.095 S 
ATOM     10  O   LIG    1       -1.850  -2.508  -1.123  0.00  0.00    -0.249 OA
BRANCH   9  11
ATOM     11  C   LIG    1       -0.424  -3.505  -3.019  0.00  0.00    +0.198 A 
ATOM     12  N   LIG    1       -0.382  -4.698  -2.338  0.00  0.00    -0.331 N 
ATOM     13  H   LIG    1       -0.811  -4.858  -1.441  0.00  0.00    +0.168 HD
ATOM     14  C   LIG    1        0.415  -5.561  -3.049  0.00  0.00    +0.067 A 
ATOM     15  C   LIG    1        0.772  -4.841  -4.185  0.00  0.00    +0.090 A 
ATOM     16  C   LIG    1        1.592  -5.443  -5.151  0.00  0.00    +0.030 A 
ATOM     17  C   LIG    1        2.052  -6.747  -4.928  0.00  0.00    +0.002 A 
ATOM     18  C   LIG    1        1.688  -7.445  -3.774  0.00  0.00    +0.002 A 
ATOM     19  C   LIG    1        0.852  -6.870  -2.807  0.00  0.00    +0.028 A 
ATOM     20  N   LIG    1        0.248  -3.567  -4.147  0.00  0.00    -0.220 NA
ENDBRANCH   9  11
ENDBRANCH   8   9
ENDBRANCH   3   8
BRANCH   7  21
ATOM     21  O   LIG    1       -0.141   3.782  -2.586  0.00  0.00    -0.483 OA
BRANCH  21  22
ATOM     22  C   LIG    1        0.425   4.977  -2.022  0.00  0.00    +0.342 C 
BRANCH  22  23
ATOM     23  C   LIG    1        1.056   5.870  -3.090  0.00  0.00    +0.424 C 
ATOM     24  F   LIG    1        2.366   6.084  -2.817  0.00  0.00    -0.167 F 
ATOM     25  F   LIG    1        0.455   7.082  -3.124  0.00  0.00    -0.167 F 
ATOM     26  F   LIG    1        0.985   5.345  -4.332  0.00  0.00    -0.167 F 
ENDBRANCH  22  23
ENDBRANCH  21  22
ENDBRANCH   7  21
TORSDOF 6
