REMARK  Name = *****
REMARK                            x       y       z     vdW  Elec       q    Type
REMARK                         _______ _______ _______ _____ _____    ______ ____
ROOT
ATOM      1  C   LIG    1        3.431  -7.956   2.415  0.00  0.00    +0.190 C 
ENDROOT
BRANCH   1   2
ATOM      2  C   LIG    1        3.330  -8.996   1.242  0.00  0.00    +0.036 C 
ATOM      3  C   LIG    1        2.259 -10.093   1.472  0.00  0.00    +0.007 C 
ATOM      4  C   LIG    1        0.822  -9.648   1.209  0.00  0.00    +0.000 C 
ATOM      5  C   LIG    1        0.659  -9.074  -0.192  0.00  0.00    +0.000 C 
ATOM      6  C   LIG    1        1.661  -7.962  -0.476  0.00  0.00    +0.000 C 
ATOM      7  C   LIG    1        3.102  -8.372  -0.160  0.00  0.00    +0.007 C 
ENDBRANCH   1   2
BRANCH   1   8
ATOM      8  C   LIG    1        3.643  -8.604   3.797  0.00  0.00    -0.005 A 
ATOM      9  C   LIG    1        2.790  -8.308   4.874  0.00  0.00    +0.007 A 
ATOM     10  C   LIG    1        3.084  -8.743   6.168  0.00  0.00    +0.000 A 
ATOM     11  C   LIG    1        4.225  -9.503   6.409  0.00  0.00    +0.000 A 
ATOM     12  C   LIG    1        5.054  -9.857   5.351  0.00  0.00    +0.000 A 
ATOM     13  C   LIG    1        4.763  -9.419   4.056  0.00  0.00    +0.007 A 
ENDBRANCH   1   8
BRANCH   1  14
ATOM     14  C   LIG    1        4.582  -6.914   2.205  0.00  0.00    +0.345 C 
ATOM     15  O   LIG    1        4.376  -5.694   2.194  0.00  0.00    -0.247 OA
BRANCH  14  16
ATOM     16  O   LIG    1        5.795  -7.493   2.019  0.00  0.00    -0.450 OA
BRANCH  16  17
ATOM     17  C   LIG    1        6.904  -6.599   2.039  0.00  0.00    +0.359 C 
BRANCH  17  20
ATOM     18  C   LIG    1        8.482  -4.089   2.119  0.00  0.00    +0.276 C 
ATOM     19  N   LIG    1        7.912  -4.646   3.333  0.00  0.00    -0.224 N 
ATOM     20  C   LIG    1        7.192  -5.837   3.367  0.00  0.00    +0.321 C 
ATOM     21  N   LIG    1        6.777  -6.413   4.448  0.00  0.00    -0.084 NA
ATOM     22  C   LIG    1        7.069  -5.783   5.735  0.00  0.00    +0.294 C 
ATOM     23  C   LIG    1        7.209  -4.277   5.625  0.00  0.00    +0.093 C 
ATOM     24  C   LIG    1        8.258  -3.972   4.576  0.00  0.00    +0.229 C 
ENDBRANCH  17  20
ENDBRANCH  16  17
ENDBRANCH  14  16
ENDBRANCH   1  14
BRANCH   1  25
ATOM     25  O   LIG    1        2.195  -7.211   2.441  0.00  0.00    -0.373 OA
ATOM     26  H   LIG    1        2.412  -6.311   2.124  0.00  0.00    +0.211 HD
ENDBRANCH   1  25
TORSDOF 7
