REMARK  Name = *****
REMARK                            x       y       z     vdW  Elec       q    Type
REMARK                         _______ _______ _______ _____ _____    ______ ____
ROOT
ATOM      1  CA  LIG    1        2.960   0.707  -1.161  0.00  0.00    +0.176 C 
ENDROOT
BRANCH   1   3
ATOM      2  C   LIG    1        0.868   0.021   0.194  0.00  0.00    +0.024 C 
ATOM      3  C   LIG    1        2.393  -0.085   0.058  0.00  0.00    +0.034 C 
ATOM      4  C   LIG    1        3.063   0.323   1.379  0.00  0.00    +0.024 C 
BRANCH   3   5
ATOM      5  S   LIG    1        2.790  -1.884  -0.199  0.00  0.00    -0.170 S 
ATOM      6  H   LIG    1        2.334  -2.321   0.986  0.00  0.00    +0.102 HD
ENDBRANCH   3   5
ENDBRANCH   1   3
BRANCH   1   7
ATOM      7  N   LIG    1        2.453   0.235  -2.502  0.00  0.00    -0.317 NA
ATOM      8  H1  LIG    1        2.780  -0.735  -2.601  0.00  0.00    +0.119 HD
ATOM      9  H2  LIG    1        1.435   0.127  -2.441  0.00  0.00    +0.119 HD
ENDBRANCH   1   7
BRANCH   1  10
ATOM     10  C   LIG    1        2.708   2.231  -1.094  0.00  0.00    +0.323 C 
ATOM     11  O   LIG    1        2.761   2.931  -0.099  0.00  0.00    -0.249 OA
BRANCH  10  12
ATOM     12  OXT LIG    1        2.457   2.732  -2.335  0.00  0.00    -0.479 OA
ATOM     13  HXT LIG    1        2.493   1.956  -2.951  0.00  0.00    +0.295 HD
ENDBRANCH  10  12
ENDBRANCH   1  10
TORSDOF 5
