REMARK  Name = *****
REMARK                            x       y       z     vdW  Elec       q    Type
REMARK                         _______ _______ _______ _____ _____    ______ ____
ROOT
ATOM      1  C   LIG    1        1.851   4.182  -0.973  0.00  0.00    -0.018 A 
ATOM      2  C   LIG    1        2.632   5.282  -0.506  0.00  0.00    +0.039 A 
ATOM      3  I   LIG    1        4.213   5.021   0.947  0.00  0.00    -0.042 I 
ATOM      4  C   LIG    1        2.417   6.617  -0.949  0.00  0.00    +0.051 A 
ATOM      5  C   LIG    1        1.310   6.862  -1.772  0.00  0.00    +0.036 A 
ATOM      6  I   LIG    1        0.775   8.815  -2.353  0.00  0.00    -0.042 I 
ATOM      7  C   LIG    1        0.527   5.814  -2.250  0.00  0.00    +0.030 A 
ATOM      8  C   LIG    1        0.811   4.490  -1.880  0.00  0.00    +0.019 A 
ATOM      9  I   LIG    1       -0.456   3.044  -2.759  0.00  0.00    -0.043 I 
ENDROOT
BRANCH   4  10
ATOM     10  N   LIG    1        3.145   7.696  -0.400  0.00  0.00    -0.356 N 
ATOM     11  H   LIG    1        4.082   7.433  -0.103  0.00  0.00    +0.142 HD
ATOM     12  H   LIG    1        3.134   8.530  -0.982  0.00  0.00    +0.142 HD
ENDBRANCH   4  10
BRANCH   1  13
ATOM     13  C   LIG    1        2.072   2.754  -0.478  0.00  0.00    +0.052 C 
BRANCH  13  14
ATOM     14  C   LIG    1        2.952   1.821  -1.347  0.00  0.00    +0.102 C 
BRANCH  14  16
ATOM     15  C   LIG    1        5.207   1.576  -2.573  0.00  0.00    +0.004 C 
ATOM     16  C   LIG    1        4.360   2.380  -1.598  0.00  0.00    +0.011 C 
ENDBRANCH  14  16
BRANCH  14  17
ATOM     17  C   LIG    1        3.042   0.476  -0.637  0.00  0.00    +0.308 C 
ATOM     18  O   LIG    1        3.870   0.135   0.183  0.00  0.00    -0.251 OA
BRANCH  17  19
ATOM     19  O   LIG    1        2.050  -0.368  -0.994  0.00  0.00    -0.480 OA
ATOM     20  H   LIG    1        2.234  -1.182  -0.479  0.00  0.00    +0.295 HD
ENDBRANCH  17  19
ENDBRANCH  14  17
ENDBRANCH  13  14
ENDBRANCH   1  13
TORSDOF 6
