REMARK  Name = *****
REMARK                            x       y       z     vdW  Elec       q    Type
REMARK                         _______ _______ _______ _____ _____    ______ ____
ROOT
ATOM      1  C   LIG    1        5.467  -0.476   4.586  0.00  0.00    +0.065 C 
ENDROOT
BRANCH   1   5
ATOM      2  C   LIG    1        3.679   1.568   7.995  0.00  0.00    +0.120 A 
ATOM      3  C   LIG    1        2.881   1.048   6.989  0.00  0.00    +0.046 A 
ATOM      4  C   LIG    1        3.441   0.378   5.904  0.00  0.00    +0.007 A 
ATOM      5  C   LIG    1        4.833   0.207   5.807  0.00  0.00    -0.040 A 
ATOM      6  C   LIG    1        5.628   0.697   6.850  0.00  0.00    +0.007 A 
ATOM      7  C   LIG    1        5.062   1.360   7.947  0.00  0.00    +0.046 A 
BRANCH   2   9
ATOM      8  C   LIG    1        2.014   3.021   8.783  0.00  0.00    +0.277 C 
ATOM      9  O   LIG    1        3.197   2.271   9.068  0.00  0.00    -0.495 OA
ENDBRANCH   2   9
ENDBRANCH   1   5
BRANCH   1  10
ATOM     10  C   LIG    1        5.579  -2.048   4.766  0.00  0.00    +0.074 C 
ATOM     11  C   LIG    1        6.295  -2.746   3.583  0.00  0.00    +0.035 C 
ATOM     12  C   LIG    1        7.813  -2.585   3.584  0.00  0.00    +0.003 C 
ATOM     13  C   LIG    1        8.418  -3.096   4.884  0.00  0.00    +0.000 C 
ATOM     14  C   LIG    1        7.790  -2.417   6.093  0.00  0.00    +0.003 C 
ATOM     15  C   LIG    1        6.264  -2.514   6.082  0.00  0.00    +0.035 C 
BRANCH  10  16
ATOM     16  O   LIG    1        4.245  -2.595   4.776  0.00  0.00    -0.388 OA
ATOM     17  H   LIG    1        3.854  -2.385   5.644  0.00  0.00    +0.210 HD
ENDBRANCH  10  16
ENDBRANCH   1  10
BRANCH   1  18
ATOM     18  C   LIG    1        4.712  -0.076   3.256  0.00  0.00    +0.094 C 
BRANCH  18  19
ATOM     19  N   LIG    1        4.515   1.377   3.011  0.00  0.00    -0.308 NA
ATOM     20  C   LIG    1        3.710   1.589   1.803  0.00  0.00    +0.104 C 
ATOM     21  C   LIG    1        5.781   2.096   2.893  0.00  0.00    +0.104 C 
ENDBRANCH  18  19
ENDBRANCH   1  18
TORSDOF 6
