REMARK  Name = *****
REMARK                            x       y       z     vdW  Elec       q    Type
REMARK                         _______ _______ _______ _____ _____    ______ ____
ROOT
ATOM      1  C   LIG    1        6.924   5.230  -1.105  0.00  0.00    +0.228 C 
ENDROOT
BRANCH   1   2
ATOM      2  C   LIG    1        7.210   3.799  -1.609  0.00  0.00    +0.275 C 
BRANCH   2   3
ATOM      3  O   LIG    1        5.997   3.043  -1.606  0.00  0.00    -0.488 OA
BRANCH   3  12
ATOM      4  C   LIG    1        1.235   0.002  -1.547  0.00  0.00    +0.063 C 
ATOM      5  C   LIG    1        2.607   0.340  -1.998  0.00  0.00    +0.014 C 
ATOM      6  N   LIG    1        3.197  -0.319  -3.045  0.00  0.00    -0.358 NA
ATOM      7  H   LIG    1        2.778  -1.077  -3.565  0.00  0.00    +0.166 HD
ATOM      8  C   LIG    1        4.431   0.223  -3.325  0.00  0.00    +0.050 C 
ATOM      9  C   LIG    1        5.340  -0.109  -4.332  0.00  0.00    +0.026 C 
ATOM     10  C   LIG    1        6.529   0.615  -4.381  0.00  0.00    +0.006 C 
ATOM     11  C   LIG    1        6.793   1.638  -3.466  0.00  0.00    +0.046 C 
ATOM     12  C   LIG    1        5.862   1.996  -2.478  0.00  0.00    +0.130 C 
ATOM     13  C   LIG    1        4.660   1.245  -2.403  0.00  0.00    +0.042 C 
ATOM     14  C   LIG    1        3.509   1.287  -1.555  0.00  0.00    +0.034 C 
ENDBRANCH   3  12
ENDBRANCH   2   3
ENDBRANCH   1   2
BRANCH   1  15
ATOM     15  O   LIG    1        8.060   6.095  -1.335  0.00  0.00    -0.453 OA
BRANCH  15  16
ATOM     16  C   LIG    1        9.238   5.818  -0.718  0.00  0.00    +0.340 C 
ATOM     17  O   LIG    1        9.456   4.970   0.107  0.00  0.00    -0.245 OA
BRANCH  16  18
ATOM     18  C   LIG    1       10.286   6.711  -1.291  0.00  0.00    +0.059 C 
ATOM     19  C   LIG    1       11.454   6.942  -0.551  0.00  0.00    +0.015 C 
ATOM     20  C   LIG    1       12.475   7.731  -1.080  0.00  0.00    +0.001 C 
ATOM     21  C   LIG    1       12.344   8.283  -2.356  0.00  0.00    +0.000 C 
ATOM     22  C   LIG    1       11.193   8.047  -3.106  0.00  0.00    +0.001 C 
ATOM     23  C   LIG    1       10.165   7.265  -2.578  0.00  0.00    +0.015 C 
ENDBRANCH  16  18
ENDBRANCH  15  16
ENDBRANCH   1  15
BRANCH   1  24
ATOM     24  C   LIG    1        6.425   5.213   0.353  0.00  0.00    +0.129 C 
BRANCH  24  25
ATOM     25  N   LIG    1        6.119   6.537   0.931  0.00  0.00    -0.308 NA
ATOM     26  H   LIG    1        5.427   7.006   0.345  0.00  0.00    +0.123 HD
BRANCH  25  27
ATOM     27  C   LIG    1        5.619   6.469   2.325  0.00  0.00    +0.011 C 
ATOM     28  C   LIG    1        5.293   7.903   2.788  0.00  0.00    +0.027 C 
ATOM     29  C   LIG    1        6.687   5.899   3.277  0.00  0.00    +0.027 C 
ATOM     30  C   LIG    1        4.327   5.637   2.426  0.00  0.00    +0.027 C 
ENDBRANCH  25  27
ENDBRANCH  24  25
ENDBRANCH   1  24
TORSDOF 9
