REMARK  Name = *****
REMARK                            x       y       z     vdW  Elec       q    Type
REMARK                         _______ _______ _______ _____ _____    ______ ____
ROOT
ATOM      1  C   LIG    1        4.406   1.348   1.117  0.00  0.00    +0.086 C 
ATOM      2  C   LIG    1        4.669   0.765   2.456  0.00  0.00    +0.345 C 
ATOM      3  O   LIG    1        3.783   0.248   3.137  0.00  0.00    -0.245 OA
ATOM      4  O   LIG    1        5.984   0.758   2.909  0.00  0.00    -0.422 OA
ATOM      5  C   LIG    1        7.033   1.342   2.180  0.00  0.00    +0.143 A 
ATOM      6  C   LIG    1        6.796   1.909   0.933  0.00  0.00    +0.059 A 
ATOM      7  C   LIG    1        7.874   2.536   0.288  0.00  0.00    +0.015 A 
ATOM      8  C   LIG    1        9.149   2.549   0.868  0.00  0.00    +0.001 A 
ATOM      9  C   LIG    1        9.362   1.948   2.108  0.00  0.00    +0.004 A 
ATOM     10  C   LIG    1        8.297   1.345   2.773  0.00  0.00    +0.047 A 
ATOM     11  C   LIG    1        5.433   1.842   0.398  0.00  0.00    +0.138 C 
ENDROOT
BRANCH  11  12
ATOM     12  O   LIG    1        5.239   2.295  -0.894  0.00  0.00    -0.505 OA
ATOM     13  H   LIG    1        6.030   2.073  -1.415  0.00  0.00    +0.292 HD
ENDBRANCH  11  12
BRANCH   1  14
ATOM     14  C   LIG    1        2.970   1.308   0.592  0.00  0.00    +0.059 C 
BRANCH  14  15
ATOM     15  C   LIG    1        2.067   2.363   1.266  0.00  0.00    -0.040 A 
ATOM     16  C   LIG    1        1.125   2.037   2.256  0.00  0.00    +0.004 A 
ATOM     17  C   LIG    1        0.276   3.006   2.802  0.00  0.00    +0.000 A 
ATOM     18  C   LIG    1        0.370   4.331   2.393  0.00  0.00    +0.000 A 
ATOM     19  C   LIG    1        1.319   4.687   1.438  0.00  0.00    +0.000 A 
ATOM     20  C   LIG    1        2.158   3.714   0.879  0.00  0.00    +0.004 A 
ENDBRANCH  14  15
BRANCH  14  22
ATOM     21  C   LIG    1        3.141  -1.206  -0.135  0.00  0.00    +0.005 C 
ATOM     22  C   LIG    1        2.317  -0.106   0.527  0.00  0.00    +0.010 C 
ENDBRANCH  14  22
ENDBRANCH   1  14
TORSDOF 4
