REMARK  Name = *****
REMARK                            x       y       z     vdW  Elec       q    Type
REMARK                         _______ _______ _______ _____ _____    ______ ____
ROOT
ATOM      1  C   LIG    1        4.032  -1.739   2.998  0.00  0.00    +0.141 A 
ATOM      2  C   LIG    1        3.962  -3.122   2.741  0.00  0.00    +0.068 A 
ATOM      3  C   LIG    1        5.046  -3.933   3.070  0.00  0.00    +0.041 A 
ATOM      4  C   LIG    1        6.163  -3.403   3.731  0.00  0.00    +0.061 A 
ATOM      5  C   LIG    1        6.203  -2.039   4.032  0.00  0.00    +0.019 A 
ATOM      6  C   LIG    1        5.146  -1.208   3.661  0.00  0.00    +0.048 A 
ENDROOT
BRANCH   2   7
ATOM      7  N   LIG    1        2.923  -3.667   1.962  0.00  0.00    -0.355 N 
ATOM      8  H   LIG    1        2.096  -3.074   1.993  0.00  0.00    +0.142 HD
ATOM      9  H   LIG    1        2.725  -4.641   2.164  0.00  0.00    +0.142 HD
ENDBRANCH   2   7
BRANCH   4  10
ATOM     10  C   LIG    1        7.312  -4.253   4.094  0.00  0.00    +0.339 C 
ATOM     11  O   LIG    1        8.310  -3.840   4.676  0.00  0.00    -0.245 OA
BRANCH  10  12
ATOM     12  O   LIG    1        7.080  -5.523   3.704  0.00  0.00    -0.460 OA
BRANCH  12  13
ATOM     13  C   LIG    1        8.107  -6.474   3.998  0.00  0.00    +0.247 C 
BRANCH  13  14
ATOM     14  C   LIG    1        7.976  -6.947   5.454  0.00  0.00    +0.125 C 
BRANCH  14  15
ATOM     15  N   LIG    1        8.977  -7.931   5.885  0.00  0.00    -0.300 NA
BRANCH  15  16
ATOM     16  C   LIG    1        9.094  -9.106   5.005  0.00  0.00    +0.081 C 
ATOM     17  C   LIG    1        7.843  -9.957   4.792  0.00  0.00    +0.020 C 
ENDBRANCH  15  16
BRANCH  15  18
ATOM     18  C   LIG    1        8.815  -8.306   7.300  0.00  0.00    +0.081 C 
ATOM     19  C   LIG    1        8.986  -7.148   8.287  0.00  0.00    +0.020 C 
ENDBRANCH  15  18
ENDBRANCH  14  15
ENDBRANCH  13  14
ENDBRANCH  12  13
ENDBRANCH  10  12
ENDBRANCH   4  10
BRANCH   1  20
ATOM     20  O   LIG    1        2.942  -1.014   2.579  0.00  0.00    -0.490 OA
BRANCH  20  21
ATOM     21  C   LIG    1        2.970   0.390   2.825  0.00  0.00    +0.229 C 
BRANCH  21  23
ATOM     22  C   LIG    1        1.626   2.491   2.515  0.00  0.00    +0.007 C 
ATOM     23  C   LIG    1        1.678   0.992   2.284  0.00  0.00    +0.037 C 
ENDBRANCH  21  23
ENDBRANCH  20  21
ENDBRANCH   1  20
TORSDOF 11
