REMARK  Name = *****
REMARK                            x       y       z     vdW  Elec       q    Type
REMARK                         _______ _______ _______ _____ _____    ______ ____
ROOT
ATOM      1  O   LIG    1        0.865   0.173  -0.036  0.00  0.00    -0.286 OA
ATOM      2  C   LIG    1        2.091   0.103  -0.033  0.00  0.00    +0.201 C 
ATOM      3  C   LIG    1        2.825  -1.194  -0.030  0.00  0.00    +0.067 A 
ATOM      4  C   LIG    1        4.230  -1.185  -0.032  0.00  0.00    -0.029 A 
ATOM      5  C   LIG    1        4.929  -2.407  -0.029  0.00  0.00    +0.005 A 
ATOM      6  C   LIG    1        4.245  -3.621  -0.025  0.00  0.00    +0.004 A 
ATOM      7  C   LIG    1        2.854  -3.632  -0.024  0.00  0.00    +0.046 A 
ATOM      8  C   LIG    1        5.033   0.087  -0.041  0.00  0.00    +0.072 C 
ATOM      9  C   LIG    1        4.246   1.366  -0.032  0.00  0.00    -0.029 A 
ATOM     10  C   LIG    1        4.941   2.590  -0.029  0.00  0.00    +0.005 A 
ATOM     11  C   LIG    1        4.253   3.804  -0.025  0.00  0.00    +0.004 A 
ATOM     12  C   LIG    1        2.861   3.812  -0.024  0.00  0.00    +0.046 A 
ATOM     13  C   LIG    1        2.164   2.608  -0.026  0.00  0.00    +0.128 A 
ATOM     14  C   LIG    1        2.147  -2.427  -0.026  0.00  0.00    +0.128 A 
ATOM     15  C   LIG    1        2.847   1.379  -0.030  0.00  0.00    +0.067 A 
ENDROOT
BRANCH  13  16
ATOM     16  O   LIG    1        0.797   2.705  -0.024  0.00  0.00    -0.506 OA
ATOM     17  H   LIG    1        0.440   1.785  -0.028  0.00  0.00    +0.292 HD
ENDBRANCH  13  16
BRANCH  14  18
ATOM     18  O   LIG    1        0.782  -2.481  -0.025  0.00  0.00    -0.506 OA
ATOM     19  H   LIG    1        0.479  -3.401  -0.025  0.00  0.00    +0.292 HD
ENDBRANCH  14  18
TORSDOF 2
