REMARK  Name = *****
REMARK                            x       y       z     vdW  Elec       q    Type
REMARK                         _______ _______ _______ _____ _____    ______ ____
ROOT
ATOM      1  C   LIG    1        1.446   0.732   0.655  0.00  0.00    +0.086 C 
ATOM      2  C   LIG    1        2.883   0.575   0.306  0.00  0.00    +0.112 A 
ATOM      3  N   LIG    1        3.531  -0.640   0.112  0.00  0.00    -0.268 N 
ATOM      4  C   LIG    1        4.839  -0.329  -0.189  0.00  0.00    +0.368 A 
ATOM      5  C   LIG    1        4.924   1.039  -0.171  0.00  0.00    +0.217 A 
ATOM      6  N   LIG    1        3.709   1.588   0.128  0.00  0.00    -0.234 NA
ENDROOT
BRANCH   4   7
ATOM      7  N   LIG    1        5.900  -1.239  -0.462  0.00  0.00    +0.100 N 
ATOM      8  O   LIG    1        5.642  -2.451  -0.455  0.00  0.00    -0.575 OA
ATOM      9  O   LIG    1        7.005  -0.747  -0.706  0.00  0.00    +0.043 OA
ENDBRANCH   4   7
BRANCH   3  10
ATOM     10  C   LIG    1        2.888  -1.946   0.159  0.00  0.00    +0.160 C 
BRANCH  10  11
ATOM     11  C   LIG    1        2.963  -2.622   1.538  0.00  0.00    +0.131 C 
ATOM     12  C   LIG    1        2.274  -3.983   1.534  0.00  0.00    +0.039 C 
BRANCH  11  13
ATOM     13  O   LIG    1        4.312  -2.818   1.958  0.00  0.00    -0.390 OA
ATOM     14  H   LIG    1        4.775  -3.354   1.284  0.00  0.00    +0.210 HD
ENDBRANCH  11  13
ENDBRANCH  10  11
ENDBRANCH   3  10
TORSDOF 4
