REMARK  Name = *****
REMARK                            x       y       z     vdW  Elec       q    Type
REMARK                         _______ _______ _______ _____ _____    ______ ____
ROOT
ATOM      1  C   LIG    1        3.359   3.828  -6.743  0.00  0.00    +0.147 C 
ATOM      2  C   LIG    1        4.572   4.714  -6.386  0.00  0.00    +0.068 C 
ATOM      3  C   LIG    1        4.623   6.144  -6.935  0.00  0.00    +0.141 C 
ATOM      4  O   LIG    1        3.674   6.931  -6.214  0.00  0.00    -0.344 OA
ATOM      5  C   LIG    1        3.636   8.306  -6.559  0.00  0.00    +0.172 C 
ATOM      6  C   LIG    1        4.590   8.701  -7.689  0.00  0.00    +0.097 C 
ATOM      7  C   LIG    1        4.446   7.744  -8.878  0.00  0.00    +0.136 C 
ATOM      8  C   LIG    1        3.785   9.171  -5.293  0.00  0.00    +0.096 C 
ATOM      9  C   LIG    1        4.844   8.806  -4.226  0.00  0.00    +0.122 C 
ATOM     10  C   LIG    1        6.142   9.633  -4.226  0.00  0.00    +0.066 C 
ATOM     11  C   LIG    1        7.298   9.037  -4.982  0.00  0.00    +0.154 C 
ATOM     12  C   LIG    1        8.392   8.181  -4.353  0.00  0.00    +0.171 C 
ATOM     13  C   LIG    1        8.178   7.633  -3.010  0.00  0.00    +0.014 C 
ATOM     14  C   LIG    1        7.593   6.456  -2.740  0.00  0.00    +0.090 C 
ATOM     15  C   LIG    1        7.149   6.169  -1.362  0.00  0.00    +0.332 C 
ATOM     16  O   LIG    1        7.451   6.809  -0.377  0.00  0.00    -0.246 OA
ATOM     17  O   LIG    1        6.231   5.169  -1.434  0.00  0.00    -0.458 OA
ATOM     18  C   LIG    1        5.333   5.079  -0.309  0.00  0.00    +0.177 C 
ATOM     19  C   LIG    1        5.982   4.247   0.793  0.00  0.00    +0.052 C 
ATOM     20  C   LIG    1        4.034   4.401  -0.785  0.00  0.00    +0.071 C 
ATOM     21  C   LIG    1        3.378   5.095  -1.952  0.00  0.00    -0.023 C 
ATOM     22  C   LIG    1        2.059   5.315  -2.059  0.00  0.00    -0.004 C 
ATOM     23  C   LIG    1        1.463   5.820  -3.275  0.00  0.00    -0.000 C 
ATOM     24  C   LIG    1        0.189   5.561  -3.602  0.00  0.00    +0.000 C 
ATOM     25  C   LIG    1       -0.450   5.884  -4.856  0.00  0.00    +0.000 C 
ATOM     26  C   LIG    1       -0.045   5.664  -6.118  0.00  0.00    -0.000 C 
ATOM     27  C   LIG    1        1.186   5.133  -6.672  0.00  0.00    -0.002 C 
ATOM     28  O   LIG    1        8.563   9.587  -4.586  0.00  0.00    -0.364 OA
ATOM     29  C   LIG    1        4.415   6.273  -8.450  0.00  0.00    +0.155 C 
ATOM     30  C   LIG    1        2.074   4.302  -6.101  0.00  0.00    +0.004 C 
ENDROOT
BRANCH   7  31
ATOM     31  O   LIG    1        3.245   8.018  -9.609  0.00  0.00    -0.391 OA
ATOM     32  H   LIG    1        2.570   8.301  -8.952  0.00  0.00    +0.210 HD
ENDBRANCH   7  31
BRANCH   5  33
ATOM     33  O   LIG    1        2.321   8.514  -7.091  0.00  0.00    -0.364 OA
ATOM     34  H   LIG    1        1.715   8.216  -6.387  0.00  0.00    +0.213 HD
ENDBRANCH   5  33
BRANCH   9  35
ATOM     35  O   LIG    1        5.127   7.419  -4.159  0.00  0.00    -0.392 OA
ATOM     36  H   LIG    1        4.314   6.942  -4.412  0.00  0.00    +0.210 HD
ENDBRANCH   9  35
BRANCH  29  37
ATOM     37  C   LIG    1        5.503   5.546  -9.204  0.00  0.00    +0.313 C 
ATOM     38  O   LIG    1        6.646   5.405  -8.793  0.00  0.00    -0.251 OA
BRANCH  37  39
ATOM     39  O   LIG    1        5.106   5.075 -10.405  0.00  0.00    -0.480 OA
ATOM     40  H   LIG    1        4.186   5.304 -10.650  0.00  0.00    +0.295 HD
ENDBRANCH  37  39
ENDBRANCH  29  37
BRANCH   1  41
ATOM     41  O   LIG    1        3.567   2.483  -6.263  0.00  0.00    -0.341 OA
BRANCH  41  47
ATOM     42  C   LIG    1        5.557   1.260 -10.353  0.00  0.00    +0.040 C 
ATOM     43  C   LIG    1        5.777   1.218  -8.846  0.00  0.00    +0.148 C 
ATOM     44  C   LIG    1        6.022  -0.218  -8.352  0.00  0.00    +0.162 C 
ATOM     45  C   LIG    1        6.094  -0.247  -6.809  0.00  0.00    +0.116 C 
ATOM     46  C   LIG    1        4.850   0.427  -6.209  0.00  0.00    +0.189 C 
ATOM     47  C   LIG    1        4.722   1.841  -6.814  0.00  0.00    +0.281 C 
ATOM     48  O   LIG    1        4.608   1.777  -8.232  0.00  0.00    -0.343 OA
BRANCH  45  49
ATOM     49  N   LIG    1        6.254  -1.650  -6.355  0.00  0.00    -0.323 NA
ATOM     50  H   LIG    1        6.351  -1.651  -5.338  0.00  0.00    +0.119 HD
ATOM     51  H   LIG    1        5.343  -2.103  -6.506  0.00  0.00    +0.119 HD
ENDBRANCH  45  49
BRANCH  44  52
ATOM     52  O   LIG    1        7.244  -0.740  -8.877  0.00  0.00    -0.388 OA
ATOM     53  H   LIG    1        7.423  -1.532  -8.330  0.00  0.00    +0.210 HD
ENDBRANCH  44  52
BRANCH  46  54
ATOM     54  O   LIG    1        3.691  -0.373  -6.502  0.00  0.00    -0.385 OA
ATOM     55  H   LIG    1        3.001   0.258  -6.790  0.00  0.00    +0.210 HD
ENDBRANCH  46  54
ENDBRANCH  41  47
ENDBRANCH   1  41
TORSDOF 10
