REMARK  Name = *****
REMARK                            x       y       z     vdW  Elec       q    Type
REMARK                         _______ _______ _______ _____ _____    ______ ____
ROOT
ATOM      1  N   LIG    1        1.381  -0.694   0.625  0.00  0.00    -0.109 NA
ATOM      2  C   LIG    1        0.337  -0.059   0.219  0.00  0.00    +0.400 C 
ENDROOT
BRANCH   1   4
ATOM      3  C   LIG    1        3.432   0.598   0.683  0.00  0.00    +0.052 C 
ATOM      4  C   LIG    1        2.720  -0.595   0.040  0.00  0.00    +0.191 C 
BRANCH   4   5
ATOM      5  C   LIG    1        3.456  -1.969   0.239  0.00  0.00    -0.001 C 
ATOM      6  C   LIG    1        3.560  -2.377   1.722  0.00  0.00    +0.014 C 
ATOM      7  C   LIG    1        4.886  -1.921  -0.339  0.00  0.00    +0.014 C 
ATOM      8  C   LIG    1        2.685  -3.073  -0.518  0.00  0.00    +0.014 C 
ENDBRANCH   4   5
ENDBRANCH   1   4
BRANCH   2   9
ATOM      9  N   LIG    1       -0.885  -0.222   0.846  0.00  0.00    -0.243 N 
ATOM     10  H   LIG    1       -1.714   0.170   0.420  0.00  0.00    +0.265 HD
BRANCH   9  11
ATOM     11  C   LIG    1       -1.151  -0.859   2.082  0.00  0.00    +0.103 A 
ATOM     12  C   LIG    1       -0.183  -1.051   3.067  0.00  0.00    +0.062 A 
ATOM     13  C   LIG    1       -0.518  -1.734   4.227  0.00  0.00    +0.114 A 
ATOM     14  N   LIG    1       -1.743  -2.238   4.474  0.00  0.00    -0.263 NA
ATOM     15  C   LIG    1       -2.667  -2.059   3.510  0.00  0.00    +0.114 A 
ATOM     16  C   LIG    1       -2.422  -1.393   2.316  0.00  0.00    +0.062 A 
ENDBRANCH   9  11
ENDBRANCH   2   9
BRANCH   2  17
ATOM     17  N   LIG    1        0.343   0.836  -0.825  0.00  0.00    -0.177 N 
ATOM     18  H   LIG    1        1.212   0.892  -1.331  0.00  0.00    +0.278 HD
BRANCH  17  19
ATOM     19  C   LIG    1       -0.825   1.083  -1.625  0.00  0.00    +0.255 C 
ATOM     20  N   LIG    1       -1.764   1.298  -2.263  0.00  0.00    -0.154 NA
ENDBRANCH  17  19
ENDBRANCH   2  17
TORSDOF 6
