REMARK  Name = *****
REMARK                            x       y       z     vdW  Elec       q    Type
REMARK                         _______ _______ _______ _____ _____    ______ ____
ROOT
ATOM      1  C   LIG    1       -1.923  -1.582  -0.679  0.00  0.00    +0.121 A 
ATOM      2  C   LIG    1       -2.534  -0.631   0.127  0.00  0.00    +0.047 A 
ATOM      3  C   LIG    1       -3.941  -0.510   0.148  0.00  0.00    +0.027 A 
ATOM      4  C   LIG    1       -4.788  -1.321  -0.629  0.00  0.00    +0.030 A 
ATOM      5  C   LIG    1       -4.128  -2.229  -1.473  0.00  0.00    +0.027 A 
ATOM      6  C   LIG    1       -2.731  -2.373  -1.486  0.00  0.00    +0.047 A 
ENDROOT
BRANCH   4   7
ATOM      7  N   LIG    1       -6.171  -1.222  -0.580  0.00  0.00    -0.330 N 
ATOM      8  C   LIG    1       -7.055  -2.246  -1.122  0.00  0.00    +0.108 C 
ATOM      9  C   LIG    1       -7.923  -1.601  -2.191  0.00  0.00    +0.063 C 
ATOM     10  C   LIG    1       -8.563  -0.269  -1.744  0.00  0.00    +0.176 C 
ATOM     11  C   LIG    1       -8.321  -0.003  -0.253  0.00  0.00    +0.063 C 
ATOM     12  C   LIG    1       -6.863  -0.186   0.198  0.00  0.00    +0.108 C 
BRANCH  10  13
ATOM     13  O   LIG    1       -8.102   0.861  -2.507  0.00  0.00    -0.489 OA
BRANCH  13  14
ATOM     14  C   LIG    1       -8.623   1.020  -3.767  0.00  0.00    +0.121 A 
ATOM     15  C   LIG    1       -9.219   0.020  -4.538  0.00  0.00    +0.049 A 
ATOM     16  C   LIG    1       -9.628   0.274  -5.850  0.00  0.00    +0.049 A 
ATOM     17  C   LIG    1       -9.462   1.537  -6.411  0.00  0.00    +0.130 A 
ATOM     18  C   LIG    1       -8.908   2.555  -5.632  0.00  0.00    +0.049 A 
ATOM     19  C   LIG    1       -8.482   2.293  -4.321  0.00  0.00    +0.049 A 
BRANCH  17  20
ATOM     20  O   LIG    1       -9.870   1.631  -7.710  0.00  0.00    -0.406 OA
BRANCH  20  21
ATOM     21  C   LIG    1       -9.713   2.892  -8.335  0.00  0.00    +0.575 C 
ATOM     22  F   LIG    1      -10.442   3.836  -7.700  0.00  0.00    -0.133 F 
ATOM     23  F   LIG    1      -10.154   2.807  -9.611  0.00  0.00    -0.133 F 
ATOM     24  F   LIG    1       -8.416   3.264  -8.364  0.00  0.00    -0.133 F 
ENDBRANCH  20  21
ENDBRANCH  17  20
ENDBRANCH  13  14
ENDBRANCH  10  13
ENDBRANCH   4   7
BRANCH   1  25
ATOM     25  O   LIG    1       -0.587  -1.857  -0.764  0.00  0.00    -0.488 OA
BRANCH  25  26
ATOM     26  C   LIG    1        0.318  -0.936  -0.154  0.00  0.00    +0.278 C 
BRANCH  26  28
ATOM     27  C   LIG    1        1.960  -2.731   0.574  0.00  0.00    +0.061 C 
ATOM     28  C   LIG    1        1.756  -1.470  -0.281  0.00  0.00    +0.162 C 
ATOM     29  O   LIG    1        2.696  -0.453   0.223  0.00  0.00    -0.452 OA
ATOM     30  C   LIG    1        3.677  -0.401  -0.658  0.00  0.00    +0.305 A 
ATOM     31  N   LIG    1        3.456  -1.110  -1.793  0.00  0.00    -0.290 N 
ATOM     32  C   LIG    1        4.526  -1.047  -2.590  0.00  0.00    +0.197 A 
ATOM     33  C   LIG    1        5.401  -0.267  -1.843  0.00  0.00    +0.388 A 
ATOM     34  N   LIG    1        4.864   0.139  -0.621  0.00  0.00    -0.128 NA
ATOM     35  C   LIG    1        2.154  -1.739  -1.760  0.00  0.00    +0.177 C 
BRANCH  33  36
ATOM     36  N   LIG    1        6.746   0.106  -2.189  0.00  0.00    +0.102 N 
ATOM     37  O   LIG    1        7.646  -0.171  -1.404  0.00  0.00    -0.575 OA
ATOM     38  O   LIG    1        6.880   0.649  -3.324  0.00  0.00    +0.043 OA
ENDBRANCH  33  36
ENDBRANCH  26  28
ENDBRANCH  25  26
ENDBRANCH   1  25
TORSDOF 9
