REMARK  Name = *****
REMARK                            x       y       z     vdW  Elec       q    Type
REMARK                         _______ _______ _______ _____ _____    ______ ____
ROOT
ATOM      1  C   LIG    1        5.060   2.097  -2.913  0.00  0.00    +0.117 A 
ATOM      2  C   LIG    1        5.037   0.918  -2.180  0.00  0.00    +0.049 A 
ATOM      3  C   LIG    1        6.215   0.436  -1.602  0.00  0.00    +0.049 A 
ATOM      4  C   LIG    1        7.415   1.137  -1.756  0.00  0.00    +0.121 A 
ATOM      5  C   LIG    1        7.420   2.324  -2.494  0.00  0.00    +0.049 A 
ATOM      6  C   LIG    1        6.242   2.809  -3.075  0.00  0.00    +0.049 A 
ENDROOT
BRANCH   1   7
ATOM      7  O   LIG    1        3.887   2.520  -3.461  0.00  0.00    -0.507 OA
ATOM      8  H   LIG    1        4.059   3.327  -3.975  0.00  0.00    +0.292 HD
ENDBRANCH   1   7
BRANCH   4   9
ATOM      9  O   LIG    1        8.629   0.763  -1.239  0.00  0.00    -0.487 OA
BRANCH   9  10
ATOM     10  C   LIG    1        8.640  -0.456  -0.495  0.00  0.00    +0.264 C 
BRANCH  10  11
ATOM     11  C   LIG    1       10.031  -0.762   0.004  0.00  0.00    -0.010 A 
ATOM     12  C   LIG    1       10.682   0.108   0.889  0.00  0.00    +0.007 A 
ATOM     13  C   LIG    1       11.942  -0.214   1.399  0.00  0.00    +0.000 A 
ATOM     14  C   LIG    1       12.563  -1.405   1.028  0.00  0.00    +0.000 A 
ATOM     15  C   LIG    1       11.928  -2.275   0.144  0.00  0.00    +0.000 A 
ATOM     16  C   LIG    1       10.669  -1.956  -0.366  0.00  0.00    +0.007 A 
ENDBRANCH  10  11
ENDBRANCH   9  10
ENDBRANCH   4   9
TORSDOF 4
