REMARK  Name = *****
REMARK                            x       y       z     vdW  Elec       q    Type
REMARK                         _______ _______ _______ _____ _____    ______ ____
ROOT
ATOM      1  C   LIG    1        4.679  -1.617   1.859  0.00  0.00    +0.131 C 
ATOM      2  C   LIG    1        4.776  -1.065   3.278  0.00  0.00    +0.234 C 
ATOM      3  O   LIG    1        5.824  -0.676   3.790  0.00  0.00    -0.274 OA
ATOM      4  N   LIG    1        3.600  -0.908   3.943  0.00  0.00    -0.266 N 
ATOM      5  H   LIG    1        3.627  -0.445   4.844  0.00  0.00    +0.157 HD
ATOM      6  C   LIG    1        2.418  -1.325   3.445  0.00  0.00    +0.150 C 
ATOM      7  N   LIG    1        2.250  -1.968   2.358  0.00  0.00    -0.158 NA
ATOM      8  C   LIG    1        3.350  -2.332   1.620  0.00  0.00    +0.254 C 
ATOM      9  O   LIG    1        3.245  -3.172   0.739  0.00  0.00    -0.273 OA
ENDROOT
BRANCH   1  10
ATOM     10  C   LIG    1        4.821  -0.404   0.834  0.00  0.00    +0.010 C 
ATOM     11  C   LIG    1        3.764   0.697   1.058  0.00  0.00    +0.009 C 
BRANCH  10  12
ATOM     12  C   LIG    1        4.819  -0.842  -0.661  0.00  0.00    +0.004 C 
BRANCH  12  13
ATOM     13  C   LIG    1        5.146   0.271  -1.671  0.00  0.00    -0.003 C 
ATOM     14  C   LIG    1        5.115  -0.246  -3.107  0.00  0.00    +0.004 C 
ENDBRANCH  12  13
ENDBRANCH  10  12
ENDBRANCH   1  10
BRANCH   6  15
ATOM     15  S   LIG    1        1.064  -0.891   4.433  0.00  0.00    -0.110 S 
ATOM     16  H   LIG    1        0.139  -1.375   3.591  0.00  0.00    +0.110 HD
ENDBRANCH   6  15
BRANCH   1  17
ATOM     17  C   LIG    1        5.844  -2.648   1.693  0.00  0.00    +0.052 C 
BRANCH  17  19
ATOM     18  C   LIG    1        6.806  -4.139   3.503  0.00  0.00    +0.004 C 
ATOM     19  C   LIG    1        5.820  -3.822   2.654  0.00  0.00    -0.033 C 
ENDBRANCH  17  19
ENDBRANCH   1  17
TORSDOF 6
