REMARK  Name = *****
REMARK                            x       y       z     vdW  Elec       q    Type
REMARK                         _______ _______ _______ _____ _____    ______ ____
ROOT
ATOM      1  C   LIG    1        0.933  -0.632  -0.091  0.00  0.00    +0.048 C 
ATOM      2  C   LIG    1        2.392  -0.299  -0.134  0.00  0.00    -0.004 A 
ATOM      3  C   LIG    1        2.894   1.010  -0.182  0.00  0.00    +0.143 A 
ATOM      4  C   LIG    1        4.283   1.260  -0.349  0.00  0.00    +0.028 A 
ATOM      5  C   LIG    1        5.169   0.164  -0.542  0.00  0.00    +0.028 A 
ATOM      6  C   LIG    1        6.521   0.428  -0.842  0.00  0.00    +0.012 A 
ATOM      7  C   LIG    1        7.014   1.733  -0.902  0.00  0.00    +0.001 A 
ATOM      8  C   LIG    1        6.169   2.802  -0.646  0.00  0.00    +0.001 A 
ATOM      9  C   LIG    1        4.645  -1.143  -0.462  0.00  0.00    +0.140 A 
ATOM     10  C   LIG    1        4.817   2.569  -0.380  0.00  0.00    +0.012 A 
ATOM     11  C   LIG    1        3.295  -1.361  -0.181  0.00  0.00    +0.053 A 
ENDROOT
BRANCH   3  12
ATOM     12  O   LIG    1        2.042   2.083  -0.271  0.00  0.00    -0.403 OA
BRANCH  12  13
ATOM     13  P   LIG    1        1.128   2.649   0.914  0.00  0.00    +0.528 P 
ATOM     14  O   LIG    1        0.846   4.111   0.867  0.00  0.00    -0.216 OA
BRANCH  13  15
ATOM     15  O   LIG    1        1.773   2.208   2.307  0.00  0.00    -0.293 OA
ATOM     16  H   LIG    1        1.454   2.788   3.021  0.00  0.00    +0.223 HD
ENDBRANCH  13  15
BRANCH  13  17
ATOM     17  O   LIG    1       -0.236   1.818   0.886  0.00  0.00    -0.293 OA
ATOM     18  H   LIG    1       -0.899   2.261   0.325  0.00  0.00    +0.223 HD
ENDBRANCH  13  17
ENDBRANCH  12  13
ENDBRANCH   3  12
BRANCH   9  19
ATOM     19  O   LIG    1        5.472  -2.203  -0.751  0.00  0.00    -0.403 OA
BRANCH  19  20
ATOM     20  P   LIG    1        4.923  -3.550  -1.428  0.00  0.00    +0.528 P 
ATOM     21  O   LIG    1        4.379  -4.599  -0.518  0.00  0.00    -0.216 OA
BRANCH  20  22
ATOM     22  O   LIG    1        6.127  -4.113  -2.314  0.00  0.00    -0.293 OA
ATOM     23  H   LIG    1        6.374  -5.008  -2.021  0.00  0.00    +0.223 HD
ENDBRANCH  20  22
BRANCH  20  24
ATOM     24  O   LIG    1        3.872  -3.136  -2.564  0.00  0.00    -0.293 OA
ATOM     25  H   LIG    1        3.301  -3.884  -2.810  0.00  0.00    +0.223 HD
ENDBRANCH  20  24
ENDBRANCH  19  20
ENDBRANCH   9  19
TORSDOF 8
