REMARK  Name = *****
REMARK                            x       y       z     vdW  Elec       q    Type
REMARK                         _______ _______ _______ _____ _____    ______ ____
ROOT
ATOM      1  C   LIG    1        9.654   0.330   3.746  0.00  0.00    +0.002 C 
ENDROOT
BRANCH   1   2
ATOM      2  C   LIG    1       11.161   0.389   3.462  0.00  0.00    +0.011 C 
BRANCH   2   3
ATOM      3  C   LIG    1       11.981  -0.568   4.326  0.00  0.00    +0.120 C 
BRANCH   3   5
ATOM      4  O   LIG    1       11.747   0.861   6.265  0.00  0.00    -0.251 OA
ATOM      5  C   LIG    1       11.901  -0.258   5.797  0.00  0.00    +0.305 C 
BRANCH   5   6
ATOM      6  O   LIG    1       12.067  -1.353   6.583  0.00  0.00    -0.481 OA
ATOM      7  H   LIG    1       12.201  -2.178   6.088  0.00  0.00    +0.295 HD
ENDBRANCH   5   6
ENDBRANCH   3   5
ENDBRANCH   2   3
ENDBRANCH   1   2
BRANCH   1   8
ATOM      8  C   LIG    1        8.885   1.286   2.821  0.00  0.00    +0.015 C 
BRANCH   8   9
ATOM      9  C   LIG    1        7.364   1.294   3.055  0.00  0.00    +0.058 C 
ATOM     10  S   LIG    1        6.579  -0.314   2.713  0.00  0.00    -0.090 S 
ATOM     11  S   LIG    1        6.228  -0.008   0.719  0.00  0.00    -0.093 S 
ATOM     12  C   LIG    1        6.592   1.767   0.687  0.00  0.00    +0.082 C 
ATOM     13  C   LIG    1        6.630   2.275   2.127  0.00  0.00    +0.026 C 
ENDBRANCH   8   9
ENDBRANCH   1   8
TORSDOF 6
