REMARK  Name = *****
REMARK                            x       y       z     vdW  Elec       q    Type
REMARK                         _______ _______ _______ _____ _____    ______ ____
ROOT
ATOM      1  C   LIG    1        4.422  -1.326   1.551  0.00  0.00    +0.095 C 
ENDROOT
BRANCH   1   2
ATOM      2  C   LIG    1        5.258  -1.719   0.267  0.00  0.00    +0.033 C 
ATOM      3  C   LIG    1        4.505  -1.836  -1.113  0.00  0.00    +0.018 C 
ATOM      4  C   LIG    1        5.704  -1.945  -2.074  0.00  0.00    +0.015 C 
ATOM      5  C   LIG    1        6.281  -0.590  -1.659  0.00  0.00    +0.012 C 
ATOM      6  C   LIG    1        5.052   0.252  -1.903  0.00  0.00    -0.027 C 
ATOM      7  C   LIG    1        3.997  -0.497  -1.601  0.00  0.00    -0.027 C 
ATOM      8  C   LIG    1        6.452  -0.779  -0.130  0.00  0.00    +0.015 C 
ENDBRANCH   1   2
BRANCH   1   9
ATOM      9  C   LIG    1        5.249  -1.390   2.869  0.00  0.00    -0.016 A 
ATOM     10  C   LIG    1        5.836  -2.582   3.342  0.00  0.00    +0.006 A 
ATOM     11  C   LIG    1        6.526  -2.627   4.570  0.00  0.00    +0.000 A 
ATOM     12  C   LIG    1        6.657  -1.484   5.354  0.00  0.00    +0.000 A 
ATOM     13  C   LIG    1        6.089  -0.297   4.915  0.00  0.00    +0.000 A 
ATOM     14  C   LIG    1        5.390  -0.256   3.699  0.00  0.00    +0.006 A 
ENDBRANCH   1   9
BRANCH   1  15
ATOM     15  O   LIG    1        3.914   0.002   1.385  0.00  0.00    -0.384 OA
ATOM     16  H   LIG    1        4.677   0.592   1.274  0.00  0.00    +0.211 HD
ENDBRANCH   1  15
BRANCH   1  17
ATOM     17  C   LIG    1        3.179  -2.268   1.629  0.00  0.00    +0.055 C 
BRANCH  17  18
ATOM     18  C   LIG    1        2.149  -1.960   2.739  0.00  0.00    +0.087 C 
BRANCH  18  19
ATOM     19  N   LIG    1        0.957  -2.843   2.705  0.00  0.00    -0.302 NA
ATOM     20  C   LIG    1        1.234  -4.281   2.813  0.00  0.00    +0.084 C 
ATOM     21  C   LIG    1        1.624  -4.742   4.218  0.00  0.00    +0.015 C 
ATOM     22  C   LIG    1        0.547  -4.361   5.225  0.00  0.00    +0.002 C 
ATOM     23  C   LIG    1        0.251  -2.868   5.139  0.00  0.00    +0.015 C 
ATOM     24  C   LIG    1       -0.057  -2.438   3.698  0.00  0.00    +0.084 C 
ENDBRANCH  18  19
ENDBRANCH  17  18
ENDBRANCH   1  17
TORSDOF 6
