REMARK  Name = *****
REMARK                            x       y       z     vdW  Elec       q    Type
REMARK                         _______ _______ _______ _____ _____    ______ ____
ROOT
ATOM      1  C   LIG    1       -4.857  -1.482   0.345  0.00  0.00    +0.176 C 
ATOM      2  C   LIG    1       -5.716  -2.612   1.109  0.00  0.00    +0.018 C 
ATOM      3  C   LIG    1       -7.145  -2.118   1.469  0.00  0.00    +0.016 C 
ATOM      4  C   LIG    1       -4.957  -2.850   2.450  0.00  0.00    +0.006 C 
ATOM      5  C   LIG    1       -5.187  -4.208   3.145  0.00  0.00    +0.019 C 
ATOM      6  C   LIG    1       -5.475  -5.448   2.272  0.00  0.00    +0.006 C 
ATOM      7  C   LIG    1       -6.349  -5.107   1.059  0.00  0.00    +0.006 C 
ATOM      8  C   LIG    1       -4.282  -6.452   2.008  0.00  0.00    -0.003 C 
ATOM      9  C   LIG    1       -4.932  -7.876   1.998  0.00  0.00    +0.016 C 
ATOM     10  C   LIG    1       -3.199  -6.407   3.091  0.00  0.00    -0.038 C 
ATOM     11  C   LIG    1       -2.034  -7.064   2.948  0.00  0.00    +0.050 C 
ATOM     12  C   LIG    1       -1.701  -7.726   1.665  0.00  0.00    +0.156 C 
ATOM     13  O   LIG    1       -0.795  -8.556   1.633  0.00  0.00    -0.293 OA
ATOM     14  C   LIG    1       -2.460  -7.321   0.417  0.00  0.00    +0.080 C 
ATOM     15  C   LIG    1       -3.362  -5.539   4.236  0.00  0.00    +0.000 C 
ATOM     16  C   LIG    1       -3.532  -6.252   0.669  0.00  0.00    +0.019 C 
ATOM     17  C   LIG    1       -4.219  -4.512   4.251  0.00  0.00    -0.023 C 
ATOM     18  C   LIG    1       -3.537  -2.387   2.157  0.00  0.00    +0.009 C 
ATOM     19  C   LIG    1       -5.844  -3.904   0.278  0.00  0.00    +0.011 C 
ATOM     20  C   LIG    1       -3.803  -1.081   1.397  0.00  0.00    +0.057 C 
ENDROOT
BRANCH   1  21
ATOM     21  C   LIG    1       -4.205  -1.943  -1.004  0.00  0.00    +0.174 C 
ATOM     22  O   LIG    1       -4.910  -2.218  -1.983  0.00  0.00    -0.293 OA
ATOM     23  C   LIG    1       -2.697  -1.965  -1.156  0.00  0.00    +0.090 C 
ENDBRANCH   1  21
BRANCH   1  24
ATOM     24  O   LIG    1       -5.792  -0.420   0.054  0.00  0.00    -0.450 OA
BRANCH  24  26
ATOM     25  C   LIG    1       -6.645   1.382  -1.139  0.00  0.00    +0.136 C 
ATOM     26  C   LIG    1       -5.414   0.655  -0.670  0.00  0.00    +0.305 C 
ATOM     27  O   LIG    1       -4.265   0.975  -0.908  0.00  0.00    -0.251 OA
ENDBRANCH  24  26
ENDBRANCH   1  24
TORSDOF 3
