REMARK  Name = *****
REMARK                            x       y       z     vdW  Elec       q    Type
REMARK                         _______ _______ _______ _____ _____    ______ ____
ROOT
ATOM      1  C   LIG    1        2.858  -0.209  -0.332  0.00  0.00    +0.411 C 
ATOM      2  F   LIG    1        2.842  -1.194  -1.288  0.00  0.00    -0.189 F 
ATOM      3  F   LIG    1        3.369  -0.809   0.784  0.00  0.00    -0.189 F 
ENDROOT
BRANCH   1   5
ATOM      4  F   LIG    1        0.647  -0.778   0.302  0.00  0.00    -0.165 F 
ATOM      5  C   LIG    1        1.440   0.254  -0.069  0.00  0.00    +0.461 C 
ATOM      6  F   LIG    1        1.384   1.156   0.944  0.00  0.00    -0.165 F 
ATOM      7  F   LIG    1        0.882   0.826  -1.148  0.00  0.00    -0.165 F 
ENDBRANCH   1   5
BRANCH   1   8
ATOM      8  C   LIG    1        3.780   0.892  -0.784  0.00  0.00    +0.411 C 
ATOM      9  F   LIG    1        3.413   1.370  -2.007  0.00  0.00    -0.189 F 
ATOM     10  F   LIG    1        5.029   0.353  -0.970  0.00  0.00    -0.189 F 
BRANCH   8  11
ATOM     11  C   LIG    1        3.869   2.030   0.217  0.00  0.00    +0.461 C 
ATOM     12  F   LIG    1        2.783   2.836   0.144  0.00  0.00    -0.165 F 
ATOM     13  F   LIG    1        4.944   2.817  -0.012  0.00  0.00    -0.165 F 
ATOM     14  F   LIG    1        3.958   1.588   1.491  0.00  0.00    -0.165 F 
ENDBRANCH   8  11
ENDBRANCH   1   8
TORSDOF 3
