REMARK  Name = *****
REMARK                            x       y       z     vdW  Elec       q    Type
REMARK                         _______ _______ _______ _____ _____    ______ ____
ROOT
ATOM      1  N   LIG    1        7.400   0.363   4.329  0.00  0.00    -0.311 N 
ATOM      2  H   LIG    1        6.565   0.274   3.773  0.00  0.00    +0.149 HD
ATOM      3  C   LIG    1        8.550   0.772   3.715  0.00  0.00    +0.213 C 
ATOM      4  O   LIG    1        9.657   0.707   4.264  0.00  0.00    -0.276 OA
ENDROOT
BRANCH   1   5
ATOM      5  C   LIG    1        7.421  -0.301   5.637  0.00  0.00    +0.139 C 
BRANCH   5  10
ATOM      6  C   LIG    1        5.076   0.197   8.613  0.00  0.00    +0.162 A 
ATOM      7  C   LIG    1        3.856   0.386   7.958  0.00  0.00    +0.159 A 
ATOM      8  C   LIG    1        3.754   0.274   6.580  0.00  0.00    +0.049 A 
ATOM      9  C   LIG    1        4.897   0.033   5.823  0.00  0.00    +0.009 A 
ATOM     10  C   LIG    1        6.151  -0.104   6.437  0.00  0.00    -0.027 A 
ATOM     11  C   LIG    1        6.215  -0.076   7.845  0.00  0.00    +0.054 A 
BRANCH   6  13
ATOM     12  C   LIG    1        6.291   0.660  10.588  0.00  0.00    +0.277 C 
ATOM     13  O   LIG    1        5.055   0.289   9.982  0.00  0.00    -0.491 OA
ENDBRANCH   6  13
BRANCH   7  14
ATOM     14  O   LIG    1        2.726   0.764   8.628  0.00  0.00    -0.503 OA
ATOM     15  H   LIG    1        3.040   1.200   9.441  0.00  0.00    +0.292 HD
ENDBRANCH   7  14
ENDBRANCH   5  10
ENDBRANCH   1   5
BRANCH   3  16
ATOM     16  C   LIG    1        8.364   1.382   2.331  0.00  0.00    +0.096 C 
BRANCH  16  17
ATOM     17  C   LIG    1        9.630   1.249   1.458  0.00  0.00    +0.010 C 
BRANCH  17  18
ATOM     18  C   LIG    1        9.471   1.828   0.036  0.00  0.00    +0.004 C 
BRANCH  18  19
ATOM     19  C   LIG    1       10.734   1.665  -0.843  0.00  0.00    +0.027 C 
BRANCH  19  20
ATOM     20  C   LIG    1       10.576   2.241  -2.235  0.00  0.00    -0.031 C 
ATOM     21  C   LIG    1       11.307   3.193  -2.850  0.00  0.00    -0.028 C 
BRANCH  21  22
ATOM     22  C   LIG    1       12.435   4.040  -2.295  0.00  0.00    +0.005 C 
ATOM     23  C   LIG    1       12.442   5.423  -2.964  0.00  0.00    +0.011 C 
ATOM     24  C   LIG    1       13.817   3.413  -2.496  0.00  0.00    +0.011 C 
ENDBRANCH  21  22
ENDBRANCH  19  20
ENDBRANCH  18  19
ENDBRANCH  17  18
ENDBRANCH  16  17
ENDBRANCH   3  16
TORSDOF 10
