REMARK  Name = *****
REMARK                            x       y       z     vdW  Elec       q    Type
REMARK                         _______ _______ _______ _____ _____    ______ ____
ROOT
ATOM      1  C   LIG    1        4.232  -1.216  -0.160  0.00  0.00    +0.036 C 
ATOM      2  C   LIG    1        4.735  -0.123  -1.138  0.00  0.00    +0.018 C 
ENDROOT
BRANCH   1   3
ATOM      3  C   LIG    1        2.687  -1.367  -0.382  0.00  0.00    +0.013 C 
BRANCH   3   5
ATOM      4  C   LIG    1        0.474  -2.472   0.181  0.00  0.00    +0.004 C 
ATOM      5  C   LIG    1        1.968  -2.414   0.484  0.00  0.00    -0.003 C 
ENDBRANCH   3   5
ENDBRANCH   1   3
BRANCH   1   6
ATOM      6  C   LIG    1        4.942  -2.557  -0.442  0.00  0.00    +0.243 C 
BRANCH   6   7
ATOM      7  O   LIG    1        6.376  -2.436  -0.355  0.00  0.00    -0.450 OA
BRANCH   7   8
ATOM      8  C   LIG    1        6.994  -3.286   0.502  0.00  0.00    +0.401 C 
ATOM      9  N   LIG    1        8.344  -3.209   0.337  0.00  0.00    -0.279 N 
ATOM     10  H   LIG    1        8.671  -2.541  -0.348  0.00  0.00    +0.152 HD
ATOM     11  O   LIG    1        6.430  -4.043   1.281  0.00  0.00    -0.227 OA
BRANCH   9  12
ATOM     12  C   LIG    1        9.259  -4.157   0.949  0.00  0.00    +0.070 C 
ATOM     13  C   LIG    1        9.597  -3.780   2.392  0.00  0.00    +0.027 C 
ATOM     14  C   LIG    1       10.532  -4.276   0.121  0.00  0.00    +0.027 C 
ENDBRANCH   9  12
ENDBRANCH   7   8
ENDBRANCH   6   7
ENDBRANCH   1   6
BRANCH   1  15
ATOM     15  C   LIG    1        4.579  -0.748   1.277  0.00  0.00    +0.243 C 
BRANCH  15  16
ATOM     16  O   LIG    1        3.868   0.476   1.518  0.00  0.00    -0.450 OA
BRANCH  16  17
ATOM     17  C   LIG    1        3.067   0.495   2.598  0.00  0.00    +0.398 C 
ATOM     18  O   LIG    1        3.111  -0.251   3.561  0.00  0.00    -0.227 OA
ATOM     19  N   LIG    1        2.087   1.400   2.391  0.00  0.00    -0.295 N 
ATOM     20  H   LIG    1        1.260   1.288   2.959  0.00  0.00    +0.148 HD
ATOM     21  H   LIG    1        1.994   1.750   1.450  0.00  0.00    +0.148 HD
ENDBRANCH  16  17
ENDBRANCH  15  16
ENDBRANCH   1  15
TORSDOF 9
