REMARK  Name = *****
REMARK                            x       y       z     vdW  Elec       q    Type
REMARK                         _______ _______ _______ _____ _____    ______ ____
ROOT
ATOM      1  O   LIG    1        1.076   1.041   0.950  0.00  0.00    -0.273 OA
ATOM      2  C   LIG    1        2.218   0.672   0.672  0.00  0.00    +0.239 C 
ATOM      3  N   LIG    1        3.253   1.565   0.764  0.00  0.00    -0.283 N 
ATOM      4  H   LIG    1        2.940   2.512   0.938  0.00  0.00    +0.155 HD
ATOM      5  C   LIG    1        4.593   1.338   0.416  0.00  0.00    +0.043 A 
ATOM      6  C   LIG    1        5.231   0.088   0.480  0.00  0.00    +0.024 A 
ATOM      7  C   LIG    1        6.534  -0.050  -0.030  0.00  0.00    +0.027 A 
ATOM      8  C   LIG    1        7.216   1.061  -0.520  0.00  0.00    +0.019 A 
ATOM      9  C   LIG    1        6.619   2.317  -0.506  0.00  0.00    +0.017 A 
ATOM     10 BR   LIG    1        8.977   0.867  -1.179  0.00  0.00    -0.050 Br
ATOM     11  C   LIG    1        4.603  -1.082   1.173  0.00  0.00    +0.093 C 
ATOM     12  N   LIG    1        3.375  -1.455   1.005  0.00  0.00    -0.272 NA
ATOM     13  C   LIG    1        5.313   2.455  -0.034  0.00  0.00    +0.025 A 
ATOM     14  C   LIG    1        2.516  -0.703   0.099  0.00  0.00    +0.238 C 
ENDROOT
BRANCH  11  15
ATOM     15  C   LIG    1        5.434  -1.862   2.162  0.00  0.00    +0.089 A 
ATOM     16  N   LIG    1        6.576  -1.278   2.603  0.00  0.00    -0.253 NA
ATOM     17  C   LIG    1        7.305  -1.965   3.509  0.00  0.00    +0.111 A 
ATOM     18  C   LIG    1        6.951  -3.211   4.000  0.00  0.00    +0.020 A 
ATOM     19  C   LIG    1        5.774  -3.790   3.540  0.00  0.00    +0.004 A 
ATOM     20  C   LIG    1        4.998  -3.106   2.608  0.00  0.00    +0.030 A 
ENDBRANCH  11  15
TORSDOF 1
