REMARK  Name = *****
REMARK                            x       y       z     vdW  Elec       q    Type
REMARK                         _______ _______ _______ _____ _____    ______ ____
ROOT
ATOM      1  C   LIG    1        9.743   0.449  -3.882  0.00  0.00    +0.149 A 
ATOM      2  C   LIG    1        9.552   1.493  -2.960  0.00  0.00    +0.147 A 
ATOM      3  N   LIG    1       10.310   2.595  -2.633  0.00  0.00    -0.231 NA
ATOM      4  C   LIG    1        9.607   3.228  -1.715  0.00  0.00    +0.203 A 
ATOM      5  N   LIG    1        8.447   2.566  -1.407  0.00  0.00    -0.288 N 
ATOM      6  C   LIG    1        8.390   1.454  -2.204  0.00  0.00    +0.169 A 
ATOM      7  N   LIG    1        7.427   0.521  -2.250  0.00  0.00    -0.198 NA
ATOM      8  C   LIG    1        7.738  -0.432  -3.152  0.00  0.00    +0.226 A 
ATOM      9 CL   LIG    1        6.605  -1.709  -3.284  0.00  0.00    -0.041 Cl
ATOM     10  N   LIG    1        8.818  -0.532  -3.952  0.00  0.00    -0.201 NA
ENDROOT
BRANCH   5  11
ATOM     11  C1* LIG    1        7.408   2.988  -0.480  0.00  0.00    +0.225 C 
ATOM     12  O4* LIG    1        7.791   4.258   0.101  0.00  0.00    -0.348 OA
ATOM     13  C4* LIG    1        7.924   4.077   1.520  0.00  0.00    +0.175 C 
ATOM     14  C3* LIG    1        8.060   2.578   1.755  0.00  0.00    +0.150 C 
ATOM     15  C2* LIG    1        7.162   2.027   0.676  0.00  0.00    +0.088 C 
BRANCH  14  16
ATOM     16  O3* LIG    1        7.633   2.177   3.043  0.00  0.00    -0.389 OA
ATOM     17  H3* LIG    1        8.121   2.737   3.683  0.00  0.00    +0.210 HD
ENDBRANCH  14  16
BRANCH  13  18
ATOM     18  C5* LIG    1        9.114   4.862   2.064  0.00  0.00    +0.190 C 
BRANCH  18  19
ATOM     19  O5* LIG    1        9.251   4.641   3.464  0.00  0.00    -0.392 OA
ATOM     20  H5* LIG    1        9.935   5.259   3.780  0.00  0.00    +0.209 HD
ENDBRANCH  18  19
ENDBRANCH  13  18
ENDBRANCH   5  11
BRANCH   1  21
ATOM     21  N   LIG    1       10.848   0.373  -4.719  0.00  0.00    -0.341 N 
ATOM     22  H   LIG    1       11.637   0.930  -4.412  0.00  0.00    +0.144 HD
ATOM     23  H   LIG    1       11.029  -0.565  -5.051  0.00  0.00    +0.144 HD
ENDBRANCH   1  21
TORSDOF 5
