REMARK  Name = *****
REMARK                            x       y       z     vdW  Elec       q    Type
REMARK                         _______ _______ _______ _____ _____    ______ ____
ROOT
ATOM      1  CA  LIG    1        4.228   1.139   0.022  0.00  0.00    +0.195 C 
ATOM      2  N   LIG    1        3.314   1.710   1.032  0.00  0.00    -0.276 N 
ATOM      3  C   LIG    1        2.945   0.979   2.144  0.00  0.00    +0.237 C 
ATOM      4  O   LIG    1        3.443  -0.142   2.304  0.00  0.00    -0.274 OA
ATOM      5  C   LIG    1        2.919   3.077   0.760  0.00  0.00    +0.178 C 
ATOM      6  SG  LIG    1        3.474   3.517  -0.890  0.00  0.00    -0.139 S 
ATOM      7  CB  LIG    1        3.970   1.833  -1.311  0.00  0.00    +0.104 C 
ENDROOT
BRANCH   3   8
ATOM      8  CA  LIG    1        1.898   1.566   3.142  0.00  0.00    +0.160 C 
ATOM      9  N   LIG    1        1.618   0.650   4.227  0.00  0.00    -0.304 N 
ATOM     10  H   LIG    1        1.173  -0.256   4.138  0.00  0.00    +0.149 HD
ATOM     11  C   LIG    1        2.342   0.947   5.362  0.00  0.00    +0.214 C 
ATOM     12  O   LIG    1        2.389   0.263   6.375  0.00  0.00    -0.276 OA
ATOM     13  C   LIG    1        3.094   2.225   5.116  0.00  0.00    +0.098 C 
ATOM     14  C   LIG    1        2.344   2.799   3.918  0.00  0.00    +0.041 C 
ENDBRANCH   3   8
BRANCH   1  16
ATOM     15  O   LIG    1        6.575   1.825  -0.171  0.00  0.00    -0.249 OA
ATOM     16  C   LIG    1        5.703   1.231   0.446  0.00  0.00    +0.326 C 
BRANCH  16  17
ATOM     17  OXT LIG    1        5.982   0.518   1.566  0.00  0.00    -0.479 OA
ATOM     18  HXT LIG    1        5.203   0.027   1.924  0.00  0.00    +0.295 HD
ENDBRANCH  16  17
ENDBRANCH   1  16
TORSDOF 3
