REMARK  Name = *****
REMARK                            x       y       z     vdW  Elec       q    Type
REMARK                         _______ _______ _______ _____ _____    ______ ____
ROOT
ATOM      1  O   LIG    1        0.890   0.185   0.500  0.00  0.00    -0.271 OA
ATOM      2  C   LIG    1        2.108   0.082   0.329  0.00  0.00    +0.269 C 
ATOM      3  C   LIG    1        2.746  -1.121  -0.407  0.00  0.00    +0.320 C 
ATOM      4  N   LIG    1        3.592  -1.872   0.510  0.00  0.00    -0.243 NA
ATOM      5  C   LIG    1        4.658  -1.329   0.993  0.00  0.00    +0.079 C 
ATOM      6  C   LIG    1        5.163   0.042   0.676  0.00  0.00    +0.023 A 
ATOM      7  C   LIG    1        4.319   1.165   0.652  0.00  0.00    +0.043 A 
ATOM      8  C   LIG    1        4.884   2.446   0.576  0.00  0.00    +0.025 A 
ATOM      9  C   LIG    1        6.264   2.610   0.446  0.00  0.00    +0.022 A 
ATOM     10  C   LIG    1        7.089   1.492   0.406  0.00  0.00    +0.042 A 
ATOM     11 CL   LIG    1        8.789   1.689   0.237  0.00  0.00    -0.084 Cl
ATOM     12  C   LIG    1        6.551   0.213   0.526  0.00  0.00    +0.032 A 
ATOM     13  N   LIG    1        2.922   1.108   0.732  0.00  0.00    -0.281 N 
ATOM     14  H   LIG    1        2.405   1.942   0.980  0.00  0.00    +0.155 HD
ENDROOT
BRANCH   5  15
ATOM     15  C   LIG    1        5.458  -2.179   1.927  0.00  0.00    +0.019 A 
ATOM     16  C   LIG    1        5.804  -1.778   3.225  0.00  0.00    +0.050 A 
ATOM     17 CL   LIG    1        5.285  -0.283   3.918  0.00  0.00    -0.083 Cl
ATOM     18  C   LIG    1        6.571  -2.627   4.030  0.00  0.00    +0.021 A 
ATOM     19  C   LIG    1        6.980  -3.874   3.552  0.00  0.00    +0.002 A 
ATOM     20  C   LIG    1        6.615  -4.284   2.271  0.00  0.00    +0.001 A 
ATOM     21  C   LIG    1        5.853  -3.442   1.461  0.00  0.00    +0.011 A 
ENDBRANCH   5  15
BRANCH   3  22
ATOM     22  O   LIG    1        3.380  -0.781  -1.626  0.00  0.00    -0.364 OA
ATOM     23  H   LIG    1        3.905  -1.571  -1.835  0.00  0.00    +0.212 HD
ENDBRANCH   3  22
TORSDOF 2
