REMARK  Name = *****
REMARK                            x       y       z     vdW  Elec       q    Type
REMARK                         _______ _______ _______ _____ _____    ______ ____
ROOT
ATOM      1  CA  LIG    1        2.894  -1.251  -0.635  0.00  0.00    +0.299 C 
ATOM      2  C   LIG    1        4.026  -0.640  -1.432  0.00  0.00    +0.253 C 
ATOM      3  O   LIG    1        4.292   0.564  -1.361  0.00  0.00    -0.273 OA
ATOM      4  N   LIG    1        4.751  -1.410  -2.298  0.00  0.00    -0.283 N 
ATOM      5  H   LIG    1        5.311  -0.848  -2.930  0.00  0.00    +0.155 HD
ATOM      6  C   LIG    1        4.611  -2.779  -2.549  0.00  0.00    +0.043 A 
ATOM      7  C   LIG    1        4.151  -3.714  -1.612  0.00  0.00    +0.023 A 
ATOM      8  C   LIG    1        3.943  -5.047  -2.008  0.00  0.00    +0.032 A 
ATOM      9  C   LIG    1        4.258  -5.452  -3.303  0.00  0.00    +0.042 A 
ATOM     10  C   LIG    1        4.787  -4.544  -4.213  0.00  0.00    +0.022 A 
ATOM     11 CL   LIG    1        4.021  -7.090  -3.768  0.00  0.00    -0.084 Cl
ATOM     12  C   LIG    1        3.957  -3.375  -0.169  0.00  0.00    +0.076 C 
ATOM     13  C   LIG    1        4.967  -3.212  -3.834  0.00  0.00    +0.025 A 
ATOM     14  N   LIG    1        3.360  -2.320   0.277  0.00  0.00    -0.259 NA
ENDROOT
BRANCH  12  15
ATOM     15  C   LIG    1        4.484  -4.331   0.863  0.00  0.00    +0.001 A 
ATOM     16  C   LIG    1        3.766  -4.524   2.050  0.00  0.00    +0.010 A 
ATOM     17  C   LIG    1        4.243  -5.402   3.023  0.00  0.00    +0.001 A 
ATOM     18  C   LIG    1        5.443  -6.082   2.821  0.00  0.00    +0.000 A 
ATOM     19  C   LIG    1        6.175  -5.878   1.652  0.00  0.00    +0.001 A 
ATOM     20  C   LIG    1        5.702  -4.999   0.675  0.00  0.00    +0.010 A 
ENDBRANCH  12  15
BRANCH   1  22
ATOM     21  O   LIG    1        1.391  -1.333  -2.561  0.00  0.00    -0.248 OA
ATOM     22  C   LIG    1        1.696  -1.712  -1.441  0.00  0.00    +0.339 C 
BRANCH  22  23
ATOM     23  OXT LIG    1        0.942  -2.610  -0.745  0.00  0.00    -0.479 OA
ATOM     24  HXT LIG    1        1.386  -2.782   0.117  0.00  0.00    +0.295 HD
ENDBRANCH  22  23
ENDBRANCH   1  22
TORSDOF 3
