REMARK  Name = *****
REMARK                            x       y       z     vdW  Elec       q    Type
REMARK                         _______ _______ _______ _____ _____    ______ ____
ROOT
ATOM      1  C   LIG    1       -0.932  -1.883  -4.368  0.00  0.00    +0.086 C 
ENDROOT
BRANCH   1   2
ATOM      2  C   LIG    1       -1.328  -1.260  -5.800  0.00  0.00    -0.027 A 
ATOM      3  C   LIG    1       -0.385  -0.627  -6.633  0.00  0.00    +0.005 A 
ATOM      4  C   LIG    1       -0.685  -0.245  -7.951  0.00  0.00    +0.000 A 
ATOM      5  C   LIG    1       -1.984  -0.326  -8.429  0.00  0.00    +0.000 A 
ATOM      6  C   LIG    1       -2.983  -0.769  -7.573  0.00  0.00    +0.000 A 
ATOM      7  C   LIG    1       -2.655  -1.271  -6.297  0.00  0.00    +0.005 A 
ENDBRANCH   1   2
BRANCH   1   9
ATOM      8  C   LIG    1       -2.563  -4.030  -4.670  0.00  0.00    +0.009 C 
ATOM      9  C   LIG    1       -1.155  -3.474  -4.390  0.00  0.00    +0.007 C 
ATOM     10  C   LIG    1       -0.190  -4.305  -5.243  0.00  0.00    +0.009 C 
ENDBRANCH   1   9
BRANCH   1  11
ATOM     11  C   LIG    1       -1.859  -1.340  -3.365  0.00  0.00    +0.074 C 
ATOM     12  N   LIG    1       -2.652  -1.004  -2.632  0.00  0.00    -0.196 NA
ENDBRANCH   1  11
BRANCH   1  13
ATOM     13  C   LIG    1        0.574  -1.482  -3.954  0.00  0.00    +0.045 C 
BRANCH  13  14
ATOM     14  C   LIG    1        1.296  -1.722  -2.541  0.00  0.00    +0.055 C 
ATOM     15  C   LIG    1        1.531  -3.204  -2.222  0.00  0.00    +0.024 C 
BRANCH  14  16
ATOM     16  N   LIG    1        0.978  -0.896  -1.331  0.00  0.00    -0.306 NA
ATOM     17  C   LIG    1        2.116  -0.844  -0.383  0.00  0.00    +0.105 C 
ATOM     18  C   LIG    1       -0.183  -1.329  -0.547  0.00  0.00    +0.105 C 
ENDBRANCH  14  16
ENDBRANCH  13  14
ENDBRANCH   1  13
TORSDOF 6
