REMARK  Name = *****
REMARK                            x       y       z     vdW  Elec       q    Type
REMARK                         _______ _______ _______ _____ _____    ______ ____
ROOT
ATOM      1  N   LYS A  3        2.561   0.841   2.481  0.00  0.00    -0.301 N 
ATOM      2  H   LYS A  3        2.835   0.651   1.520  0.00  0.00    +0.150 HD
ATOM      3  C   HIS A  2        1.641  -0.023   3.039  0.00  0.00    +0.239 C 
ATOM      4  O   HIS A  2        1.355   0.074   4.234  0.00  0.00    -0.273 OA
ENDROOT
BRANCH   1   5
ATOM      5  CA  LYS A  3        3.367   1.812   3.245  0.00  0.00    +0.182 C 
BRANCH   5   6
ATOM      6  C   LYS A  3        2.631   3.193   3.357  0.00  0.00    +0.325 C 
ATOM      7  O   LYS A  3        3.042   4.245   2.934  0.00  0.00    -0.249 OA
BRANCH   6   8
ATOM      8  OXT LYS A  3        1.458   3.101   4.054  0.00  0.00    -0.479 OA
ATOM      9  HXT LYS A  3        1.288   2.204   4.407  0.00  0.00    +0.295 HD
ENDBRANCH   6   8
ENDBRANCH   5   6
BRANCH   5  10
ATOM     10  CB  LYS A  3        4.759   2.001   2.603  0.00  0.00    +0.034 C 
BRANCH  10  11
ATOM     11  CG  LYS A  3        5.583   0.699   2.491  0.00  0.00    +0.003 C 
BRANCH  11  12
ATOM     12  CD  LYS A  3        6.934   0.926   1.785  0.00  0.00    +0.015 C 
BRANCH  12  13
ATOM     13  CE  LYS A  3        7.796  -0.336   1.631  0.00  0.00    +0.077 C 
BRANCH  13  14
ATOM     14  NZ  LYS A  3        8.263  -0.848   2.915  0.00  0.00    -0.330 NA
ATOM     15  HZ1 LYS A  3        8.910  -0.176   3.330  0.00  0.00    +0.118 HD
ATOM     16  HZ2 LYS A  3        8.810  -1.696   2.761  0.00  0.00    +0.118 HD
ENDBRANCH  13  14
ENDBRANCH  12  13
ENDBRANCH  11  12
ENDBRANCH  10  11
ENDBRANCH   5  10
ENDBRANCH   1   5
BRANCH   3  17
ATOM     17  CA  HIS A  2        0.838  -0.922   2.036  0.00  0.00    +0.200 C 
BRANCH  17  18
ATOM     18  N   HIS A  2        1.709  -1.305   0.906  0.00  0.00    -0.241 NA
ATOM     19  C   GLY A  1        1.268  -1.283  -0.305  0.00  0.00    +0.197 C 
BRANCH  19  20
ATOM     20  O   GLY A  1       -0.003  -1.021  -0.683  0.00  0.00    -0.495 OA
ATOM     21  H   GLY A  1       -0.611  -0.844   0.045  0.00  0.00    +0.293 HD
ENDBRANCH  19  20
BRANCH  19  22
ATOM     22  CA  GLY A  1        2.123  -1.503  -1.547  0.00  0.00    +0.174 C 
BRANCH  22  23
ATOM     23  N   GLY A  1        3.549  -1.575  -1.215  0.00  0.00    -0.322 NA
ATOM     24  H1  GLY A  1        4.067  -1.852  -2.046  0.00  0.00    +0.119 HD
ATOM     25  H2  GLY A  1        3.680  -2.311  -0.521  0.00  0.00    +0.119 HD
ENDBRANCH  22  23
ENDBRANCH  19  22
ENDBRANCH  17  18
BRANCH  17  26
ATOM     26  CB  HIS A  2        0.182  -2.144   2.730  0.00  0.00    +0.091 C 
BRANCH  26  27
ATOM     27  CG  HIS A  2       -0.881  -2.831   1.908  0.00  0.00    +0.038 A 
ATOM     28  ND1 HIS A  2       -2.215  -2.824   2.257  0.00  0.00    -0.348 N 
ATOM     29  HD1 HIS A  2       -2.618  -2.433   3.098  0.00  0.00    +0.167 HD
ATOM     30  CE1 HIS A  2       -2.923  -3.341   1.210  0.00  0.00    +0.196 A 
ATOM     31  NE2 HIS A  2       -2.124  -3.845   0.301  0.00  0.00    -0.244 NA
ATOM     32  CD2 HIS A  2       -0.853  -3.582   0.748  0.00  0.00    +0.133 A 
ENDBRANCH  26  27
ENDBRANCH  17  26
ENDBRANCH   3  17
TORSDOF 15
