REMARK  Name = *****
REMARK                            x       y       z     vdW  Elec       q    Type
REMARK                         _______ _______ _______ _____ _____    ______ ____
ROOT
ATOM      1  C   LIG    1       11.917   7.735  -1.577  0.00  0.00    +0.185 C 
ATOM      2  O   LIG    1       10.832   7.495  -0.681  0.00  0.00    -0.334 OA
ATOM      3  C   LIG    1       11.189   6.331   0.100  0.00  0.00    +0.217 C 
ATOM      4  O   LIG    1       12.326   5.708  -0.536  0.00  0.00    -0.341 OA
ATOM      5  C   LIG    1       12.508   6.367  -1.784  0.00  0.00    +0.198 C 
ENDROOT
BRANCH   3   6
ATOM      6  C   LIG    1       11.578   6.696   1.542  0.00  0.00    +0.031 A 
ATOM      7  C   LIG    1       10.969   7.715   2.300  0.00  0.00    +0.051 A 
ATOM      8 CL   LIG    1        9.728   8.748   1.682  0.00  0.00    -0.083 Cl
ATOM      9  C   LIG    1       11.325   7.937   3.641  0.00  0.00    +0.040 A 
ATOM     10  C   LIG    1       12.283   7.140   4.256  0.00  0.00    +0.042 A 
ATOM     11 CL   LIG    1       12.651   7.375   5.920  0.00  0.00    -0.084 Cl
ATOM     12  C   LIG    1       12.920   6.141   3.536  0.00  0.00    +0.020 A 
ATOM     13  C   LIG    1       12.577   5.929   2.195  0.00  0.00    +0.012 A 
ENDBRANCH   3   6
BRANCH   1  14
ATOM     14  C   LIG    1       11.445   8.414  -2.864  0.00  0.00    +0.263 C 
BRANCH  14  15
ATOM     15  O   LIG    1       12.528   8.627  -3.767  0.00  0.00    -0.489 OA
BRANCH  15  19
ATOM     16  C   LIG    1       13.704   5.945  -6.824  0.00  0.00    +0.030 A 
ATOM     17  C   LIG    1       14.522   6.954  -6.289  0.00  0.00    +0.027 A 
ATOM     18  C   LIG    1       14.082   7.821  -5.277  0.00  0.00    +0.047 A 
ATOM     19  C   LIG    1       12.801   7.720  -4.747  0.00  0.00    +0.121 A 
ATOM     20  C   LIG    1       11.954   6.750  -5.265  0.00  0.00    +0.047 A 
ATOM     21  C   LIG    1       12.402   5.886  -6.288  0.00  0.00    +0.027 A 
BRANCH  16  27
ATOM     22  C   LIG    1       14.872   0.338  -8.187  0.00  0.00    +0.109 C 
ATOM     23  C   LIG    1       15.656   1.631  -8.102  0.00  0.00    +0.213 C 
ATOM     24  N   LIG    1       15.277   2.653  -8.970  0.00  0.00    -0.299 N 
ATOM     25  C   LIG    1       13.877   2.967  -9.232  0.00  0.00    +0.126 C 
ATOM     26  C   LIG    1       13.316   3.880  -8.120  0.00  0.00    +0.124 C 
ATOM     27  N   LIG    1       14.155   5.085  -7.860  0.00  0.00    -0.327 N 
ATOM     28  C   LIG    1       15.633   4.844  -7.872  0.00  0.00    +0.124 C 
ATOM     29  C   LIG    1       16.084   3.868  -8.974  0.00  0.00    +0.126 C 
ATOM     30  O   LIG    1       16.629   1.717  -7.366  0.00  0.00    -0.276 OA
ENDBRANCH  16  27
ENDBRANCH  15  19
ENDBRANCH  14  15
ENDBRANCH   1  14
BRANCH   3  31
ATOM     31  C   LIG    1        9.976   5.375  -0.005  0.00  0.00    +0.193 C 
BRANCH  31  32
ATOM     32  N   LIG    1       10.138   4.074   0.604  0.00  0.00    -0.331 N 
ATOM     33  C   LIG    1       10.632   2.953  -0.002  0.00  0.00    +0.199 A 
ATOM     34  N   LIG    1       10.536   1.903   0.783  0.00  0.00    -0.244 NA
ATOM     35  C   LIG    1        9.960   2.366   1.938  0.00  0.00    +0.130 A 
ATOM     36  C   LIG    1        9.704   3.713   1.848  0.00  0.00    +0.107 A 
ENDBRANCH  31  32
ENDBRANCH   3  31
TORSDOF 7
