REMARK  Name = *****
REMARK                            x       y       z     vdW  Elec       q    Type
REMARK                         _______ _______ _______ _____ _____    ______ ____
ROOT
ATOM      1  C   LIG    1        2.521  -0.130  -1.089  0.00  0.00    +0.159 A 
ATOM      2  C   LIG    1        3.032  -1.248  -0.465  0.00  0.00    +0.166 A 
ATOM      3  O   LIG    1        2.494  -2.446  -0.073  0.00  0.00    -0.481 OA
ATOM      4  C   LIG    1        3.667  -3.346  -0.093  0.00  0.00    +0.215 C 
ATOM      5  C   LIG    1        4.831  -2.678   0.624  0.00  0.00    +0.070 C 
ATOM      6  C   LIG    1        6.371  -3.551   0.393  0.00  0.00    +0.095 C 
ATOM      7  C   LIG    1        7.655  -2.347  -0.483  0.00  0.00    +0.093 C 
ATOM      8  N   LIG    1        7.430  -2.487  -1.859  0.00  0.00    -0.296 NA
ATOM      9  C   LIG    1        6.044  -2.309  -1.502  0.00  0.00    +0.086 C 
ATOM     10  C   LIG    1        7.167  -0.465  -0.640  0.00  0.00    +0.057 C 
ATOM     11  C   LIG    1        5.381  -0.085  -0.807  0.00  0.00    -0.038 A 
ATOM     12  C   LIG    1        4.808   0.993  -1.426  0.00  0.00    +0.008 A 
ATOM     13  C   LIG    1        5.987  -4.985  -0.079  0.00  0.00    +0.040 C 
ATOM     14  C   LIG    1        4.758  -5.520   0.728  0.00  0.00    +0.038 C 
ATOM     15  C   LIG    1        5.862  -1.796   0.432  0.00  0.00    +0.033 C 
ATOM     16  C   LIG    1        3.444  -4.692   0.603  0.00  0.00    +0.156 C 
ATOM     17  C   LIG    1        4.374  -1.216  -0.267  0.00  0.00    +0.014 A 
ATOM     18  C   LIG    1        3.379   0.957  -1.538  0.00  0.00    +0.049 A 
ENDROOT
BRANCH   1  19
ATOM     19  O   LIG    1        1.173  -0.069  -1.319  0.00  0.00    -0.503 OA
ATOM     20  H   LIG    1        0.965   0.784  -1.731  0.00  0.00    +0.292 HD
ENDBRANCH   1  19
BRANCH   6  21
ATOM     21  O   LIG    1        6.948  -3.823   1.717  0.00  0.00    -0.386 OA
ATOM     22  H   LIG    1        7.838  -4.189   1.565  0.00  0.00    +0.210 HD
ENDBRANCH   6  21
BRANCH  16  23
ATOM     23  O   LIG    1        2.501  -5.457  -0.156  0.00  0.00    -0.388 OA
ATOM     24  H   LIG    1        1.715  -4.889  -0.273  0.00  0.00    +0.210 HD
ENDBRANCH  16  23
BRANCH   8  25
ATOM     25  C   LIG    1        7.871  -3.716  -2.486  0.00  0.00    +0.088 C 
BRANCH  25  26
ATOM     26  C   LIG    1        7.535  -3.703  -3.975  0.00  0.00    +0.003 C 
ATOM     27  C   LIG    1        8.449  -2.843  -4.893  0.00  0.00    +0.005 C 
ATOM     28  C   LIG    1        8.326  -3.964  -5.946  0.00  0.00    +0.001 C 
ATOM     29  C   LIG    1        8.037  -4.931  -4.781  0.00  0.00    +0.005 C 
ENDBRANCH  25  26
ENDBRANCH   8  25
TORSDOF 5
