REMARK  Name = *****
REMARK                            x       y       z     vdW  Elec       q    Type
REMARK                         _______ _______ _______ _____ _____    ______ ____
ROOT
ATOM      1  N   LIG    1        8.966  -0.283   0.035  0.00  0.00    -0.298 N 
ATOM      2  C   LIG    1        9.150  -1.667   0.254  0.00  0.00    +0.048 A 
ATOM      3  C   LIG    1       10.210  -2.151   1.044  0.00  0.00    +0.034 A 
ATOM      4  C   LIG    1       10.349  -3.529   1.275  0.00  0.00    +0.017 A 
ATOM      5  C   LIG    1        9.464  -4.436   0.695  0.00  0.00    +0.001 A 
ATOM      6  C   LIG    1        8.443  -3.977  -0.126  0.00  0.00    +0.002 A 
ATOM      7  S   LIG    1       11.384  -1.061   1.836  0.00  0.00    -0.086 S 
ATOM      8  C   LIG    1       11.170   0.432   0.878  0.00  0.00    +0.034 A 
ATOM      9  C   LIG    1       12.195   1.391   0.930  0.00  0.00    +0.017 A 
ATOM     10  C   LIG    1       12.104   2.567   0.186  0.00  0.00    +0.001 A 
ATOM     11  C   LIG    1       10.994   2.791  -0.616  0.00  0.00    +0.002 A 
ATOM     12  C   LIG    1        9.959   1.852  -0.651  0.00  0.00    +0.024 A 
ATOM     13  C   LIG    1        8.290  -2.606  -0.347  0.00  0.00    +0.024 A 
ATOM     14  C   LIG    1       10.014   0.669   0.113  0.00  0.00    +0.048 A 
ENDROOT
BRANCH   1  15
ATOM     15  C   LIG    1        7.590   0.260   0.187  0.00  0.00    +0.116 C 
BRANCH  15  19
ATOM     16  C   LIG    1        7.158   1.962   4.350  0.00  0.00    +0.105 C 
ATOM     17  N   LIG    1        6.897   1.490   2.998  0.00  0.00    -0.305 NA
ATOM     18  C   LIG    1        7.484   0.171   2.756  0.00  0.00    +0.089 C 
ATOM     19  C   LIG    1        6.835  -0.246   1.440  0.00  0.00    +0.022 C 
ATOM     20  C   LIG    1        5.433   0.384   1.524  0.00  0.00    +0.021 C 
ATOM     21  C   LIG    1        5.472   1.331   2.720  0.00  0.00    +0.084 C 
ENDBRANCH  15  19
ENDBRANCH   1  15
TORSDOF 2
