REMARK  Name = *****
REMARK                            x       y       z     vdW  Elec       q    Type
REMARK                         _______ _______ _______ _____ _____    ______ ____
ROOT
ATOM      1  C   LIG    1       -0.188  -1.404  -1.146  0.00  0.00    +0.042 C 
ATOM      2  C   LIG    1       -1.690  -1.617  -1.369  0.00  0.00    +0.069 C 
ATOM      3  C   LIG    1       -2.408  -2.678  -0.448  0.00  0.00    -0.000 C 
ATOM      4  C   LIG    1       -3.689  -3.173  -1.191  0.00  0.00    +0.014 C 
ATOM      5  C   LIG    1       -2.865  -1.855   0.812  0.00  0.00    +0.001 C 
ATOM      6  C   LIG    1       -2.209  -2.182   2.172  0.00  0.00    -0.003 C 
ATOM      7  C   LIG    1       -1.864  -3.668   2.379  0.00  0.00    +0.002 C 
ATOM      8  C   LIG    1       -0.967  -4.095   1.210  0.00  0.00    +0.005 C 
ATOM      9  C   LIG    1       -3.012  -4.623   2.894  0.00  0.00    -0.007 C 
ATOM     10  C   LIG    1       -2.358  -5.993   3.236  0.00  0.00    +0.016 C 
ATOM     11  C   LIG    1       -3.659  -3.914   4.097  0.00  0.00    -0.060 C 
ATOM     12  C   LIG    1       -4.348  -4.646   4.991  0.00  0.00    +0.046 C 
ATOM     13  C   LIG    1       -5.620  -5.042   4.253  0.00  0.00    +0.156 C 
ATOM     14  O   LIG    1       -6.693  -5.011   4.835  0.00  0.00    -0.293 OA
ATOM     15  C   LIG    1       -5.425  -5.594   2.832  0.00  0.00    +0.080 C 
ATOM     16  C   LIG    1       -4.135  -2.493   3.821  0.00  0.00    +0.032 C 
ATOM     17  C   LIG    1       -4.260  -4.946   2.019  0.00  0.00    +0.019 C 
ATOM     18  C   LIG    1       -2.983  -1.608   3.373  0.00  0.00    +0.008 C 
ATOM     19  C   LIG    1       -2.621  -0.366   0.451  0.00  0.00    +0.007 C 
ATOM     20  C   LIG    1       -1.591  -3.964  -0.166  0.00  0.00    +0.010 C 
ATOM     21  C   LIG    1       -2.457  -0.326  -1.056  0.00  0.00    +0.035 C 
ENDROOT
BRANCH   2  22
ATOM     22  O   LIG    1       -1.856  -1.909  -2.756  0.00  0.00    -0.388 OA
ATOM     23  H   LIG    1       -1.416  -2.756  -2.939  0.00  0.00    +0.210 HD
ENDBRANCH   2  22
TORSDOF 1
