REMARK  Name = *****
REMARK                            x       y       z     vdW  Elec       q    Type
REMARK                         _______ _______ _______ _____ _____    ______ ____
ROOT
ATOM      1  C   LIG    1        4.986  -2.761   4.770  0.00  0.00    -0.004 C 
ATOM      2  C   LIG    1        4.911  -4.097   5.039  0.00  0.00    -0.016 C 
ATOM      3  C   LIG    1        4.041  -5.004   4.281  0.00  0.00    +0.015 C 
ATOM      4  C   LIG    1        4.348  -6.302   4.159  0.00  0.00    +0.078 C 
ATOM      5  C   LIG    1        5.588  -6.826   4.827  0.00  0.00    +0.202 C 
ATOM      6  N   LIG    1        6.227  -7.877   4.413  0.00  0.00    -0.234 N 
ATOM      7  C   LIG    1        7.516  -8.330   5.028  0.00  0.00    +0.432 C 
ATOM      8  C   LIG    1        5.773  -8.679   3.232  0.00  0.00    +0.432 C 
ATOM      9  C   LIG    1        6.010  -6.030   6.033  0.00  0.00    +0.078 C 
ATOM     10  C   LIG    1        5.669  -4.737   6.120  0.00  0.00    +0.015 C 
ENDROOT
BRANCH   1  14
ATOM     11  C   LIG    1        2.882  -1.165   1.281  0.00  0.00    +0.029 A 
ATOM     12  C   LIG    1        2.300  -1.202   2.563  0.00  0.00    +0.024 A 
ATOM     13  C   LIG    1        2.976  -1.695   3.695  0.00  0.00    +0.010 A 
ATOM     14  C   LIG    1        4.269  -2.200   3.583  0.00  0.00    -0.017 A 
ATOM     15  C   LIG    1        4.869  -2.190   2.321  0.00  0.00    +0.010 A 
ATOM     16  C   LIG    1        4.183  -1.689   1.197  0.00  0.00    +0.024 A 
BRANCH  11  18
ATOM     17  C   LIG    1        2.952  -0.133  -0.965  0.00  0.00    +0.129 C 
ATOM     18  N   LIG    1        2.189  -0.695   0.155  0.00  0.00    -0.336 N 
ATOM     19  C   LIG    1        0.883  -0.058   0.356  0.00  0.00    +0.129 C 
ENDBRANCH  11  18
ENDBRANCH   1  14
BRANCH   1  20
ATOM     20  C   LIG    1        5.892  -1.880   5.564  0.00  0.00    -0.017 A 
ATOM     21  C   LIG    1        7.210  -1.665   5.160  0.00  0.00    +0.010 A 
ATOM     22  C   LIG    1        8.066  -0.834   5.905  0.00  0.00    +0.024 A 
ATOM     23  C   LIG    1        7.649  -0.171   7.073  0.00  0.00    +0.029 A 
ATOM     24  C   LIG    1        6.326  -0.431   7.472  0.00  0.00    +0.024 A 
ATOM     25  C   LIG    1        5.456  -1.256   6.732  0.00  0.00    +0.010 A 
BRANCH  23  26
ATOM     26  N   LIG    1        8.509   0.648   7.822  0.00  0.00    -0.336 N 
ATOM     27  C   LIG    1        9.817   0.996   7.253  0.00  0.00    +0.129 C 
ATOM     28  C   LIG    1        7.921   1.732   8.618  0.00  0.00    +0.129 C 
ENDBRANCH  23  26
ENDBRANCH   1  20
TORSDOF 4
