REMARK  Name = *****
REMARK                            x       y       z     vdW  Elec       q    Type
REMARK                         _______ _______ _______ _____ _____    ______ ____
ROOT
ATOM      1  C   LIG    1        4.546  -8.203  -7.095  0.00  0.00    +0.185 C 
ATOM      2  O   LIG    1        5.373  -9.366  -7.043  0.00  0.00    -0.334 OA
ATOM      3  C   LIG    1        5.796  -9.514  -5.669  0.00  0.00    +0.219 C 
ATOM      4  O   LIG    1        5.098  -8.544  -4.863  0.00  0.00    -0.341 OA
ATOM      5  C   LIG    1        4.053  -8.015  -5.685  0.00  0.00    +0.198 C 
ENDROOT
BRANCH   3   6
ATOM      6  C   LIG    1        7.310  -9.197  -5.586  0.00  0.00    +0.031 A 
ATOM      7  C   LIG    1        8.066  -9.208  -4.393  0.00  0.00    +0.051 A 
ATOM      8 CL   LIG    1        7.409  -9.677  -2.865  0.00  0.00    -0.083 Cl
ATOM      9  C   LIG    1        9.426  -8.838  -4.380  0.00  0.00    +0.040 A 
ATOM     10  C   LIG    1       10.066  -8.466  -5.556  0.00  0.00    +0.042 A 
ATOM     11 CL   LIG    1       11.728  -8.024  -5.539  0.00  0.00    -0.084 Cl
ATOM     12  C   LIG    1        9.362  -8.460  -6.750  0.00  0.00    +0.020 A 
ATOM     13  C   LIG    1        8.008  -8.816  -6.761  0.00  0.00    +0.012 A 
ENDBRANCH   3   6
BRANCH   1  14
ATOM     14  C   LIG    1        3.414  -8.408  -8.102  0.00  0.00    +0.263 C 
BRANCH  14  15
ATOM     15  O   LIG    1        2.610  -7.229  -8.238  0.00  0.00    -0.489 OA
BRANCH  15  19
ATOM     16  C   LIG    1        3.798  -4.330 -11.063  0.00  0.00    +0.030 A 
ATOM     17  C   LIG    1        4.558  -5.481 -10.840  0.00  0.00    +0.027 A 
ATOM     18  C   LIG    1        4.191  -6.453  -9.921  0.00  0.00    +0.047 A 
ATOM     19  C   LIG    1        3.032  -6.314  -9.162  0.00  0.00    +0.121 A 
ATOM     20  C   LIG    1        2.261  -5.174  -9.338  0.00  0.00    +0.047 A 
ATOM     21  C   LIG    1        2.638  -4.193 -10.276  0.00  0.00    +0.027 A 
BRANCH  16  25
ATOM     22  N   LIG    1        4.695  -2.192 -14.690  0.00  0.00    -0.297 NA
ATOM     23  C   LIG    1        3.610  -1.704 -13.803  0.00  0.00    +0.103 C 
ATOM     24  C   LIG    1        3.102  -2.729 -12.764  0.00  0.00    +0.120 C 
ATOM     25  N   LIG    1        4.202  -3.350 -11.992  0.00  0.00    -0.327 N 
ATOM     26  C   LIG    1        5.439  -3.651 -12.757  0.00  0.00    +0.120 C 
ATOM     27  C   LIG    1        5.803  -2.558 -13.776  0.00  0.00    +0.103 C 
BRANCH  22  29
ATOM     28  C   LIG    1        3.119  -2.892 -16.498  0.00  0.00    +0.024 C 
ATOM     29  C   LIG    1        4.264  -3.314 -15.565  0.00  0.00    +0.051 C 
ATOM     30  C   LIG    1        5.417  -3.836 -16.437  0.00  0.00    +0.024 C 
ENDBRANCH  22  29
ENDBRANCH  16  25
ENDBRANCH  15  19
ENDBRANCH  14  15
ENDBRANCH   1  14
BRANCH   3  31
ATOM     31  C   LIG    1        5.438 -10.960  -5.243  0.00  0.00    +0.215 C 
BRANCH  31  32
ATOM     32  N   LIG    1        4.016 -11.282  -5.399  0.00  0.00    -0.246 N 
ATOM     33  N   LIG    1        3.558 -11.909  -6.495  0.00  0.00    -0.158 NA
ATOM     34  C   LIG    1        2.273 -12.095  -6.175  0.00  0.00    +0.244 A 
ATOM     35  N   LIG    1        1.895 -11.633  -4.963  0.00  0.00    -0.223 NA
ATOM     36  C   LIG    1        3.028 -11.138  -4.478  0.00  0.00    +0.219 A 
ENDBRANCH  31  32
ENDBRANCH   3  31
TORSDOF 8
