REMARK  Name = *****
REMARK                            x       y       z     vdW  Elec       q    Type
REMARK                         _______ _______ _______ _____ _____    ______ ____
ROOT
ATOM      1  C   LIG    1        3.008   0.316  -0.998  0.00  0.00    +0.162 A 
ATOM      2  C   LIG    1        3.731   1.207  -1.825  0.00  0.00    +0.026 A 
ATOM      3  C   LIG    1        4.212   0.710  -3.053  0.00  0.00    +0.005 A 
ATOM      4  C   LIG    1        4.929   1.548  -3.927  0.00  0.00    +0.010 A 
ATOM      5  C   LIG    1        5.183   2.876  -3.590  0.00  0.00    +0.001 A 
ATOM      6  C   LIG    1        4.729   3.381  -2.377  0.00  0.00    +0.001 A 
ATOM      7  C   LIG    1        3.960  -0.621  -3.361  0.00  0.00    +0.143 A 
ATOM      8  N   LIG    1        3.287  -1.453  -2.545  0.00  0.00    -0.155 NA
ATOM      9  C   LIG    1        4.015   2.558  -1.503  0.00  0.00    +0.012 A 
ATOM     10  N   LIG    1        2.818  -0.980  -1.356  0.00  0.00    -0.133 NA
ENDROOT
BRANCH   1  11
ATOM     11  N   LIG    1        2.489   0.777   0.254  0.00  0.00    -0.266 N 
ATOM     12  H   LIG    1        1.949   1.629   0.082  0.00  0.00    +0.168 HD
BRANCH  11  13
ATOM     13  N   LIG    1        1.799  -0.175   1.055  0.00  0.00    -0.255 NA
ATOM     14  H   LIG    1        1.187  -0.742   0.455  0.00  0.00    +0.140 HD
ATOM     15  H   LIG    1        2.481  -0.858   1.404  0.00  0.00    +0.140 HD
ENDBRANCH  11  13
ENDBRANCH   1  11
TORSDOF 2
