REMARK  Name = *****
REMARK                            x       y       z     vdW  Elec       q    Type
REMARK                         _______ _______ _______ _____ _____    ______ ____
ROOT
ATOM      1  C   LIG    1        2.436   0.043  -0.092  0.00  0.00    +0.048 A 
ATOM      2  C   LIG    1        3.149  -1.169  -0.158  0.00  0.00    +0.064 A 
ATOM      3  C   LIG    1        4.543  -1.076  -0.210  0.00  0.00    +0.135 A 
ATOM      4  N   LIG    1        5.248   0.078  -0.270  0.00  0.00    -0.261 NA
ATOM      5  C   LIG    1        4.529   1.214  -0.197  0.00  0.00    +0.112 A 
ATOM      6  C   LIG    1        3.149   1.246  -0.082  0.00  0.00    +0.044 A 
ENDROOT
BRANCH   1   7
ATOM      7  N   LIG    1        1.054   0.076   0.182  0.00  0.00    -0.356 N 
ATOM      8  H   LIG    1        0.550  -0.750  -0.110  0.00  0.00    +0.142 HD
ATOM      9  H   LIG    1        0.595   0.935  -0.102  0.00  0.00    +0.142 HD
ENDBRANCH   1   7
BRANCH   2  10
ATOM     10  N   LIG    1        2.523  -2.413   0.046  0.00  0.00    -0.355 N 
ATOM     11  H   LIG    1        1.549  -2.433  -0.223  0.00  0.00    +0.142 HD
ATOM     12  H   LIG    1        3.045  -3.201  -0.324  0.00  0.00    +0.142 HD
ENDBRANCH   2  10
TORSDOF 2
