REMARK  Name = *****
REMARK                            x       y       z     vdW  Elec       q    Type
REMARK                         _______ _______ _______ _____ _____    ______ ____
ROOT
ATOM      1  C   LIG    1        7.048  -7.339  -7.361  0.00  0.00    +0.064 A 
ATOM      2  C   LIG    1        5.652  -7.463  -7.427  0.00  0.00    +0.049 A 
ATOM      3  I   LIG    1        5.231  -9.571  -8.317  0.00  0.00    -0.041 I 
ATOM      4  C   LIG    1        4.837  -7.071  -6.325  0.00  0.00    +0.065 A 
ATOM      5  C   LIG    1        5.554  -6.864  -5.084  0.00  0.00    +0.040 A 
ATOM      6  I   LIG    1        5.374  -5.163  -3.386  0.00  0.00    -0.042 I 
ATOM      7  C   LIG    1        6.845  -7.379  -4.933  0.00  0.00    +0.065 A 
ATOM      8  C   LIG    1        7.559  -7.689  -6.098  0.00  0.00    +0.049 A 
ATOM      9  I   LIG    1        9.005  -9.217  -6.112  0.00  0.00    -0.041 I 
ENDROOT
BRANCH   7  10
ATOM     10  C   LIG    1        7.472  -7.427  -3.568  0.00  0.00    +0.246 C 
ATOM     11  N   LIG    1        6.632  -7.799  -2.504  0.00  0.00    -0.309 N 
ATOM     12  H   LIG    1        5.661  -7.991  -2.666  0.00  0.00    +0.149 HD
ATOM     13  O   LIG    1        8.598  -7.047  -3.412  0.00  0.00    -0.270 OA
BRANCH  11  14
ATOM     14  C   LIG    1        7.115  -7.751  -1.129  0.00  0.00    +0.132 C 
BRANCH  14  15
ATOM     15  C   LIG    1        6.579  -6.648  -0.190  0.00  0.00    +0.174 C 
BRANCH  15  16
ATOM     16  O   LIG    1        7.092  -6.848   1.133  0.00  0.00    -0.394 OA
ATOM     17  H   LIG    1        6.818  -7.730   1.434  0.00  0.00    +0.209 HD
ENDBRANCH  15  16
ENDBRANCH  14  15
ENDBRANCH  11  14
ENDBRANCH   7  10
BRANCH   1  20
ATOM     18  C   LIG    1        8.841  -3.982  -8.107  0.00  0.00    +0.110 C 
ATOM     19  C   LIG    1        8.344  -5.210  -7.388  0.00  0.00    +0.217 C 
ATOM     20  N   LIG    1        7.657  -6.213  -8.108  0.00  0.00    -0.267 N 
ATOM     21  O   LIG    1        8.561  -5.258  -6.179  0.00  0.00    -0.276 OA
BRANCH  20  22
ATOM     22  C   LIG    1        7.370  -6.099  -9.571  0.00  0.00    +0.147 C 
BRANCH  22  23
ATOM     23  C   LIG    1        8.450  -6.697 -10.521  0.00  0.00    +0.158 C 
BRANCH  23  24
ATOM     24  O   LIG    1        8.557  -8.111 -10.354  0.00  0.00    -0.388 OA
ATOM     25  H   LIG    1        8.894  -8.286  -9.458  0.00  0.00    +0.210 HD
ENDBRANCH  23  24
BRANCH  23  26
ATOM     26  C   LIG    1        9.831  -6.047 -10.410  0.00  0.00    +0.188 C 
BRANCH  26  27
ATOM     27  O   LIG    1        9.752  -4.666 -10.748  0.00  0.00    -0.392 OA
ATOM     28  H   LIG    1       10.575  -4.245 -10.436  0.00  0.00    +0.209 HD
ENDBRANCH  26  27
ENDBRANCH  23  26
ENDBRANCH  22  23
ENDBRANCH  20  22
ENDBRANCH   1  20
BRANCH   4  29
ATOM     29  C   LIG    1        3.336  -7.091  -6.594  0.00  0.00    +0.246 C 
ATOM     30  N   LIG    1        2.470  -6.198  -6.033  0.00  0.00    -0.309 N 
ATOM     31  H   LIG    1        1.495  -6.475  -6.060  0.00  0.00    +0.149 HD
ATOM     32  O   LIG    1        2.807  -7.906  -7.395  0.00  0.00    -0.270 OA
BRANCH  30  33
ATOM     33  C   LIG    1        2.900  -5.239  -5.087  0.00  0.00    +0.138 C 
BRANCH  33  34
ATOM     34  C   LIG    1        2.212  -3.907  -4.910  0.00  0.00    +0.157 C 
BRANCH  34  35
ATOM     35  O   LIG    1        2.945  -3.101  -3.968  0.00  0.00    -0.388 OA
ATOM     36  H   LIG    1        2.887  -3.556  -3.102  0.00  0.00    +0.210 HD
ENDBRANCH  34  35
BRANCH  34  37
ATOM     37  C   LIG    1        0.808  -4.082  -4.388  0.00  0.00    +0.188 C 
BRANCH  37  38
ATOM     38  O   LIG    1        0.843  -4.663  -3.083  0.00  0.00    -0.392 OA
ATOM     39  H   LIG    1       -0.062  -4.584  -2.730  0.00  0.00    +0.209 HD
ENDBRANCH  37  38
ENDBRANCH  34  37
ENDBRANCH  33  34
ENDBRANCH  30  33
ENDBRANCH   4  29
TORSDOF 16
