REMARK  Name = *****
REMARK                            x       y       z     vdW  Elec       q    Type
REMARK                         _______ _______ _______ _____ _____    ______ ____
ROOT
ATOM      1  C   LIG    1        1.019   0.255  -0.718  0.00  0.00    +0.105 C 
ATOM      2  N   LIG    1        2.305   0.199  -0.024  0.00  0.00    -0.301 NA
ATOM      3  C   LIG    1        3.035  -1.050  -0.337  0.00  0.00    +0.116 C 
ATOM      4  C   LIG    1        3.804  -0.993  -1.617  0.00  0.00    -0.040 C 
ATOM      5  C   LIG    1        4.359  -2.215  -2.320  0.00  0.00    +0.077 C 
ATOM      6  C   LIG    1        5.001  -1.561  -3.527  0.00  0.00    -0.029 A 
ATOM      7  C   LIG    1        4.806  -0.169  -3.477  0.00  0.00    -0.018 A 
ATOM      8  C   LIG    1        5.295   0.653  -4.476  0.00  0.00    +0.008 A 
ATOM      9  C   LIG    1        5.986   0.065  -5.539  0.00  0.00    +0.001 A 
ATOM     10  C   LIG    1        6.177  -1.327  -5.591  0.00  0.00    +0.000 A 
ATOM     11  C   LIG    1        5.681  -2.153  -4.580  0.00  0.00    +0.005 A 
ATOM     12  C   LIG    1        4.063   0.152  -2.271  0.00  0.00    -0.037 C 
ATOM     13  C   LIG    1        3.647   1.489  -1.778  0.00  0.00    +0.051 C 
ATOM     14  C   LIG    1        3.137   1.386  -0.321  0.00  0.00    +0.089 C 
ENDROOT
BRANCH   5  15
ATOM     15  C   LIG    1        5.301  -3.038  -1.463  0.00  0.00    -0.036 A 
ATOM     16  C   LIG    1        6.525  -2.523  -1.003  0.00  0.00    +0.004 A 
ATOM     17  C   LIG    1        7.367  -3.296  -0.202  0.00  0.00    +0.000 A 
ATOM     18  C   LIG    1        6.997  -4.590   0.156  0.00  0.00    +0.000 A 
ATOM     19  C   LIG    1        5.785  -5.113  -0.287  0.00  0.00    +0.000 A 
ATOM     20  C   LIG    1        4.941  -4.342  -1.090  0.00  0.00    +0.004 A 
ENDBRANCH   5  15
TORSDOF 1
