REMARK  Name = *****
REMARK                            x       y       z     vdW  Elec       q    Type
REMARK                         _______ _______ _______ _____ _____    ______ ____
ROOT
ATOM      1  O   LIG    1        4.186   0.066  -4.588  0.00  0.00    -0.459 OA
ENDROOT
BRANCH   1   2
ATOM      2  C   LIG    1        5.085  -0.702  -3.992  0.00  0.00    +0.340 C 
ATOM      3  O   LIG    1        5.714  -0.391  -2.998  0.00  0.00    -0.245 OA
BRANCH   2   4
ATOM      4  C   LIG    1        5.229  -2.020  -4.622  0.00  0.00    +0.066 A 
ATOM      5  C   LIG    1        5.833  -3.053  -3.904  0.00  0.00    +0.064 A 
ATOM      6  C   LIG    1        6.156  -4.271  -4.512  0.00  0.00    +0.166 A 
ATOM      7  C   LIG    1        5.822  -4.477  -5.870  0.00  0.00    +0.203 A 
ATOM      8  C   LIG    1        5.155  -3.449  -6.585  0.00  0.00    +0.166 A 
ATOM      9  C   LIG    1        4.874  -2.231  -5.958  0.00  0.00    +0.064 A 
BRANCH   6  10
ATOM     10  O   LIG    1        6.894  -5.224  -3.861  0.00  0.00    -0.491 OA
ATOM     11  C   LIG    1        6.851  -5.266  -2.437  0.00  0.00    +0.277 C 
ENDBRANCH   6  10
BRANCH   7  12
ATOM     12  O   LIG    1        6.161  -5.580  -6.617  0.00  0.00    -0.488 OA
ATOM     13  C   LIG    1        6.257  -6.851  -5.986  0.00  0.00    +0.277 C 
ENDBRANCH   7  12
BRANCH   8  14
ATOM     14  O   LIG    1        4.883  -3.655  -7.921  0.00  0.00    -0.491 OA
ATOM     15  C   LIG    1        3.772  -2.935  -8.457  0.00  0.00    +0.277 C 
ENDBRANCH   8  14
ENDBRANCH   2   4
ENDBRANCH   1   2
BRANCH   1  16
ATOM     16  C   LIG    1        3.857   1.361  -4.036  0.00  0.00    +0.259 C 
BRANCH  16  17
ATOM     17  C   LIG    1        4.027   2.572  -5.059  0.00  0.00    +0.081 C 
BRANCH  17  18
ATOM     18  C   LIG    1        3.084   2.393  -6.318  0.00  0.00    -0.024 A 
ATOM     19  C   LIG    1        2.624   3.498  -7.059  0.00  0.00    +0.005 A 
ATOM     20  C   LIG    1        1.791   3.350  -8.184  0.00  0.00    +0.000 A 
ATOM     21  C   LIG    1        1.399   2.089  -8.618  0.00  0.00    +0.000 A 
ATOM     22  C   LIG    1        1.837   0.977  -7.922  0.00  0.00    +0.000 A 
ATOM     23  C   LIG    1        2.663   1.133  -6.799  0.00  0.00    +0.005 A 
ENDBRANCH  17  18
BRANCH  17  24
ATOM     24  N   LIG    1        3.752   3.873  -4.326  0.00  0.00    -0.296 NA
ATOM     25  C   LIG    1        4.694   4.235  -3.259  0.00  0.00    +0.105 C 
ATOM     26  C   LIG    1        2.376   4.071  -3.856  0.00  0.00    +0.105 C 
ENDBRANCH  17  24
BRANCH  17  28
ATOM     27  C   LIG    1        6.028   3.675  -6.466  0.00  0.00    +0.006 C 
ATOM     28  C   LIG    1        5.533   2.545  -5.560  0.00  0.00    +0.027 C 
ENDBRANCH  17  28
ENDBRANCH  16  17
ENDBRANCH   1  16
TORSDOF 10
