REMARK  Name = *****
REMARK                            x       y       z     vdW  Elec       q    Type
REMARK                         _______ _______ _______ _____ _____    ______ ____
ROOT
ATOM      1  C   LIG    1        7.580   3.778   0.334  0.00  0.00    +0.242 A 
ATOM      2  C   LIG    1        8.955   4.013   0.578  0.00  0.00    +0.063 A 
ATOM      3  C   LIG    1        9.032   5.400   0.759  0.00  0.00    +0.073 A 
ATOM      4  C   LIG    1       10.240   6.055   1.032  0.00  0.00    +0.028 A 
ATOM      5  C   LIG    1       11.395   5.273   1.107  0.00  0.00    +0.002 A 
ATOM      6  C   LIG    1       11.341   3.889   0.939  0.00  0.00    +0.001 A 
ATOM      7  N   LIG    1        7.740   5.854   0.647  0.00  0.00    -0.256 N 
ATOM      8  C   LIG    1       10.122   3.241   0.679  0.00  0.00    +0.015 A 
ATOM      9  N   LIG    1        6.862   4.892   0.301  0.00  0.00    -0.132 NA
ENDROOT
BRANCH   1  10
ATOM     10  O   LIG    1        6.961   2.581   0.178  0.00  0.00    -0.475 OA
BRANCH  10  11
ATOM     11  C   LIG    1        5.544   2.692  -0.022  0.00  0.00    +0.232 C 
BRANCH  11  12
ATOM     12  C   LIG    1        4.867   1.397   0.405  0.00  0.00    +0.056 C 
BRANCH  12  13
ATOM     13  C   LIG    1        5.107   1.107   1.895  0.00  0.00    +0.087 C 
BRANCH  13  15
ATOM     14  C   LIG    1        4.876  -1.296   1.668  0.00  0.00    +0.104 C 
ATOM     15  N   LIG    1        4.399  -0.100   2.363  0.00  0.00    -0.308 NA
ATOM     16  C   LIG    1        4.586  -0.267   3.809  0.00  0.00    +0.104 C 
ENDBRANCH  13  15
ENDBRANCH  12  13
ENDBRANCH  11  12
ENDBRANCH  10  11
ENDBRANCH   1  10
BRANCH   7  17
ATOM     17  C   LIG    1        7.234   7.191   0.926  0.00  0.00    +0.179 C 
BRANCH  17  18
ATOM     18  C   LIG    1        6.891   7.404   2.386  0.00  0.00    -0.026 A 
ATOM     19  C   LIG    1        6.435   6.366   3.217  0.00  0.00    +0.005 A 
ATOM     20  C   LIG    1        6.122   6.601   4.556  0.00  0.00    +0.000 A 
ATOM     21  C   LIG    1        6.237   7.883   5.082  0.00  0.00    +0.000 A 
ATOM     22  C   LIG    1        6.654   8.932   4.265  0.00  0.00    +0.000 A 
ATOM     23  C   LIG    1        6.972   8.697   2.925  0.00  0.00    +0.005 A 
ENDBRANCH  17  18
ENDBRANCH   7  17
TORSDOF 7
