REMARK  Name = *****
REMARK                            x       y       z     vdW  Elec       q    Type
REMARK                         _______ _______ _______ _____ _____    ______ ____
ROOT
ATOM      1  C   LIG    1        3.009   1.364   1.208  0.00  0.00    +0.188 C 
ATOM      2  C   LIG    1        3.599   1.250   2.482  0.00  0.00    +0.123 C 
ATOM      3  N   LIG    1        3.778  -0.025   3.123  0.00  0.00    -0.208 NA
ATOM      4  C   LIG    1        4.340  -0.072   4.293  0.00  0.00    +0.236 C 
ATOM      5  N   LIG    1        4.760   1.069   4.926  0.00  0.00    -0.293 N 
ATOM      6  C   LIG    1        4.672   2.325   4.398  0.00  0.00    +0.141 C 
ATOM      7  N   LIG    1        5.165   3.322   5.090  0.00  0.00    -0.265 NA
ATOM      8  C   LIG    1        5.753   2.634   6.280  0.00  0.00    +0.165 C 
ATOM      9  C   LIG    1        5.182   1.204   6.297  0.00  0.00    +0.150 C 
ATOM     10  C   LIG    1        4.021   2.454   3.095  0.00  0.00    +0.046 C 
ATOM     11  C   LIG    1        3.847   3.710   2.515  0.00  0.00    +0.017 C 
ATOM     12  C   LIG    1        3.251   3.802   1.265  0.00  0.00    +0.050 C 
ATOM     13  C   LIG    1        2.865   2.637   0.597  0.00  0.00    +0.164 C 
ENDROOT
BRANCH   1  15
ATOM     14  C   LIG    1        2.081  -0.830   1.058  0.00  0.00    +0.277 C 
ATOM     15  O   LIG    1        2.602   0.317   0.413  0.00  0.00    -0.489 OA
ENDBRANCH   1  15
BRANCH   4  16
ATOM     16  N   LIG    1        4.475  -1.286   4.922  0.00  0.00    -0.176 NA
ATOM     17  C   LIG    1        4.553  -2.426   4.329  0.00  0.00    +0.226 C 
BRANCH  17  18
ATOM     18  C   LIG    1        4.630  -2.918   2.942  0.00  0.00    +0.073 A 
ATOM     19  C   LIG    1        5.226  -2.252   1.905  0.00  0.00    +0.129 A 
ATOM     20  N   LIG    1        5.203  -2.685   0.613  0.00  0.00    -0.222 NA
ATOM     21  C   LIG    1        4.575  -3.840   0.371  0.00  0.00    +0.212 A 
ATOM     22  N   LIG    1        4.017  -4.601   1.313  0.00  0.00    -0.222 NA
ATOM     23  C   LIG    1        4.072  -4.130   2.583  0.00  0.00    +0.129 A 
BRANCH  21  24
ATOM     24  N   LIG    1        4.386  -4.217  -0.943  0.00  0.00    -0.328 N 
ATOM     25  H   LIG    1        4.337  -3.388  -1.521  0.00  0.00    +0.145 HD
ATOM     26  H   LIG    1        3.591  -4.844  -0.994  0.00  0.00    +0.145 HD
ENDBRANCH  21  24
ENDBRANCH  17  18
BRANCH  17  27
ATOM     27  O   LIG    1        4.599  -3.490   5.158  0.00  0.00    -0.492 OA
ATOM     28  H   LIG    1        4.523  -3.158   6.066  0.00  0.00    +0.294 HD
ENDBRANCH  17  27
ENDBRANCH   4  16
BRANCH  13  29
ATOM     29  O   LIG    1        2.276   2.656  -0.643  0.00  0.00    -0.488 OA
BRANCH  29  30
ATOM     30  C   LIG    1        2.623   3.735  -1.516  0.00  0.00    +0.230 C 
BRANCH  30  31
ATOM     31  C   LIG    1        2.410   3.229  -2.939  0.00  0.00    +0.056 C 
BRANCH  31  32
ATOM     32  C   LIG    1        2.763   4.274  -4.003  0.00  0.00    +0.088 C 
BRANCH  32  33
ATOM     33  N   LIG    1        2.600   3.773  -5.380  0.00  0.00    -0.298 NA
ATOM     34  C   LIG    1        1.228   3.326  -5.705  0.00  0.00    +0.112 C 
ATOM     35  C   LIG    1        0.224   4.480  -5.843  0.00  0.00    +0.175 C 
ATOM     36  O   LIG    1        0.642   5.404  -6.855  0.00  0.00    -0.377 OA
ATOM     37  C   LIG    1        1.949   5.918  -6.571  0.00  0.00    +0.175 C 
ATOM     38  C   LIG    1        2.984   4.791  -6.386  0.00  0.00    +0.112 C 
ENDBRANCH  32  33
ENDBRANCH  31  32
ENDBRANCH  30  31
ENDBRANCH  29  30
ENDBRANCH  13  29
TORSDOF 10
