REMARK  Name = *****
REMARK                            x       y       z     vdW  Elec       q    Type
REMARK                         _______ _______ _______ _____ _____    ______ ____
ROOT
ATOM      1  C   LIG    1        1.381  -0.667   1.136  0.00  0.00    +0.024 C 
ATOM      2  C   LIG    1        2.171  -0.393  -0.149  0.00  0.00    +0.055 C 
ENDROOT
BRANCH   2   3
ATOM      3  N   LIG    1        2.526   1.044  -0.267  0.00  0.00    -0.312 NA
ATOM      4  H   LIG    1        1.679   1.609  -0.188  0.00  0.00    +0.122 HD
BRANCH   3   5
ATOM      5  C   LIG    1        3.529   1.490   0.717  0.00  0.00    +0.096 C 
BRANCH   5   6
ATOM      6  C   LIG    1        3.843   2.981   0.562  0.00  0.00    +0.133 C 
BRANCH   6   7
ATOM      7  C   LIG    1        4.871   3.405   1.525  0.00  0.00    +0.064 C 
ATOM      8  N   LIG    1        5.676   3.748   2.292  0.00  0.00    -0.197 NA
ENDBRANCH   6   7
ENDBRANCH   5   6
ENDBRANCH   3   5
ENDBRANCH   2   3
BRANCH   2   9
ATOM      9  C   LIG    1        1.331  -0.817  -1.389  0.00  0.00    +0.053 C 
BRANCH   9  10
ATOM     10  C   LIG    1        0.960  -2.288  -1.458  0.00  0.00    -0.046 A 
ATOM     11  C   LIG    1       -0.388  -2.681  -1.469  0.00  0.00    +0.003 A 
ATOM     12  C   LIG    1       -0.742  -4.031  -1.565  0.00  0.00    +0.000 A 
ATOM     13  C   LIG    1        0.247  -5.007  -1.649  0.00  0.00    +0.000 A 
ATOM     14  C   LIG    1        1.589  -4.634  -1.636  0.00  0.00    +0.000 A 
ATOM     15  C   LIG    1        1.944  -3.283  -1.546  0.00  0.00    +0.003 A 
ENDBRANCH   9  10
ENDBRANCH   2   9
TORSDOF 6
