REMARK  Name = *****
REMARK                            x       y       z     vdW  Elec       q    Type
REMARK                         _______ _______ _______ _____ _____    ______ ____
ROOT
ATOM      1  C   LIG    1        0.728 -16.474  -6.193  0.00  0.00    +0.017 C 
ATOM      2  C   LIG    1        1.283 -16.570  -7.507  0.00  0.00    +0.127 C 
ATOM      3  C   LIG    1        2.243 -15.656  -7.972  0.00  0.00    +0.069 C 
ATOM      4  C   LIG    1        2.603 -14.575  -7.194  0.00  0.00    +0.037 C 
ATOM      5  N   LIG    1        3.489 -13.553  -7.556  0.00  0.00    -0.325 NA
ATOM      6  C   LIG    1        3.466 -12.567  -6.428  0.00  0.00    +0.132 C 
ATOM      7  C   LIG    1        4.913 -12.556  -5.763  0.00  0.00    +0.220 C 
ATOM      8  C   LIG    1        4.958 -12.408  -4.202  0.00  0.00    +0.232 C 
ATOM      9  C   LIG    1        3.695 -11.693  -3.638  0.00  0.00    +0.045 C 
ATOM     10  C   LIG    1        2.506 -12.656  -4.015  0.00  0.00    +0.083 C 
ATOM     11  N   LIG    1        1.302 -11.979  -3.534  0.00  0.00    -0.294 NA
ATOM     12  C   LIG    1        1.163 -12.122  -2.095  0.00  0.00    +0.112 C 
ATOM     13  C   LIG    1        2.488 -11.788  -1.423  0.00  0.00    -0.015 C 
ATOM     14  C   LIG    1        0.206 -12.246  -4.427  0.00  0.00    +0.086 C 
ATOM     15  C   LIG    1        0.946 -12.210  -5.773  0.00  0.00    +0.030 C 
ATOM     16  C   LIG    1        3.638 -11.578  -2.102  0.00  0.00    -0.018 C 
ATOM     17  C   LIG    1        2.280 -12.963  -5.493  0.00  0.00    +0.037 C 
ATOM     18  C   LIG    1        3.489 -13.079  -8.934  0.00  0.00    +0.130 C 
ATOM     19  C   LIG    1        2.030 -14.408  -5.935  0.00  0.00    -0.016 C 
ATOM     20  C   LIG    1        1.145 -15.367  -5.408  0.00  0.00    +0.014 C 
ENDROOT
BRANCH   1  27
ATOM     21  C   LIG    1       -3.881 -18.636  -2.324  0.00  0.00    -0.059 C 
ATOM     22  C   LIG    1       -4.459 -19.276  -3.612  0.00  0.00    +0.115 C 
ATOM     23  N   LIG    1       -3.495 -19.595  -4.674  0.00  0.00    -0.294 NA
ATOM     24  C   LIG    1       -3.686 -18.934  -5.974  0.00  0.00    +0.122 C 
ATOM     25  C   LIG    1       -3.155 -17.514  -6.196  0.00  0.00    -0.004 C 
ATOM     26  C   LIG    1       -1.843 -16.965  -6.208  0.00  0.00    +0.043 C 
ATOM     27  C   LIG    1       -0.424 -17.476  -5.719  0.00  0.00    +0.136 C 
ATOM     28  C   LIG    1       -0.515 -17.621  -4.081  0.00  0.00    +0.038 C 
ATOM     29  C   LIG    1       -1.883 -18.177  -3.604  0.00  0.00    +0.027 C 
ATOM     30  N   LIG    1       -1.978 -15.656  -6.627  0.00  0.00    -0.356 NA
ATOM     31  H   LIG    1       -1.209 -15.023  -6.799  0.00  0.00    +0.166 HD
ATOM     32  C   LIG    1       -3.286 -15.256  -6.595  0.00  0.00    +0.047 C 
ATOM     33  C   LIG    1       -3.840 -13.981  -6.754  0.00  0.00    +0.026 C 
ATOM     34  C   LIG    1       -5.227 -13.860  -6.632  0.00  0.00    +0.002 C 
ATOM     35  C   LIG    1       -6.024 -14.975  -6.394  0.00  0.00    +0.001 C 
ATOM     36  C   LIG    1       -5.451 -16.244  -6.269  0.00  0.00    +0.010 C 
ATOM     37  C   LIG    1       -4.050 -16.391  -6.354  0.00  0.00    +0.004 C 
ATOM     38  C   LIG    1       -2.147 -19.584  -4.148  0.00  0.00    +0.092 C 
ATOM     39  C   LIG    1       -2.609 -18.147  -2.277  0.00  0.00    -0.022 C 
BRANCH  21  41
ATOM     40  C   LIG    1       -5.697 -17.412  -1.085  0.00  0.00    +0.008 C 
ATOM     41  C   LIG    1       -4.829 -18.659  -1.151  0.00  0.00    +0.028 C 
ENDBRANCH  21  41
BRANCH  27  42
ATOM     42  C   LIG    1       -0.078 -18.890  -6.316  0.00  0.00    +0.324 C 
ATOM     43  O   LIG    1        0.928 -19.535  -6.026  0.00  0.00    -0.249 OA
BRANCH  42  44
ATOM     44  O   LIG    1       -1.031 -19.337  -7.182  0.00  0.00    -0.467 OA
ATOM     45  C   LIG    1       -0.921 -20.672  -7.678  0.00  0.00    +0.280 C 
ENDBRANCH  42  44
ENDBRANCH  27  42
ENDBRANCH   1  27
BRANCH   2  46
ATOM     46  O   LIG    1        0.751 -17.503  -8.363  0.00  0.00    -0.495 OA
ATOM     47  C   LIG    1        1.639 -18.053  -9.334  0.00  0.00    +0.277 C 
ENDBRANCH   2  46
BRANCH   7  48
ATOM     48  O   LIG    1        5.576 -13.821  -6.090  0.00  0.00    -0.373 OA
ATOM     49  H   LIG    1        5.141 -14.118  -6.918  0.00  0.00    +0.211 HD
ENDBRANCH   7  48
BRANCH   7  50
ATOM     50  C   LIG    1        5.795 -11.491  -6.472  0.00  0.00    +0.345 C 
ATOM     51  O   LIG    1        6.942 -11.660  -6.861  0.00  0.00    -0.247 OA
BRANCH  50  52
ATOM     52  O   LIG    1        5.088 -10.355  -6.713  0.00  0.00    -0.466 OA
ATOM     53  C   LIG    1        5.457  -9.581  -7.857  0.00  0.00    +0.280 C 
ENDBRANCH  50  52
ENDBRANCH   7  50
BRANCH   9  54
ATOM     54  C   LIG    1        3.531 -10.218  -4.152  0.00  0.00    +0.013 C 
ATOM     55  C   LIG    1        4.622  -9.218  -3.751  0.00  0.00    +0.005 C 
ENDBRANCH   9  54
BRANCH   8  56
ATOM     56  O   LIG    1        4.927 -13.789  -3.686  0.00  0.00    -0.457 OA
BRANCH  56  57
ATOM     57  C   LIG    1        5.434 -14.101  -2.467  0.00  0.00    +0.304 C 
ATOM     58  O   LIG    1        6.064 -13.374  -1.742  0.00  0.00    -0.251 OA
ATOM     59  C   LIG    1        5.017 -15.518  -2.140  0.00  0.00    +0.136 C 
ENDBRANCH  56  57
ENDBRANCH   8  56
TORSDOF 11
