REMARK  Name = *****
REMARK                            x       y       z     vdW  Elec       q    Type
REMARK                         _______ _______ _______ _____ _____    ______ ____
ROOT
ATOM      1  C   LIG    1        1.125  -5.357  -5.471  0.00  0.00    +0.064 A 
ATOM      2  C   LIG    1        2.428  -5.328  -6.026  0.00  0.00    +0.049 A 
ATOM      3  I   LIG    1        2.833  -6.434  -7.821  0.00  0.00    -0.041 I 
ATOM      4  C   LIG    1        3.495  -4.789  -5.279  0.00  0.00    +0.065 A 
ATOM      5  C   LIG    1        3.314  -4.650  -3.885  0.00  0.00    +0.040 A 
ATOM      6  I   LIG    1        5.072  -4.997  -2.678  0.00  0.00    -0.042 I 
ATOM      7  C   LIG    1        2.019  -4.610  -3.314  0.00  0.00    +0.065 A 
ATOM      8  C   LIG    1        0.926  -4.824  -4.176  0.00  0.00    +0.049 A 
ATOM      9  I   LIG    1       -1.060  -4.079  -3.718  0.00  0.00    -0.041 I 
ENDROOT
BRANCH   1  11
ATOM     10  C   LIG    1       -0.462  -5.441  -7.380  0.00  0.00    +0.138 C 
ATOM     11  N   LIG    1        0.029  -6.012  -6.132  0.00  0.00    -0.271 N 
ATOM     12  C   LIG    1       -0.555  -7.130  -5.514  0.00  0.00    +0.245 C 
ATOM     13  O   LIG    1       -0.149  -7.588  -4.442  0.00  0.00    -0.273 OA
BRANCH  12  14
ATOM     14  C   LIG    1       -1.683  -7.833  -6.289  0.00  0.00    +0.252 C 
BRANCH  14  15
ATOM     15  O   LIG    1       -1.206  -8.843  -7.162  0.00  0.00    -0.386 OA
ATOM     16  H   LIG    1       -0.463  -8.475  -7.671  0.00  0.00    +0.210 HD
ENDBRANCH  14  15
ENDBRANCH  12  14
ENDBRANCH   1  11
BRANCH   4  17
ATOM     17  C   LIG    1        4.698  -4.168  -5.964  0.00  0.00    +0.246 C 
ATOM     18  N   LIG    1        5.095  -2.925  -5.478  0.00  0.00    -0.309 N 
ATOM     19  H   LIG    1        4.694  -2.569  -4.619  0.00  0.00    +0.149 HD
ATOM     20  O   LIG    1        5.248  -4.664  -6.938  0.00  0.00    -0.270 OA
BRANCH  18  21
ATOM     21  C   LIG    1        6.188  -2.156  -6.077  0.00  0.00    +0.138 C 
BRANCH  21  22
ATOM     22  C   LIG    1        5.762  -1.124  -7.147  0.00  0.00    +0.157 C 
BRANCH  22  23
ATOM     23  O   LIG    1        5.015  -1.728  -8.214  0.00  0.00    -0.388 OA
ATOM     24  H   LIG    1        5.435  -2.586  -8.416  0.00  0.00    +0.210 HD
ENDBRANCH  22  23
BRANCH  22  25
ATOM     25  C   LIG    1        7.020  -0.485  -7.762  0.00  0.00    +0.188 C 
BRANCH  25  26
ATOM     26  O   LIG    1        6.676   0.497  -8.736  0.00  0.00    -0.392 OA
ATOM     27  H   LIG    1        6.082   0.050  -9.369  0.00  0.00    +0.209 HD
ENDBRANCH  25  26
ENDBRANCH  22  25
ENDBRANCH  21  22
ENDBRANCH  18  21
ENDBRANCH   4  17
BRANCH   7  28
ATOM     28  C   LIG    1        1.824  -4.367  -1.850  0.00  0.00    +0.246 C 
ATOM     29  N   LIG    1        0.760  -4.997  -1.252  0.00  0.00    -0.309 N 
ATOM     30  H   LIG    1       -0.006  -5.303  -1.850  0.00  0.00    +0.149 HD
ATOM     31  O   LIG    1        2.601  -3.633  -1.223  0.00  0.00    -0.270 OA
BRANCH  29  32
ATOM     32  C   LIG    1        0.403  -4.777   0.141  0.00  0.00    +0.138 C 
BRANCH  32  33
ATOM     33  C   LIG    1       -0.888  -5.501   0.547  0.00  0.00    +0.157 C 
BRANCH  33  34
ATOM     34  O   LIG    1       -1.978  -5.045  -0.269  0.00  0.00    -0.388 OA
ATOM     35  H   LIG    1       -2.696  -5.700  -0.152  0.00  0.00    +0.210 HD
ENDBRANCH  33  34
BRANCH  33  36
ATOM     36  C   LIG    1       -0.786  -7.026   0.441  0.00  0.00    +0.188 C 
BRANCH  36  37
ATOM     37  O   LIG    1       -2.039  -7.601   0.827  0.00  0.00    -0.392 OA
ATOM     38  H   LIG    1       -2.141  -7.471   1.786  0.00  0.00    +0.209 HD
ENDBRANCH  36  37
ENDBRANCH  33  36
ENDBRANCH  32  33
ENDBRANCH  29  32
ENDBRANCH   7  28
TORSDOF 15
