REMARK  Name = *****
REMARK                            x       y       z     vdW  Elec       q    Type
REMARK                         _______ _______ _______ _____ _____    ______ ____
ROOT
ATOM      1  C   LIG    1       -1.935   2.095  -2.507  0.00  0.00    +0.080 A 
ATOM      2  C   LIG    1       -2.128   0.844  -3.123  0.00  0.00    +0.132 A 
ATOM      3  C   LIG    1       -2.955   0.752  -4.256  0.00  0.00    +0.048 A 
ATOM      4  C   LIG    1       -3.606   1.881  -4.762  0.00  0.00    +0.032 A 
ATOM      5  C   LIG    1       -3.433   3.112  -4.132  0.00  0.00    +0.106 A 
ATOM      6  C   LIG    1       -2.609   3.221  -3.007  0.00  0.00    +0.045 A 
ENDROOT
BRANCH   1   9
ATOM      7  N   LIG    1        0.032   1.488  -1.184  0.00  0.00    -0.310 N 
ATOM      8  H   LIG    1        0.144   0.758  -1.879  0.00  0.00    +0.149 HD
ATOM      9  C   LIG    1       -1.059   2.315  -1.310  0.00  0.00    +0.248 C 
ATOM     10  O   LIG    1       -1.316   3.224  -0.527  0.00  0.00    -0.270 OA
BRANCH   7  11
ATOM     11  C   LIG    1        0.997   1.555  -0.089  0.00  0.00    +0.123 C 
BRANCH  11  13
ATOM     12  N   LIG    1        1.990   0.231   1.855  0.00  0.00    -0.298 NA
ATOM     13  C   LIG    1        1.016   0.248   0.734  0.00  0.00    +0.074 C 
ATOM     14  C   LIG    1        1.418  -0.958  -0.134  0.00  0.00    +0.021 C 
ATOM     15  C   LIG    1        2.412  -1.755   0.693  0.00  0.00    +0.017 C 
ATOM     16  C   LIG    1        2.278  -1.190   2.090  0.00  0.00    +0.085 C 
BRANCH  12  18
ATOM     17  C   LIG    1        2.382   0.841   4.264  0.00  0.00    +0.020 C 
ATOM     18  C   LIG    1        1.446   0.885   3.057  0.00  0.00    +0.081 C 
ENDBRANCH  12  18
ENDBRANCH  11  13
ENDBRANCH   7  11
ENDBRANCH   1   9
BRANCH   5  19
ATOM     19  S   LIG    1       -4.266   4.527  -4.786  0.00  0.00    +0.056 S 
ATOM     20  O   LIG    1       -5.683   4.349  -4.582  0.00  0.00    -0.153 OA
ATOM     21  O   LIG    1       -3.690   4.830  -6.087  0.00  0.00    -0.153 OA
BRANCH  19  22
ATOM     22  N   LIG    1       -3.801   5.782  -3.777  0.00  0.00    -0.203 NA
ATOM     23  H   LIG    1       -4.607   6.152  -3.268  0.00  0.00    +0.144 HD
ATOM     24  H   LIG    1       -3.263   6.479  -4.287  0.00  0.00    +0.144 HD
ENDBRANCH  19  22
ENDBRANCH   5  19
BRANCH   2  25
ATOM     25  O   LIG    1       -1.453  -0.238  -2.616  0.00  0.00    -0.494 OA
ATOM     26  C   LIG    1       -2.115  -1.495  -2.736  0.00  0.00    +0.277 C 
ENDBRANCH   2  25
TORSDOF 7
