REMARK  Name = *****
REMARK                            x       y       z     vdW  Elec       q    Type
REMARK                         _______ _______ _______ _____ _____    ______ ____
ROOT
ATOM      1  C   LIG    1        1.010   1.305  -0.884  0.00  0.00    +0.046 C 
ATOM      2  C   LIG    1        2.082   0.567  -0.138  0.00  0.00    -0.022 A 
ATOM      3  C   LIG    1        2.249  -0.817  -0.266  0.00  0.00    +0.088 A 
ATOM      4  N   LIG    1        1.432  -1.560  -1.160  0.00  0.00    -0.319 N 
ATOM      5  H   LIG    1        2.051  -2.226  -1.622  0.00  0.00    +0.169 HD
ATOM      6  C   LIG    1        0.482  -2.288  -0.465  0.00  0.00    +0.260 A 
ATOM      7  C   LIG    1        0.943  -3.579   0.099  0.00  0.00    +0.082 A 
ATOM      8  C   LIG    1        2.281  -3.871   0.420  0.00  0.00    +0.148 A 
ATOM      9  N   LIG    1        3.361  -2.925   0.345  0.00  0.00    -0.305 N 
ATOM     10  N   LIG    1        2.596  -5.132   0.844  0.00  0.00    -0.237 NA
ATOM     11  C   LIG    1        1.625  -6.059   1.001  0.00  0.00    +0.113 A 
ATOM     12  C   LIG    1        0.295  -5.820   0.742  0.00  0.00    +0.021 A 
ATOM     13  C   LIG    1       -0.049  -4.560   0.280  0.00  0.00    +0.018 A 
ATOM     14  O   LIG    1       -0.681  -1.920  -0.345  0.00  0.00    -0.267 OA
ATOM     15  C   LIG    1        3.236  -1.499   0.468  0.00  0.00    +0.159 A 
ATOM     16  N   LIG    1        4.088  -0.812   1.271  0.00  0.00    -0.236 NA
ATOM     17  C   LIG    1        3.921   0.524   1.386  0.00  0.00    +0.113 A 
ATOM     18  C   LIG    1        2.943   1.245   0.722  0.00  0.00    +0.025 A 
ENDROOT
BRANCH   9  19
ATOM     19  C   LIG    1        4.704  -3.455   0.728  0.00  0.00    +0.091 C 
ATOM     20  C   LIG    1        5.955  -3.054  -0.018  0.00  0.00    +0.027 C 
ATOM     21  C   LIG    1        5.436  -4.452  -0.140  0.00  0.00    +0.027 C 
ENDBRANCH   9  19
TORSDOF 1
