REMARK  Name = *****
REMARK                            x       y       z     vdW  Elec       q    Type
REMARK                         _______ _______ _______ _____ _____    ______ ____
ROOT
ATOM      1  C   LIG    1        2.908  -0.918   1.374  0.00  0.00    -0.034 A 
ATOM      2  C   LIG    1        3.028  -0.423   2.681  0.00  0.00    +0.009 A 
ATOM      3  C   LIG    1        3.580  -1.211   3.703  0.00  0.00    -0.026 A 
ATOM      4  C   LIG    1        3.696  -0.664   5.099  0.00  0.00    +0.115 C 
ATOM      5  C   LIG    1        2.615  -1.174   6.019  0.00  0.00    +0.169 C 
ATOM      6  C   LIG    1        2.450  -2.640   6.306  0.00  0.00    +0.031 A 
ATOM      7  C   LIG    1        3.251  -3.687   5.807  0.00  0.00    +0.023 A 
ATOM      8  S   LIG    1        4.656  -3.552   4.703  0.00  0.00    -0.088 S 
ATOM      9  C   LIG    1        2.968  -5.009   6.210  0.00  0.00    +0.016 A 
ATOM     10  C   LIG    1        1.913  -5.301   7.074  0.00  0.00    +0.001 A 
ATOM     11  C   LIG    1        1.117  -4.274   7.557  0.00  0.00    +0.001 A 
ATOM     12  C   LIG    1        1.384  -2.959   7.177  0.00  0.00    +0.012 A 
ATOM     13  O   LIG    1        1.862  -0.367   6.571  0.00  0.00    -0.292 OA
ATOM     14  C   LIG    1        3.989  -2.519   3.419  0.00  0.00    +0.016 A 
ATOM     15  C   LIG    1        3.887  -3.011   2.116  0.00  0.00    +0.015 A 
ATOM     16  C   LIG    1        3.351  -2.219   1.099  0.00  0.00    +0.005 A 
ENDROOT
BRANCH   1  18
ATOM     17  C   LIG    1        0.904   0.358   0.559  0.00  0.00    +0.024 C 
ATOM     18  C   LIG    1        2.349  -0.048   0.256  0.00  0.00    +0.124 C 
BRANCH  18  19
ATOM     19  C   LIG    1        3.197   1.186  -0.057  0.00  0.00    +0.312 C 
ATOM     20  O   LIG    1        2.747   2.209  -0.556  0.00  0.00    -0.250 OA
BRANCH  19  21
ATOM     21  O   LIG    1        4.523   1.060   0.188  0.00  0.00    -0.480 OA
ATOM     22  H   LIG    1        4.787   0.208   0.584  0.00  0.00    +0.295 HD
ENDBRANCH  19  21
ENDBRANCH  18  19
ENDBRANCH   1  18
TORSDOF 3
