REMARK  Name = *****
REMARK                            x       y       z     vdW  Elec       q    Type
REMARK                         _______ _______ _______ _____ _____    ______ ____
ROOT
ATOM      1  C   LIG    1        3.084   2.193   0.971  0.00  0.00    +0.090 C 
ENDROOT
BRANCH   1   3
ATOM      2  C   LIG    1        3.333   0.529   2.953  0.00  0.00    +0.219 A 
ATOM      3  C   LIG    1        3.285   0.760   1.570  0.00  0.00    +0.025 A 
ATOM      4  C   LIG    1        3.567  -0.373   0.799  0.00  0.00    +0.019 A 
ATOM      5  C   LIG    1        3.797  -1.651   1.398  0.00  0.00    +0.002 A 
ATOM      6  C   LIG    1        3.786  -1.738   2.788  0.00  0.00    +0.075 A 
ATOM      7  C   LIG    1        4.041  -2.963   3.414  0.00  0.00    +0.029 A 
ATOM      8  C   LIG    1        4.274  -4.110   2.667  0.00  0.00    +0.017 A 
ATOM      9  C   LIG    1        4.265  -4.043   1.284  0.00  0.00    +0.019 A 
ATOM     10 BR   LIG    1        4.553  -5.601   0.246  0.00  0.00    -0.050 Br
ATOM     11  C   LIG    1        4.037  -2.808   0.653  0.00  0.00    +0.025 A 
ATOM     12  N   LIG    1        3.554  -0.675   3.535  0.00  0.00    -0.213 NA
BRANCH   2  14
ATOM     13  C   LIG    1        3.335   1.258   5.209  0.00  0.00    +0.278 C 
ATOM     14  O   LIG    1        3.168   1.587   3.825  0.00  0.00    -0.479 OA
ENDBRANCH   2  14
ENDBRANCH   1   3
BRANCH   1  15
ATOM     15  C   LIG    1        4.474   2.867   0.866  0.00  0.00    -0.037 A 
ATOM     16  C   LIG    1        4.988   3.561   1.979  0.00  0.00    +0.004 A 
ATOM     17  C   LIG    1        6.326   3.969   2.029  0.00  0.00    +0.000 A 
ATOM     18  C   LIG    1        7.168   3.729   0.949  0.00  0.00    +0.000 A 
ATOM     19  C   LIG    1        6.652   3.149  -0.205  0.00  0.00    +0.000 A 
ATOM     20  C   LIG    1        5.324   2.703  -0.239  0.00  0.00    +0.004 A 
ENDBRANCH   1  15
BRANCH   1  21
ATOM     21  C   LIG    1        2.063   2.386  -0.299  0.00  0.00    +0.103 C 
BRANCH  21  22
ATOM     22  C   LIG    1        1.999   3.885  -0.787  0.00  0.00    -0.007 A 
ATOM     23  C   LIG    1        1.080   4.892  -0.314  0.00  0.00    -0.012 A 
ATOM     24  C   LIG    1        1.020   6.157  -0.970  0.00  0.00    -0.018 A 
ATOM     25  C   LIG    1        0.022   7.102  -0.661  0.00  0.00    +0.008 A 
ATOM     26  C   LIG    1       -0.936   6.837   0.309  0.00  0.00    +0.001 A 
ATOM     27  C   LIG    1       -0.824   5.680   1.056  0.00  0.00    +0.001 A 
ATOM     28  C   LIG    1        1.969   6.499  -1.934  0.00  0.00    +0.008 A 
ATOM     29  C   LIG    1        2.921   5.577  -2.334  0.00  0.00    +0.001 A 
ATOM     30  C   LIG    1        0.200   4.764   0.787  0.00  0.00    +0.009 A 
ATOM     31  C   LIG    1        2.892   4.282  -1.819  0.00  0.00    +0.007 A 
ENDBRANCH  21  22
BRANCH  21  32
ATOM     32  O   LIG    1        2.555   1.607  -1.423  0.00  0.00    -0.383 OA
ATOM     33  H   LIG    1        2.269   0.688  -1.300  0.00  0.00    +0.211 HD
ENDBRANCH  21  32
BRANCH  21  34
ATOM     34  C   LIG    1        0.651   1.755   0.037  0.00  0.00    +0.056 C 
BRANCH  34  35
ATOM     35  C   LIG    1       -0.420   1.800  -1.087  0.00  0.00    +0.087 C 
BRANCH  35  36
ATOM     36  N   LIG    1       -1.748   1.254  -0.693  0.00  0.00    -0.308 NA
ATOM     37  C   LIG    1       -1.686  -0.128  -0.219  0.00  0.00    +0.104 C 
ATOM     38  C   LIG    1       -2.683   1.339  -1.825  0.00  0.00    +0.104 C 
ENDBRANCH  35  36
ENDBRANCH  34  35
ENDBRANCH  21  34
ENDBRANCH   1  21
TORSDOF 9
