REMARK  Name = *****
REMARK                            x       y       z     vdW  Elec       q    Type
REMARK                         _______ _______ _______ _____ _____    ______ ____
ROOT
ATOM      1  C   LIG    1        5.705   6.154  -6.858  0.00  0.00    -0.021 C 
ATOM      2  C   LIG    1        4.678   5.530  -6.226  0.00  0.00    -0.035 C 
ATOM      3  C   LIG    1        4.669   4.028  -5.985  0.00  0.00    +0.059 C 
ATOM      4  C   LIG    1        4.448   3.591  -4.516  0.00  0.00    +0.085 C 
ATOM      5  C   LIG    1        4.277   2.083  -4.449  0.00  0.00    -0.011 C 
ATOM      6  C   LIG    1        3.817   1.370  -5.482  0.00  0.00    +0.009 C 
ATOM      7  C   LIG    1        3.409   2.009  -6.735  0.00  0.00    +0.051 C 
ATOM      8  S   LIG    1        2.994   4.315  -3.690  0.00  0.00    -0.116 S 
ATOM      9  C   LIG    1        2.788   5.866  -4.549  0.00  0.00    +0.016 A 
ATOM     10  C   LIG    1        1.747   6.669  -4.042  0.00  0.00    +0.015 A 
ATOM     11  C   LIG    1        1.431   7.897  -4.618  0.00  0.00    +0.001 A 
ATOM     12  C   LIG    1        2.143   8.331  -5.724  0.00  0.00    +0.001 A 
ATOM     13  C   LIG    1        3.177   7.544  -6.238  0.00  0.00    +0.009 A 
ATOM     14  C   LIG    1        3.792   3.279  -6.969  0.00  0.00    -0.005 C 
ATOM     15  C   LIG    1        3.544   6.312  -5.652  0.00  0.00    -0.008 A 
ENDROOT
BRANCH   7  16
ATOM     16  C   LIG    1        2.633   1.202  -7.749  0.00  0.00    +0.417 C 
ATOM     17  F   LIG    1        3.295   1.136  -8.935  0.00  0.00    -0.166 F 
ATOM     18  F   LIG    1        1.419   1.749  -8.010  0.00  0.00    -0.166 F 
ATOM     19  F   LIG    1        2.412  -0.080  -7.360  0.00  0.00    -0.166 F 
ENDBRANCH   7  16
BRANCH   1  20
ATOM     20  C   LIG    1        6.952   5.487  -7.389  0.00  0.00    +0.043 C 
BRANCH  20  21
ATOM     21  C   LIG    1        7.665   6.202  -8.562  0.00  0.00    +0.088 C 
BRANCH  21  25
ATOM     22  N   LIG    1       11.377   7.235  -8.934  0.00  0.00    -0.298 NA
ATOM     23  C   LIG    1       10.371   7.295 -10.022  0.00  0.00    +0.100 C 
ATOM     24  C   LIG    1        9.486   6.032 -10.209  0.00  0.00    +0.100 C 
ATOM     25  N   LIG    1        8.885   5.476  -8.975  0.00  0.00    -0.300 NA
ATOM     26  C   LIG    1        9.921   5.416  -7.923  0.00  0.00    +0.100 C 
ATOM     27  C   LIG    1       10.712   6.726  -7.721  0.00  0.00    +0.100 C 
BRANCH  22  28
ATOM     28  C   LIG    1       12.568   6.450  -9.321  0.00  0.00    +0.112 C 
BRANCH  28  29
ATOM     29  C   LIG    1       13.711   6.495  -8.283  0.00  0.00    +0.171 C 
BRANCH  29  30
ATOM     30  O   LIG    1       14.848   5.769  -8.746  0.00  0.00    -0.394 OA
ATOM     31  H   LIG    1       15.523   5.838  -8.047  0.00  0.00    +0.209 HD
ENDBRANCH  29  30
ENDBRANCH  28  29
ENDBRANCH  22  28
ENDBRANCH  21  25
ENDBRANCH  20  21
ENDBRANCH   1  20
TORSDOF 7
