REMARK  Name = *****
REMARK                            x       y       z     vdW  Elec       q    Type
REMARK                         _______ _______ _______ _____ _____    ______ ____
ROOT
ATOM      1  C   LIG    1        0.800  -0.002   0.067  0.00  0.00    +0.008 C 
ATOM      2  C   LIG    1        2.264  -0.048   0.521  0.00  0.00    -0.008 C 
ATOM      3  C   LIG    1        2.494  -0.453   2.009  0.00  0.00    +0.032 C 
ATOM      4  C   LIG    1        3.096  -1.886   2.421  0.00  0.00    +0.161 C 
ATOM      5  C   LIG    1        2.474  -2.811   3.560  0.00  0.00    +0.292 C 
ATOM      6  O   LIG    1        2.536  -2.273   4.887  0.00  0.00    -0.314 OA
ATOM      7  C   LIG    1        2.713  -0.877   4.885  0.00  0.00    +0.203 C 
ATOM      8  O   LIG    1        3.905  -0.470   4.179  0.00  0.00    -0.199 OA
ATOM      9  C   LIG    1        1.390  -0.314   4.347  0.00  0.00    +0.068 C 
ATOM     10  C   LIG    1        2.860  -0.378   6.324  0.00  0.00    +0.077 C 
ATOM     11  O   LIG    1        3.166  -4.057   3.772  0.00  0.00    -0.320 OA
ATOM     12  C   LIG    1        3.555  -4.807   2.656  0.00  0.00    +0.253 C 
ATOM     13  C   LIG    1        2.992  -4.262   1.354  0.00  0.00    +0.048 C 
ATOM     14  C   LIG    1        3.328  -5.222   0.208  0.00  0.00    +0.013 C 
ATOM     15  C   LIG    1        3.473  -2.788   1.167  0.00  0.00    +0.037 C 
ATOM     16  C   LIG    1        2.909  -2.321  -0.183  0.00  0.00    +0.007 C 
ATOM     17  O   LIG    1        4.316  -1.508   3.158  0.00  0.00    -0.220 OA
ATOM     18  C   LIG    1        1.397   0.125   2.907  0.00  0.00    +0.012 C 
ATOM     19  C   LIG    1        3.123  -0.854  -0.430  0.00  0.00    +0.004 C 
ENDROOT
BRANCH  12  20
ATOM     20  O   LIG    1        4.967  -4.829   2.609  0.00  0.00    -0.367 OA
ATOM     21  H   LIG    1        5.236  -4.059   3.167  0.00  0.00    +0.212 HD
ENDBRANCH  12  20
TORSDOF 1
