REMARK  Name = *****
REMARK                            x       y       z     vdW  Elec       q    Type
REMARK                         _______ _______ _______ _____ _____    ______ ____
ROOT
ATOM      1  N   LIG    1        1.841  -3.200  -0.912  0.00  0.00    -0.302 NA
ATOM      2  C   LIG    1        2.911  -3.021  -1.900  0.00  0.00    +0.085 C 
ATOM      3  C   LIG    1        3.905  -4.181  -1.967  0.00  0.00    +0.025 C 
ATOM      4  C   LIG    1        3.203  -5.514  -2.254  0.00  0.00    +0.044 C 
ATOM      5  C   LIG    1        2.038  -5.705  -1.268  0.00  0.00    +0.025 C 
ATOM      6  C   LIG    1        1.130  -4.470  -1.141  0.00  0.00    +0.085 C 
ENDROOT
BRANCH   4   7
ATOM      7  C   LIG    1        2.819  -5.661  -3.708  0.00  0.00    +0.095 A 
ATOM      8  C   LIG    1        3.635  -6.095  -4.794  0.00  0.00    +0.045 A 
ATOM      9  C   LIG    1        2.790  -6.034  -5.890  0.00  0.00    +0.170 A 
ATOM     10  C   LIG    1        3.149  -6.369  -7.190  0.00  0.00    +0.088 A 
ATOM     11  C   LIG    1        4.464  -6.792  -7.358  0.00  0.00    +0.127 A 
ATOM     12  C   LIG    1        5.360  -6.872  -6.291  0.00  0.00    +0.039 A 
ATOM     13  F   LIG    1        4.883  -7.133  -8.584  0.00  0.00    -0.205 F 
ATOM     14  O   LIG    1        1.568  -5.600  -5.492  0.00  0.00    -0.354 OA
ATOM     15  C   LIG    1        4.961  -6.524  -4.990  0.00  0.00    +0.016 A 
ATOM     16  N   LIG    1        1.581  -5.368  -4.132  0.00  0.00    -0.082 NA
ENDBRANCH   4   7
BRANCH   1  17
ATOM     17  C   LIG    1        2.224  -3.023   0.501  0.00  0.00    +0.089 C 
BRANCH  17  18
ATOM     18  C   LIG    1        2.945  -1.693   0.803  0.00  0.00    +0.058 C 
BRANCH  18  21
ATOM     19  C   LIG    1        1.254  -0.221   2.887  0.00  0.00    +0.066 C 
ATOM     20  C   LIG    1        2.593  -0.843   3.185  0.00  0.00    +0.049 C 
ATOM     21  C   LIG    1        3.306  -1.505   2.257  0.00  0.00    +0.039 C 
ATOM     22  C   LIG    1        4.630  -2.041   2.677  0.00  0.00    +0.258 C 
ATOM     23  O   LIG    1        5.273  -2.759   1.921  0.00  0.00    -0.267 OA
ATOM     24  N   LIG    1        5.059  -1.686   3.946  0.00  0.00    -0.296 N 
ATOM     25  C   LIG    1        6.335  -2.249   4.375  0.00  0.00    +0.126 C 
ATOM     26  C   LIG    1        6.893  -1.648   5.654  0.00  0.00    +0.022 C 
ATOM     27  C   LIG    1        5.798  -1.606   6.702  0.00  0.00    +0.009 C 
ATOM     28  C   LIG    1        4.680  -0.711   6.206  0.00  0.00    +0.074 C 
ATOM     29  C   LIG    1        4.203  -1.048   4.805  0.00  0.00    +0.113 C 
ATOM     30  N   LIG    1        3.019  -0.645   4.473  0.00  0.00    -0.238 NA
ENDBRANCH  18  21
ENDBRANCH  17  18
ENDBRANCH   1  17
TORSDOF 4
