REMARK  Name = *****
REMARK                            x       y       z     vdW  Elec       q    Type
REMARK                         _______ _______ _______ _____ _____    ______ ____
ROOT
ATOM      1  C   LIG    1        4.866   0.594   1.378  0.00  0.00    +0.175 C 
ENDROOT
BRANCH   1   3
ATOM      2  O   LIG    1        7.247   0.245   1.174  0.00  0.00    -0.250 OA
ATOM      3  C   LIG    1        6.330   0.859   1.700  0.00  0.00    +0.319 C 
BRANCH   3   4
ATOM      4  O   LIG    1        6.547   1.861   2.582  0.00  0.00    -0.480 OA
ATOM      5  H   LIG    1        5.715   2.232   2.949  0.00  0.00    +0.295 HD
ENDBRANCH   3   4
ENDBRANCH   1   3
BRANCH   1   6
ATOM      6  S   LIG    1        3.838   0.888   2.878  0.00  0.00    -0.162 S 
ATOM      7  H   LIG    1        4.416  -0.044   3.656  0.00  0.00    +0.102 HD
ENDBRANCH   1   6
BRANCH   1   8
ATOM      8  C   LIG    1        4.718  -0.785   0.710  0.00  0.00    +0.175 C 
BRANCH   8   9
ATOM      9  S   LIG    1        2.993  -1.082   0.126  0.00  0.00    -0.162 S 
ATOM     10  H   LIG    1        2.445  -1.203   1.350  0.00  0.00    +0.102 HD
ENDBRANCH   8   9
BRANCH   8  11
ATOM     11  C   LIG    1        5.168  -1.941   1.601  0.00  0.00    +0.319 C 
ATOM     12  O   LIG    1        4.426  -2.577   2.337  0.00  0.00    -0.250 OA
BRANCH  11  13
ATOM     13  O   LIG    1        6.496  -2.200   1.560  0.00  0.00    -0.480 OA
ATOM     14  H   LIG    1        7.055  -1.553   1.065  0.00  0.00    +0.295 HD
ENDBRANCH  11  13
ENDBRANCH   8  11
ENDBRANCH   1   8
TORSDOF 7
