REMARK  Name = *****
REMARK                            x       y       z     vdW  Elec       q    Type
REMARK                         _______ _______ _______ _____ _____    ______ ____
ROOT
ATOM      1  S   LIG    1        7.587   0.446   0.002  0.00  0.00    +0.075 S 
ATOM      2  O   LIG    1        7.177   0.046  -1.330  0.00  0.00    -0.150 OA
ATOM      3  O   LIG    1        7.362  -0.387   1.161  0.00  0.00    -0.150 OA
ENDROOT
BRANCH   1   4
ATOM      4  C   LIG    1        9.326   0.812  -0.067  0.00  0.00    +0.109 A 
ATOM      5  C   LIG    1       10.096   0.734   1.097  0.00  0.00    +0.030 A 
ATOM      6  C   LIG    1       11.459   1.042   1.040  0.00  0.00    +0.024 A 
ATOM      7  C   LIG    1       12.071   1.361  -0.176  0.00  0.00    +0.025 A 
ATOM      8  C   LIG    1       11.278   1.464  -1.324  0.00  0.00    +0.024 A 
ATOM      9  C   LIG    1        9.913   1.165  -1.282  0.00  0.00    +0.030 A 
BRANCH   7  10
ATOM     10  N   LIG    1       13.402   1.794  -0.199  0.00  0.00    -0.358 N 
ATOM     11  H   LIG    1       13.971   1.412   0.551  0.00  0.00    +0.142 HD
ATOM     12  H   LIG    1       13.852   1.696  -1.104  0.00  0.00    +0.142 HD
ENDBRANCH   7  10
ENDBRANCH   1   4
BRANCH   1  13
ATOM     13  N   LIG    1        6.957   1.999   0.370  0.00  0.00    -0.183 N 
ATOM     14  H   LIG    1        6.997   2.041   1.392  0.00  0.00    +0.177 HD
BRANCH  13  19
ATOM     15  C   LIG    1        2.563   2.587  -1.993  0.00  0.00    +0.069 C 
ATOM     16  C   LIG    1        3.649   2.329  -1.017  0.00  0.00    +0.085 A 
ATOM     17  C   LIG    1        5.051   2.517  -1.183  0.00  0.00    +0.035 A 
ATOM     18  C   LIG    1        5.747   3.087  -2.358  0.00  0.00    +0.051 C 
ATOM     19  C   LIG    1        5.577   2.060   0.006  0.00  0.00    +0.240 A 
ATOM     20  O   LIG    1        4.567   1.727   0.851  0.00  0.00    -0.338 OA
ATOM     21  N   LIG    1        3.355   1.875   0.207  0.00  0.00    -0.081 NA
ENDBRANCH  13  19
ENDBRANCH   1  13
TORSDOF 4
