REMARK  Name = *****
REMARK                            x       y       z     vdW  Elec       q    Type
REMARK                         _______ _______ _______ _____ _____    ______ ____
ROOT
ATOM      1  S   LIG    1        3.243  -7.560  -1.054  0.00  0.00    +0.095 S 
ATOM      2  O   LIG    1        2.318  -7.694  -2.235  0.00  0.00    -0.249 OA
ENDROOT
BRANCH   1   8
ATOM      3  C   LIG    1        3.956  -1.369  -1.405  0.00  0.00    +0.122 A 
ATOM      4  C   LIG    1        3.221  -2.426  -1.952  0.00  0.00    +0.073 A 
ATOM      5  C   LIG    1        3.446  -3.696  -1.416  0.00  0.00    +0.070 A 
ATOM      6  C   LIG    1        4.357  -3.949  -0.398  0.00  0.00    +0.090 A 
ATOM      7  N   LIG    1        4.392  -5.287  -0.088  0.00  0.00    -0.220 NA
ATOM      8  C   LIG    1        3.526  -5.849  -0.913  0.00  0.00    +0.198 A 
ATOM      9  C   LIG    1        5.098  -2.882   0.134  0.00  0.00    +0.033 A 
ATOM     10  N   LIG    1        2.916  -4.923  -1.705  0.00  0.00    -0.331 N 
ATOM     11  H   LIG    1        2.236  -5.146  -2.427  0.00  0.00    +0.168 HD
ATOM     12  C   LIG    1        4.895  -1.597  -0.391  0.00  0.00    +0.048 A 
BRANCH   3  14
ATOM     13  C   LIG    1        2.590   0.288  -2.382  0.00  0.00    +0.277 C 
ATOM     14  O   LIG    1        3.852  -0.065  -1.822  0.00  0.00    -0.495 OA
ENDBRANCH   3  14
ENDBRANCH   1   8
BRANCH   1  15
ATOM     15  C   LIG    1        4.938  -7.969  -1.558  0.00  0.00    +0.167 C 
BRANCH  15  16
ATOM     16  C   LIG    1        5.155  -9.441  -1.793  0.00  0.00    +0.060 A 
ATOM     17  C   LIG    1        5.041 -10.066  -3.044  0.00  0.00    +0.014 A 
ATOM     18  C   LIG    1        4.548  -9.351  -4.276  0.00  0.00    +0.049 C 
ATOM     19  C   LIG    1        5.372 -11.443  -3.143  0.00  0.00    +0.129 A 
ATOM     20  C   LIG    1        5.746 -12.157  -2.000  0.00  0.00    +0.009 A 
ATOM     21  C   LIG    1        6.062 -13.619  -1.942  0.00  0.00    +0.049 C 
ATOM     22  C   LIG    1        5.809 -11.438  -0.812  0.00  0.00    +0.118 A 
ATOM     23  N   LIG    1        5.535 -10.124  -0.685  0.00  0.00    -0.258 NA
BRANCH  19  24
ATOM     24  O   LIG    1        5.183 -11.981  -4.393  0.00  0.00    -0.494 OA
ATOM     25  C   LIG    1        6.117 -12.936  -4.875  0.00  0.00    +0.277 C 
ENDBRANCH  19  24
ENDBRANCH  15  16
ENDBRANCH   1  15
TORSDOF 5
