REMARK  Name = *****
REMARK                            x       y       z     vdW  Elec       q    Type
REMARK                         _______ _______ _______ _____ _____    ______ ____
ROOT
ATOM      1  C   LIG    1        2.364   0.037   0.087  0.00  0.00    +0.027 A 
ATOM      2  C   LIG    1        3.138  -1.129   0.121  0.00  0.00    +0.051 A 
ATOM      3  C   LIG    1        4.528  -1.102   0.085  0.00  0.00    +0.073 A 
ATOM      4  C   LIG    1        5.164   0.152   0.057  0.00  0.00    +0.001 A 
ATOM      5  C   LIG    1        6.562   0.178   0.033  0.00  0.00    +0.020 A 
ATOM      6  C   LIG    1        7.286  -1.017   0.048  0.00  0.00    +0.001 A 
ATOM      7  C   LIG    1        6.566  -2.224   0.077  0.00  0.00    +0.073 A 
ATOM      8  C   LIG    1        7.285  -3.415   0.106  0.00  0.00    +0.051 A 
ATOM      9  C   LIG    1        8.685  -3.446   0.065  0.00  0.00    +0.027 A 
ATOM     10  C   LIG    1        9.380  -2.240   0.090  0.00  0.00    +0.023 A 
ATOM     11  C   LIG    1        8.689  -1.029   0.058  0.00  0.00    +0.012 A 
ATOM     12  C   LIG    1        4.405   1.332   0.076  0.00  0.00    +0.012 A 
ATOM     13  N   LIG    1        5.219  -2.258   0.092  0.00  0.00    -0.247 NA
ATOM     14  C   LIG    1        3.013   1.269   0.116  0.00  0.00    +0.023 A 
ENDROOT
BRANCH   1  15
ATOM     15  N   LIG    1        0.976  -0.028   0.262  0.00  0.00    -0.358 N 
ATOM     16  H   LIG    1        0.561  -0.896  -0.064  0.00  0.00    +0.142 HD
ATOM     17  H   LIG    1        0.476   0.788  -0.077  0.00  0.00    +0.142 HD
ENDBRANCH   1  15
BRANCH   9  18
ATOM     18  N   LIG    1        9.372  -4.655   0.236  0.00  0.00    -0.358 N 
ATOM     19  H   LIG    1        8.858  -5.469  -0.088  0.00  0.00    +0.142 HD
ATOM     20  H   LIG    1       10.327  -4.641  -0.108  0.00  0.00    +0.142 HD
ENDBRANCH   9  18
TORSDOF 2
