REMARK  Name = *****
REMARK                            x       y       z     vdW  Elec       q    Type
REMARK                         _______ _______ _______ _____ _____    ______ ____
ROOT
ATOM      1  C   LIG    1        1.088   0.031  -0.063  0.00  0.00    +0.155 C 
ATOM      2  N   LIG    1        2.537   0.030  -0.061  0.00  0.00    -0.280 N 
ATOM      3  C   LIG    1        3.206  -1.198  -0.059  0.00  0.00    +0.333 C 
ATOM      4  O   LIG    1        2.590  -2.268  -0.060  0.00  0.00    -0.246 OA
ATOM      5  N   LIG    1        4.616  -1.166  -0.055  0.00  0.00    -0.262 N 
ATOM      6  C   LIG    1        5.290  -2.449  -0.047  0.00  0.00    +0.157 C 
ATOM      7  C   LIG    1        5.401  -0.011  -0.057  0.00  0.00    +0.282 C 
ATOM      8  O   LIG    1        6.627   0.011  -0.057  0.00  0.00    -0.265 OA
ATOM      9  C   LIG    1        4.625   1.174  -0.059  0.00  0.00    +0.150 A 
ATOM     10  N   LIG    1        5.008   2.482  -0.059  0.00  0.00    -0.327 N 
ATOM     11  H   LIG    1        5.955   2.837  -0.058  0.00  0.00    +0.168 HD
ATOM     12  C   LIG    1        3.858   3.228  -0.060  0.00  0.00    +0.178 A 
ATOM     13 BR   LIG    1        3.823   5.094  -0.058  0.00  0.00    -0.008 Br
ATOM     14  N   LIG    1        2.782   2.467  -0.061  0.00  0.00    -0.203 NA
ATOM     15  C   LIG    1        3.266   1.194  -0.061  0.00  0.00    +0.169 A 
ENDROOT
TORSDOF 0
