REMARK  Name = *****
REMARK                            x       y       z     vdW  Elec       q    Type
REMARK                         _______ _______ _______ _____ _____    ______ ____
ROOT
ATOM      1  C   LIG    1        9.002  -1.385  -0.222  0.00  0.00    +0.242 C 
ATOM      2  C   LIG    1       10.261  -1.689  -1.123  0.00  0.00    +0.195 C 
ATOM      3  S   LIG    1       10.983  -0.322  -2.113  0.00  0.00    -0.125 S 
ATOM      4  C   LIG    1       12.653  -0.502  -1.330  0.00  0.00    +0.042 C 
ATOM      5  C   LIG    1       12.348  -0.949   0.111  0.00  0.00    +0.201 C 
ATOM      6  C   LIG    1       13.329   0.872  -1.370  0.00  0.00    +0.025 C 
ATOM      7  C   LIG    1       13.462  -1.518  -2.148  0.00  0.00    +0.025 C 
ATOM      8  N   LIG    1       11.107  -1.742   0.098  0.00  0.00    -0.266 N 
ATOM      9  C   LIG    1       10.091  -1.327   0.919  0.00  0.00    +0.271 C 
ATOM     10  O   LIG    1       10.149  -0.907   2.064  0.00  0.00    -0.270 OA
ENDROOT
BRANCH   1  11
ATOM     11  N   LIG    1        8.336  -0.061  -0.457  0.00  0.00    -0.277 N 
ATOM     12  H   LIG    1        8.466   0.663   0.240  0.00  0.00    +0.152 HD
ATOM     13  C   LIG    1        7.494   0.165  -1.530  0.00  0.00    +0.234 C 
ATOM     14  O   LIG    1        7.251  -0.704  -2.365  0.00  0.00    -0.275 OA
BRANCH  13  15
ATOM     15  C   LIG    1        6.913   1.578  -1.621  0.00  0.00    +0.213 C 
BRANCH  15  16
ATOM     16  C   LIG    1        7.278   2.237  -2.942  0.00  0.00    -0.018 A 
ATOM     17  C   LIG    1        8.074   3.363  -3.067  0.00  0.00    +0.050 A 
ATOM     18  S   LIG    1        8.189   3.920  -4.682  0.00  0.00    -0.105 S 
ATOM     19  C   LIG    1        7.188   2.661  -5.250  0.00  0.00    +0.045 A 
ATOM     20  C   LIG    1        6.800   1.817  -4.236  0.00  0.00    +0.012 A 
ENDBRANCH  15  16
BRANCH  15  21
ATOM     21  C   LIG    1        5.417   1.570  -1.328  0.00  0.00    +0.321 C 
ATOM     22  O   LIG    1        4.956   1.083  -0.300  0.00  0.00    -0.250 OA
BRANCH  21  23
ATOM     23  O   LIG    1        4.598   2.191  -2.208  0.00  0.00    -0.480 OA
ATOM     24  H   LIG    1        5.020   2.581  -2.998  0.00  0.00    +0.295 HD
ENDBRANCH  21  23
ENDBRANCH  15  21
ENDBRANCH  13  15
ENDBRANCH   1  11
BRANCH   1  26
ATOM     25  C   LIG    1        7.189  -2.415   1.064  0.00  0.00    +0.197 C 
ATOM     26  O   LIG    1        8.077  -2.495  -0.045  0.00  0.00    -0.349 OA
ENDBRANCH   1  26
BRANCH   5  27
ATOM     27  C   LIG    1       13.498  -1.718   0.764  0.00  0.00    +0.327 C 
ATOM     28  O   LIG    1       14.619  -1.258   0.926  0.00  0.00    -0.249 OA
BRANCH  27  29
ATOM     29  O   LIG    1       13.178  -2.986   1.118  0.00  0.00    -0.479 OA
ATOM     30  H   LIG    1       12.232  -3.169   0.939  0.00  0.00    +0.295 HD
ENDBRANCH  27  29
ENDBRANCH   5  27
TORSDOF 8
