REMARK  Name = *****
REMARK                            x       y       z     vdW  Elec       q    Type
REMARK                         _______ _______ _______ _____ _____    ______ ____
ROOT
ATOM      1  O   LIG    1        1.023   0.047  -0.077  0.00  0.00    -0.223 OA
ATOM      2  C   LIG    1        2.245   0.061  -0.077  0.00  0.00    +0.419 C 
ATOM      3  O   LIG    1        3.042  -1.092  -0.077  0.00  0.00    -0.408 OA
ATOM      4  C   LIG    1        4.322  -0.564  -0.077  0.00  0.00    +0.157 A 
ATOM      5  C   LIG    1        4.326   0.816  -0.076  0.00  0.00    +0.089 A 
ATOM      6  C   LIG    1        5.480   1.564  -0.075  0.00  0.00    +0.049 A 
ATOM      7  C   LIG    1        6.679   0.849  -0.073  0.00  0.00    +0.043 A 
ATOM      8  C   LIG    1        6.693  -0.562  -0.074  0.00  0.00    +0.023 A 
ATOM      9 CL   LIG    1        8.173   1.705  -0.070  0.00  0.00    -0.084 Cl
ATOM     10  C   LIG    1        5.495  -1.287  -0.076  0.00  0.00    +0.050 A 
ATOM     11  N   LIG    1        3.017   1.200  -0.077  0.00  0.00    -0.288 N 
ATOM     12  H   LIG    1        2.637   2.132  -0.077  0.00  0.00    +0.172 HD
ENDROOT
TORSDOF 0
