REMARK  Name = *****
REMARK                            x       y       z     vdW  Elec       q    Type
REMARK                         _______ _______ _______ _____ _____    ______ ____
ROOT
ATOM      1  N   LIG    1        5.456  -2.032  -0.657  0.00  0.00    -0.296 N 
ATOM      2  C   LIG    1        6.879  -2.145  -0.406  0.00  0.00    +0.079 C 
ATOM      3  C   LIG    1        7.358  -3.252   0.324  0.00  0.00    +0.051 C 
ATOM      4  C   LIG    1        8.691  -3.345   0.725  0.00  0.00    +0.054 C 
ATOM      5  C   LIG    1        9.584  -2.351   0.355  0.00  0.00    +0.146 C 
ATOM      6  C   LIG    1        9.208  -1.277  -0.472  0.00  0.00    +0.086 C 
ATOM      7  F   LIG    1       10.850  -2.482   0.778  0.00  0.00    -0.203 F 
ATOM      8  C   LIG    1        6.463  -4.398   0.598  0.00  0.00    +0.203 C 
ATOM      9  O   LIG    1        6.830  -5.367   1.259  0.00  0.00    -0.286 OA
ATOM     10  C   LIG    1        5.117  -4.372   0.007  0.00  0.00    +0.122 C 
ATOM     11  C   LIG    1        7.851  -1.231  -0.897  0.00  0.00    +0.089 C 
ATOM     12 CL   LIG    1        7.445  -0.245  -2.287  0.00  0.00    -0.079 Cl
ATOM     13  C   LIG    1        4.712  -3.209  -0.523  0.00  0.00    +0.112 C 
ENDROOT
BRANCH   1  20
ATOM     14  C   LIG    1        4.768   1.529  -0.092  0.00  0.00    +0.154 A 
ATOM     15  C   LIG    1        3.503   1.713  -0.647  0.00  0.00    +0.166 A 
ATOM     16  F   LIG    1        2.914   2.917  -0.639  0.00  0.00    -0.202 F 
ATOM     17  C   LIG    1        2.868   0.649  -1.250  0.00  0.00    +0.084 A 
ATOM     18  C   LIG    1        3.518  -0.577  -1.282  0.00  0.00    +0.169 A 
ATOM     19  F   LIG    1        2.909  -1.568  -1.949  0.00  0.00    -0.202 F 
ATOM     20  C   LIG    1        4.779  -0.746  -0.675  0.00  0.00    +0.176 A 
ATOM     21  N   LIG    1        5.381   0.323  -0.067  0.00  0.00    -0.209 NA
BRANCH  14  22
ATOM     22  N   LIG    1        5.436   2.593   0.518  0.00  0.00    -0.341 N 
ATOM     23  H   LIG    1        5.405   3.434  -0.050  0.00  0.00    +0.144 HD
ATOM     24  H   LIG    1        6.379   2.305   0.756  0.00  0.00    +0.144 HD
ENDBRANCH  14  22
ENDBRANCH   1  20
BRANCH   6  25
ATOM     25  N   LIG    1       10.173  -0.321  -0.900  0.00  0.00    -0.322 NA
ATOM     26  C   LIG    1       10.004   1.111  -0.893  0.00  0.00    +0.138 C 
ATOM     27  C   LIG    1       11.533   1.232  -0.977  0.00  0.00    +0.149 C 
ATOM     28  C   LIG    1       11.551  -0.223  -0.487  0.00  0.00    +0.138 C 
BRANCH  27  29
ATOM     29  O   LIG    1       12.090   1.483  -2.290  0.00  0.00    -0.389 OA
ATOM     30  H   LIG    1       11.661   0.820  -2.862  0.00  0.00    +0.210 HD
ENDBRANCH  27  29
ENDBRANCH   6  25
BRANCH  10  31
ATOM     31  C   LIG    1        4.188  -5.519   0.013  0.00  0.00    +0.342 C 
ATOM     32  O   LIG    1        3.178  -5.568  -0.666  0.00  0.00    -0.245 OA
BRANCH  31  33
ATOM     33  O   LIG    1        4.551  -6.523   0.842  0.00  0.00    -0.477 OA
ATOM     34  H   LIG    1        5.420  -6.388   1.292  0.00  0.00    +0.295 HD
ENDBRANCH  31  33
ENDBRANCH  10  31
TORSDOF 6
