REMARK  Name = *****
REMARK                            x       y       z     vdW  Elec       q    Type
REMARK                         _______ _______ _______ _____ _____    ______ ____
ROOT
ATOM      1  C   LIG    1        0.315   1.689  -4.931  0.00  0.00    +0.166 C 
ENDROOT
BRANCH   1   2
ATOM      2  O   LIG    1        0.843   2.978  -4.589  0.00  0.00    -0.280 OA
BRANCH   2   3
ATOM      3  P   LIG    1        1.396   3.345  -3.143  0.00  0.00    +0.473 P 
ATOM      4  O   LIG    1        0.553   3.276  -1.928  0.00  0.00    -0.228 OA
BRANCH   3   5
ATOM      5  O   LIG    1        2.930   2.914  -3.075  0.00  0.00    -0.303 OA
ATOM      6  H   LIG    1        3.457   3.543  -3.593  0.00  0.00    +0.222 HD
ENDBRANCH   3   5
BRANCH   3   7
ATOM      7  O   LIG    1        1.741   4.912  -3.245  0.00  0.00    -0.303 OA
ATOM      8  H   LIG    1        1.788   5.172  -2.297  0.00  0.00    +0.222 HD
ENDBRANCH   3   7
ENDBRANCH   2   3
ENDBRANCH   1   2
BRANCH   1   9
ATOM      9  C   LIG    1        0.298   1.640  -6.538  0.00  0.00    +0.111 C 
BRANCH   9  10
ATOM     10  N   LIG    1       -0.381   0.487  -7.175  0.00  0.00    -0.275 N 
ATOM     11  H   LIG    1       -1.135   0.640  -7.832  0.00  0.00    +0.152 HD
ATOM     12  C   LIG    1        0.039  -0.817  -7.216  0.00  0.00    +0.401 C 
ATOM     13  O   LIG    1       -0.412  -1.591  -8.071  0.00  0.00    -0.227 OA
BRANCH  12  14
ATOM     14  O   LIG    1        0.887  -1.160  -6.225  0.00  0.00    -0.445 OA
BRANCH  14  15
ATOM     15  C   LIG    1        1.094  -2.573  -5.980  0.00  0.00    +0.206 C 
ATOM     16  C   LIG    1        0.737  -2.926  -4.532  0.00  0.00    +0.204 C 
ATOM     17  O   LIG    1        1.842  -3.673  -3.998  0.00  0.00    -0.376 OA
ATOM     18  C   LIG    1        3.000  -3.149  -4.646  0.00  0.00    +0.163 C 
ATOM     19  C   LIG    1        2.569  -2.936  -6.082  0.00  0.00    +0.075 C 
ENDBRANCH  14  15
ENDBRANCH  12  14
ENDBRANCH   9  10
BRANCH   9  20
ATOM     20  C   LIG    1        0.168   3.041  -7.318  0.00  0.00    +0.060 C 
BRANCH  20  21
ATOM     21  C   LIG    1       -1.130   3.788  -7.635  0.00  0.00    -0.045 A 
ATOM     22  C   LIG    1       -1.155   5.199  -7.788  0.00  0.00    +0.003 A 
ATOM     23  C   LIG    1       -2.308   5.877  -8.240  0.00  0.00    +0.000 A 
ATOM     24  C   LIG    1       -3.443   5.161  -8.600  0.00  0.00    +0.000 A 
ATOM     25  C   LIG    1       -3.438   3.781  -8.455  0.00  0.00    +0.000 A 
ATOM     26  C   LIG    1       -2.306   3.114  -7.965  0.00  0.00    +0.003 A 
ENDBRANCH  20  21
ENDBRANCH   9  20
ENDBRANCH   1   9
BRANCH   1  27
ATOM     27  C   LIG    1       -1.038   1.441  -4.224  0.00  0.00    +0.143 C 
BRANCH  27  28
ATOM     28  N   LIG    1       -1.102   1.287  -2.639  0.00  0.00    -0.174 NA
BRANCH  28  29
ATOM     29  S   LIG    1        0.194   0.473  -1.786  0.00  0.00    +0.061 S 
ATOM     30  O   LIG    1        1.435   0.622  -2.458  0.00  0.00    -0.153 OA
ATOM     31  O   LIG    1       -0.349  -0.887  -1.610  0.00  0.00    -0.153 OA
BRANCH  29  32
ATOM     32  C   LIG    1        0.412   1.050  -0.047  0.00  0.00    +0.106 A 
ATOM     33  C   LIG    1       -0.443   0.644   0.961  0.00  0.00    +0.030 A 
ATOM     34  C   LIG    1       -0.257   0.929   2.309  0.00  0.00    +0.024 A 
ATOM     35  C   LIG    1        1.010   1.279   2.731  0.00  0.00    +0.025 A 
ATOM     36  C   LIG    1        1.903   1.746   1.770  0.00  0.00    +0.024 A 
ATOM     37  C   LIG    1        1.589   1.713   0.380  0.00  0.00    +0.030 A 
BRANCH  35  38
ATOM     38  N   LIG    1        1.313   1.293   4.098  0.00  0.00    -0.358 N 
ATOM     39  H   LIG    1        0.717   0.663   4.634  0.00  0.00    +0.142 HD
ATOM     40  H   LIG    1        2.291   1.066   4.261  0.00  0.00    +0.142 HD
ENDBRANCH  35  38
ENDBRANCH  29  32
ENDBRANCH  28  29
BRANCH  28  41
ATOM     41  C   LIG    1       -2.569   1.123  -2.313  0.00  0.00    +0.112 C 
BRANCH  41  43
ATOM     42  C   LIG    1       -2.942   1.847   0.135  0.00  0.00    +0.008 C 
ATOM     43  C   LIG    1       -3.080   0.740  -0.924  0.00  0.00    -0.002 C 
ATOM     44  C   LIG    1       -4.583   0.445  -1.033  0.00  0.00    +0.008 C 
ENDBRANCH  41  43
ENDBRANCH  28  41
ENDBRANCH  27  28
ENDBRANCH   1  27
TORSDOF 17
