REMARK  Name = *****
REMARK                            x       y       z     vdW  Elec       q    Type
REMARK                         _______ _______ _______ _____ _____    ______ ____
ROOT
ATOM      1  C   LIG    1       -1.460  -0.059   0.652  0.00  0.00    +0.043 A 
ATOM      2  C   LIG    1       -0.126   0.251   0.300  0.00  0.00    -0.011 A 
ATOM      3  C   LIG    1        0.902  -0.649   0.635  0.00  0.00    +0.022 A 
ATOM      4  C   LIG    1        0.608  -1.855   1.267  0.00  0.00    +0.019 A 
ATOM      5 BR   LIG    1        2.009  -3.046   1.708  0.00  0.00    -0.050 Br
ATOM      6  C   LIG    1       -0.707  -2.198   1.563  0.00  0.00    +0.032 A 
ATOM      7  C   LIG    1       -1.734  -1.310   1.237  0.00  0.00    +0.040 A 
ATOM      8 BR   LIG    1       -3.518  -1.828   1.650  0.00  0.00    -0.048 Br
ENDROOT
BRANCH   1   9
ATOM      9  N   LIG    1       -2.506   0.790   0.228  0.00  0.00    -0.357 N 
ATOM     10  H   LIG    1       -2.202   1.768   0.231  0.00  0.00    +0.142 HD
ATOM     11  H   LIG    1       -3.359   0.655   0.768  0.00  0.00    +0.142 HD
ENDBRANCH   1   9
BRANCH   2  12
ATOM     12  C   LIG    1        0.228   1.519  -0.454  0.00  0.00    +0.118 C 
BRANCH  12  13
ATOM     13  N   LIG    1       -0.155   2.712   0.308  0.00  0.00    -0.309 NA
ATOM     14  H   LIG    1        0.284   2.651   1.228  0.00  0.00    +0.122 HD
BRANCH  13  15
ATOM     15  C   LIG    1        0.245   3.975  -0.329  0.00  0.00    +0.054 C 
ATOM     16  C   LIG    1       -0.160   5.111   0.627  0.00  0.00    +0.021 C 
ATOM     17  C   LIG    1        0.095   6.498   0.036  0.00  0.00    +0.033 C 
ATOM     18  C   LIG    1       -0.545   6.674  -1.338  0.00  0.00    +0.115 C 
ATOM     19  C   LIG    1       -0.137   5.556  -2.293  0.00  0.00    +0.033 C 
ATOM     20  C   LIG    1       -0.395   4.164  -1.715  0.00  0.00    +0.021 C 
BRANCH  18  21
ATOM     21  O   LIG    1       -1.964   6.729  -1.220  0.00  0.00    -0.392 OA
ATOM     22  H   LIG    1       -2.286   5.884  -0.863  0.00  0.00    +0.210 HD
ENDBRANCH  18  21
ENDBRANCH  13  15
ENDBRANCH  12  13
ENDBRANCH   2  12
TORSDOF 5
