REMARK  Name = *****
REMARK                            x       y       z     vdW  Elec       q    Type
REMARK                         _______ _______ _______ _____ _____    ______ ____
ROOT
ATOM      1  C   LIG    1        2.635  -4.245  -0.539  0.00  0.00    +0.234 C 
ENDROOT
BRANCH   1   2
ATOM      2  C   LIG    1        2.562  -4.723   0.939  0.00  0.00    +0.177 C 
ATOM      3  O   LIG    1        2.940  -6.116   1.018  0.00  0.00    -0.370 OA
ATOM      4  C   LIG    1        2.910  -6.563   2.380  0.00  0.00    +0.175 C 
ATOM      5  C   LIG    1        1.504  -6.419   2.979  0.00  0.00    +0.109 C 
ATOM      6  N   LIG    1        1.014  -5.035   2.896  0.00  0.00    -0.311 NA
ATOM      7  H   LIG    1        0.037  -5.002   3.188  0.00  0.00    +0.122 HD
ATOM      8  C   LIG    1        1.123  -4.558   1.502  0.00  0.00    +0.116 C 
ENDBRANCH   1   2
BRANCH   1   9
ATOM      9  C   LIG    1        4.049  -4.306  -1.128  0.00  0.00    -0.005 A 
ATOM     10  C   LIG    1        4.292  -5.074  -2.281  0.00  0.00    +0.007 A 
ATOM     11  C   LIG    1        5.561  -5.108  -2.869  0.00  0.00    +0.000 A 
ATOM     12  C   LIG    1        6.609  -4.374  -2.323  0.00  0.00    +0.000 A 
ATOM     13  C   LIG    1        6.391  -3.618  -1.173  0.00  0.00    +0.000 A 
ATOM     14  C   LIG    1        5.126  -3.596  -0.577  0.00  0.00    +0.007 A 
ENDBRANCH   1   9
BRANCH   1  15
ATOM     15  O   LIG    1        2.152  -2.889  -0.586  0.00  0.00    -0.478 OA
BRANCH  15  17
ATOM     16  C   LIG    1        1.561  -1.060  -1.983  0.00  0.00    +0.162 A 
ATOM     17  C   LIG    1        1.486  -2.432  -1.689  0.00  0.00    +0.163 A 
ATOM     18  C   LIG    1        0.664  -3.243  -2.485  0.00  0.00    +0.049 A 
ATOM     19  C   LIG    1       -0.009  -2.703  -3.589  0.00  0.00    +0.004 A 
ATOM     20  C   LIG    1        0.106  -1.354  -3.894  0.00  0.00    +0.004 A 
ATOM     21  C   LIG    1        0.872  -0.524  -3.076  0.00  0.00    +0.049 A 
BRANCH  16  22
ATOM     22  O   LIG    1        2.194  -0.127  -1.199  0.00  0.00    -0.489 OA
BRANCH  22  24
ATOM     23  C   LIG    1        3.816  -0.486   0.528  0.00  0.00    +0.048 C 
ATOM     24  C   LIG    1        3.578  -0.390  -0.969  0.00  0.00    +0.226 C 
ENDBRANCH  22  24
ENDBRANCH  16  22
ENDBRANCH  15  17
ENDBRANCH   1  15
TORSDOF 6
