REMARK  Name = *****
REMARK                            x       y       z     vdW  Elec       q    Type
REMARK                         _______ _______ _______ _____ _____    ______ ____
ROOT
ATOM      1  C   LIG    1        4.574  -0.565  -3.642  0.00  0.00    +0.323 C 
ATOM      2  C   LIG    1        5.619   0.216  -4.384  0.00  0.00    +0.087 A 
ATOM      3  C   LIG    1        5.613   0.350  -5.777  0.00  0.00    +0.046 A 
ATOM      4  C   LIG    1        6.539   1.232  -6.368  0.00  0.00    +0.024 A 
ATOM      5  C   LIG    1        7.471   1.932  -5.598  0.00  0.00    +0.002 A 
ATOM      6  C   LIG    1        7.496   1.762  -4.220  0.00  0.00    +0.001 A 
ATOM      7  N   LIG    1        4.769  -0.397  -6.624  0.00  0.00    -0.310 N 
ATOM      8  H   LIG    1        4.856  -0.131  -7.598  0.00  0.00    +0.152 HD
ATOM      9  C   LIG    1        4.589  -1.792  -6.462  0.00  0.00    +0.083 A 
ATOM     10  C   LIG    1        4.371  -2.392  -5.207  0.00  0.00    +0.199 A 
ATOM     11  C   LIG    1        4.282  -3.790  -5.128  0.00  0.00    +0.077 A 
ATOM     12  C   LIG    1        4.411  -4.584  -6.263  0.00  0.00    +0.045 A 
ATOM     13  C   LIG    1        4.613  -3.999  -7.506  0.00  0.00    +0.022 A 
ATOM     14 CL   LIG    1        4.300  -6.296  -6.132  0.00  0.00    -0.083 Cl
ATOM     15  C   LIG    1        4.698  -2.610  -7.604  0.00  0.00    +0.029 A 
ATOM     16  C   LIG    1        6.573   0.911  -3.615  0.00  0.00    +0.018 A 
ATOM     17  N   LIG    1        4.074  -1.707  -4.023  0.00  0.00    -0.040 NA
ENDROOT
BRANCH   1  22
ATOM     18  C   LIG    1        1.233   0.923  -0.280  0.00  0.00    +0.105 C 
ATOM     19  N   LIG    1        2.673   1.026  -0.048  0.00  0.00    -0.298 NA
ATOM     20  C   LIG    1        3.323  -0.304  -0.077  0.00  0.00    +0.127 C 
ATOM     21  C   LIG    1        3.454  -0.948  -1.475  0.00  0.00    +0.241 C 
ATOM     22  N   LIG    1        4.122  -0.029  -2.424  0.00  0.00    -0.218 N 
ATOM     23  C   LIG    1        3.458   1.294  -2.467  0.00  0.00    +0.241 C 
ATOM     24  C   LIG    1        3.325   1.896  -1.050  0.00  0.00    +0.127 C 
ENDBRANCH   1  22
TORSDOF 1
