REMARK  Name = *****
REMARK                            x       y       z     vdW  Elec       q    Type
REMARK                         _______ _______ _______ _____ _____    ______ ____
ROOT
ATOM      1  B   LIG    1        2.216   0.088   0.002  0.00  0.00    +0.000 B 
ENDROOT
BRANCH   1   2
ATOM      2  O   LIG    1        1.531   0.078   0.038  0.00  0.00    +0.000 OA
ATOM      3  H   LIG    1        0.635  -0.169   0.856  0.00  0.00    +0.000 HD
ENDBRANCH   1   2
BRANCH   1   4
ATOM      4  O   LIG    1        3.213   0.446  -1.184  0.00  0.00    +0.000 OA
ATOM      5  H   LIG    1        2.572   0.656  -1.879  0.00  0.00    +0.000 HD
ENDBRANCH   1   4
BRANCH   1   6
ATOM      6  O   LIG    1        3.212  -0.276   1.211  0.00  0.00    +0.000 OA
ATOM      7  H   LIG    1        2.603  -0.496   1.940  0.00  0.00    +0.000 HD
ENDBRANCH   1   6
TORSDOF 3
