REMARK  Name = *****
REMARK                            x       y       z     vdW  Elec       q    Type
REMARK                         _______ _______ _______ _____ _____    ______ ____
ROOT
ATOM      1  C   LIG    1        2.469  -0.007  -0.032  0.00  0.00    +0.176 C 
ATOM      2  C   LIG    1        2.985  -1.359  -0.506  0.00  0.00    +0.176 C 
ATOM      3  C   LIG    1        2.470  -1.665  -1.916  0.00  0.00    +0.176 C 
ATOM      4  C   LIG    1        2.893  -0.571  -2.911  0.00  0.00    +0.176 C 
ATOM      5  C   LIG    1        2.412   0.810  -2.442  0.00  0.00    +0.176 C 
ATOM      6  C   LIG    1        2.827   1.121  -1.001  0.00  0.00    +0.176 C 
ENDROOT
BRANCH   1   7
ATOM      7  O   LIG    1        3.066   0.291   1.243  0.00  0.00    -0.387 OA
ATOM      8  H   LIG    1        2.823   1.225   1.430  0.00  0.00    +0.210 HD
ENDBRANCH   1   7
BRANCH   2   9
ATOM      9  O   LIG    1        4.426  -1.354  -0.529  0.00  0.00    -0.387 OA
ATOM     10  H   LIG    1        4.683  -1.015   0.351  0.00  0.00    +0.210 HD
ENDBRANCH   2   9
BRANCH   3  11
ATOM     11  O   LIG    1        2.987  -2.921  -2.365  0.00  0.00    -0.387 OA
ATOM     12  H   LIG    1        3.931  -2.939  -2.089  0.00  0.00    +0.210 HD
ENDBRANCH   3  11
BRANCH   4  13
ATOM     13  O   LIG    1        2.318  -0.815  -4.201  0.00  0.00    -0.387 OA
ATOM     14  H   LIG    1        1.959  -1.720  -4.201  0.00  0.00    +0.210 HD
ENDBRANCH   4  13
BRANCH   5  15
ATOM     15  O   LIG    1        2.944   1.867  -3.260  0.00  0.00    -0.387 OA
ATOM     16  H   LIG    1        3.502   1.463  -3.947  0.00  0.00    +0.210 HD
ENDBRANCH   5  15
BRANCH   6  17
ATOM     17  O   LIG    1        2.154   2.320  -0.571  0.00  0.00    -0.387 OA
ATOM     18  H   LIG    1        2.171   2.914  -1.350  0.00  0.00    +0.210 HD
ENDBRANCH   6  17
TORSDOF 6
