REMARK  Name = *****
REMARK                            x       y       z     vdW  Elec       q    Type
REMARK                         _______ _______ _______ _____ _____    ______ ____
ROOT
ATOM      1  C   LIG    1       12.236   1.024   7.207  0.00  0.00    -0.007 A 
ATOM      2  C   LIG    1       11.623   2.200   7.643  0.00  0.00    +0.010 A 
ATOM      3  C   LIG    1       10.306   2.163   8.100  0.00  0.00    +0.010 A 
ATOM      4  C   LIG    1        9.606   0.951   8.119  0.00  0.00    -0.007 A 
ATOM      5  C   LIG    1       10.219  -0.229   7.688  0.00  0.00    +0.010 A 
ATOM      6  C   LIG    1       11.540  -0.191   7.232  0.00  0.00    +0.010 A 
ENDROOT
BRANCH   1   8
ATOM      7  N   LIG    1       14.315   2.130   6.641  0.00  0.00    -0.276 NA
ATOM      8  C   LIG    1       13.618   1.044   6.687  0.00  0.00    +0.113 C 
BRANCH   7  11
ATOM      9  O   LIG    1       16.564  -0.058   7.059  0.00  0.00    -0.271 OA
ATOM     10  C   LIG    1       16.561   1.157   6.949  0.00  0.00    +0.263 C 
ATOM     11  C   LIG    1       15.661   1.963   6.050  0.00  0.00    +0.220 C 
ATOM     12  C   LIG    1       16.414   3.289   6.037  0.00  0.00    +0.226 C 
ATOM     13  O   LIG    1       17.174   3.364   7.255  0.00  0.00    -0.277 OA
ATOM     14  N   LIG    1       17.345   2.025   7.662  0.00  0.00    -0.193 N 
ATOM     15  H   LIG    1       18.075   1.772   8.313  0.00  0.00    +0.182 HD
ENDBRANCH   7  11
ENDBRANCH   1   8
BRANCH   4  16
ATOM     16  C   LIG    1        8.207   0.915   8.586  0.00  0.00    +0.113 C 
ATOM     17  N   LIG    1        7.625   1.993   8.984  0.00  0.00    -0.276 NA
BRANCH  17  18
ATOM     18  C   LIG    1        6.226   1.838   9.413  0.00  0.00    +0.220 C 
ATOM     19  C   LIG    1        5.327   1.564   8.237  0.00  0.00    +0.263 C 
ATOM     20  O   LIG    1        5.133   0.477   7.719  0.00  0.00    -0.271 OA
ATOM     21  N   LIG    1        4.812   2.760   7.808  0.00  0.00    -0.193 N 
ATOM     22  H   LIG    1        4.120   2.879   7.082  0.00  0.00    +0.182 HD
ATOM     23  O   LIG    1        5.116   3.821   8.690  0.00  0.00    -0.277 OA
ATOM     24  C   LIG    1        5.679   3.191   9.853  0.00  0.00    +0.226 C 
ENDBRANCH  17  18
ENDBRANCH   4  16
TORSDOF 4
