REMARK  Name = *****
REMARK                            x       y       z     vdW  Elec       q    Type
REMARK                         _______ _______ _______ _____ _____    ______ ____
ROOT
ATOM      1  C   LIG    1       -5.664   4.638   2.887  0.00  0.00    +0.129 C 
ATOM      2  C   LIG    1       -5.223   3.676   4.060  0.00  0.00    +0.061 C 
ATOM      3  C   LIG    1       -4.210   2.607   3.627  0.00  0.00    +0.190 C 
ATOM      4  C   LIG    1       -3.515   1.915   4.786  0.00  0.00    +0.141 C 
ATOM      5  C   LIG    1       -3.530   2.386   6.052  0.00  0.00    +0.047 C 
ATOM      6  C   LIG    1       -4.305   3.615   6.472  0.00  0.00    +0.062 C 
ATOM      7  C   LIG    1       -3.577   4.391   7.628  0.00  0.00    +0.097 C 
ATOM      8  C   LIG    1       -4.279   5.730   7.899  0.00  0.00    +0.047 C 
ATOM      9  C   LIG    1       -3.355   3.438   8.812  0.00  0.00    +0.017 A 
ATOM     10  C   LIG    1       -2.826   2.153   8.502  0.00  0.00    +0.071 A 
ATOM     11  C   LIG    1       -2.401   1.268   9.514  0.00  0.00    +0.128 A 
ATOM     12  C   LIG    1       -2.547   1.596  10.848  0.00  0.00    +0.047 A 
ATOM     13  C   LIG    1       -3.130   2.809  11.180  0.00  0.00    +0.024 A 
ATOM     14  C   LIG    1       -3.530   3.723  10.187  0.00  0.00    +0.048 A 
ATOM     15 CL   LIG    1       -4.267   5.146  10.835  0.00  0.00    -0.083 Cl
ATOM     16  C   LIG    1       -2.738   1.682   7.098  0.00  0.00    +0.197 C 
ATOM     17  O   LIG    1       -2.067   0.686   6.822  0.00  0.00    -0.287 OA
ATOM     18  C   LIG    1       -3.139   3.295   2.773  0.00  0.00    +0.210 C 
ATOM     19  O   LIG    1       -1.954   3.418   3.090  0.00  0.00    -0.288 OA
ATOM     20  C   LIG    1       -3.610   3.942   1.534  0.00  0.00    +0.121 C 
ATOM     21  C   LIG    1       -4.649   4.495   5.242  0.00  0.00    +0.020 C 
ATOM     22  C   LIG    1       -4.753   4.648   1.648  0.00  0.00    +0.127 C 
ENDROOT
BRANCH  20  23
ATOM     23  C   LIG    1       -2.800   3.939   0.289  0.00  0.00    +0.253 C 
ATOM     24  N   LIG    1       -1.502   3.557   0.422  0.00  0.00    -0.289 N 
ATOM     25  H   LIG    1       -1.136   3.314   1.341  0.00  0.00    +0.151 HD
ATOM     26  O   LIG    1       -3.298   4.294  -0.789  0.00  0.00    -0.270 OA
BRANCH  24  27
ATOM     27  C   LIG    1       -0.610   3.492  -0.683  0.00  0.00    +0.264 C 
BRANCH  27  28
ATOM     28  O   LIG    1        0.628   3.075  -0.165  0.00  0.00    -0.377 OA
ATOM     29  H   LIG    1        0.942   3.799   0.400  0.00  0.00    +0.211 HD
ENDBRANCH  27  28
ENDBRANCH  24  27
ENDBRANCH  20  23
BRANCH   1  31
ATOM     30  C   LIG    1       -7.474   3.289   1.860  0.00  0.00    +0.105 C 
ATOM     31  N   LIG    1       -7.122   4.481   2.633  0.00  0.00    -0.298 NA
ATOM     32  C   LIG    1       -7.733   5.665   2.019  0.00  0.00    +0.105 C 
ENDBRANCH   1  31
BRANCH   3  33
ATOM     33  O   LIG    1       -4.859   1.597   2.856  0.00  0.00    -0.373 OA
ATOM     34  H   LIG    1       -4.312   0.791   2.963  0.00  0.00    +0.211 HD
ENDBRANCH   3  33
BRANCH   4  35
ATOM     35  O   LIG    1       -2.879   0.736   4.410  0.00  0.00    -0.507 OA
ATOM     36  H   LIG    1       -2.365   0.403   5.183  0.00  0.00    +0.292 HD
ENDBRANCH   4  35
BRANCH   7  37
ATOM     37  O   LIG    1       -2.245   4.723   7.191  0.00  0.00    -0.384 OA
ATOM     38  H   LIG    1       -2.285   5.466   6.566  0.00  0.00    +0.211 HD
ENDBRANCH   7  37
BRANCH  11  39
ATOM     39  O   LIG    1       -1.830   0.047   9.270  0.00  0.00    -0.506 OA
ATOM     40  H   LIG    1       -1.674  -0.032   8.303  0.00  0.00    +0.292 HD
ENDBRANCH  11  39
BRANCH  22  41
ATOM     41  O   LIG    1       -5.143   5.553   0.662  0.00  0.00    -0.509 OA
ATOM     42  H   LIG    1       -4.526   5.507  -0.099  0.00  0.00    +0.292 HD
ENDBRANCH  22  41
TORSDOF 9
