REMARK  Name = *****
REMARK                            x       y       z     vdW  Elec       q    Type
REMARK                         _______ _______ _______ _____ _____    ______ ____
ROOT
ATOM      1  C   LIG    1        4.643  -3.216   0.755  0.00  0.00    +0.101 C 
ENDROOT
BRANCH   1   2
ATOM      2  C   LIG    1        3.320  -3.737   0.129  0.00  0.00    +0.101 C 
BRANCH   2   3
ATOM      3  N   LIG    1        3.191  -5.184  -0.095  0.00  0.00    -0.280 NA
BRANCH   3   4
ATOM      4  C   LIG    1        3.605  -6.026   1.054  0.00  0.00    +0.212 C 
BRANCH   4   5
ATOM      5  P   LIG    1        2.524  -5.928   2.488  0.00  0.00    +0.342 P 
ATOM      6  O   LIG    1        2.907  -6.684   3.698  0.00  0.00    -0.258 OA
BRANCH   5   7
ATOM      7  O   LIG    1        1.053  -6.383   2.026  0.00  0.00    -0.323 OA
ATOM      8  H   LIG    1        0.471  -6.511   2.789  0.00  0.00    +0.220 HD
ENDBRANCH   5   7
BRANCH   5   9
ATOM      9  O   LIG    1        2.176  -4.380   2.793  0.00  0.00    -0.323 OA
ATOM     10  H   LIG    1        1.522  -4.027   2.187  0.00  0.00    +0.220 HD
ENDBRANCH   5   9
ENDBRANCH   4   5
ENDBRANCH   3   4
BRANCH   3  11
ATOM     11  C   LIG    1        1.866  -5.581  -0.644  0.00  0.00    +0.212 C 
BRANCH  11  12
ATOM     12  P   LIG    1        1.442  -4.773  -2.207  0.00  0.00    +0.342 P 
ATOM     13  O   LIG    1        0.169  -5.185  -2.868  0.00  0.00    -0.258 OA
BRANCH  12  14
ATOM     14  O   LIG    1        1.422  -3.188  -1.935  0.00  0.00    -0.323 OA
ATOM     15  H   LIG    1        1.043  -2.671  -2.670  0.00  0.00    +0.220 HD
ENDBRANCH  12  14
BRANCH  12  16
ATOM     16  O   LIG    1        2.698  -4.908  -3.192  0.00  0.00    -0.323 OA
ATOM     17  H   LIG    1        2.479  -4.695  -4.118  0.00  0.00    +0.220 HD
ENDBRANCH  12  16
ENDBRANCH  11  12
ENDBRANCH   3  11
ENDBRANCH   2   3
ENDBRANCH   1   2
BRANCH   1  18
ATOM     18  N   LIG    1        4.647  -1.759   1.063  0.00  0.00    -0.280 NA
BRANCH  18  19
ATOM     19  C   LIG    1        5.976  -1.339   1.601  0.00  0.00    +0.212 C 
BRANCH  19  20
ATOM     20  P   LIG    1        6.416  -2.091   3.180  0.00  0.00    +0.342 P 
ATOM     21  O   LIG    1        7.381  -1.303   4.010  0.00  0.00    -0.258 OA
BRANCH  20  22
ATOM     22  O   LIG    1        6.987  -3.549   2.830  0.00  0.00    -0.323 OA
ATOM     23  H   LIG    1        7.428  -3.922   3.621  0.00  0.00    +0.220 HD
ENDBRANCH  20  22
BRANCH  20  24
ATOM     24  O   LIG    1        5.059  -2.463   3.947  0.00  0.00    -0.323 OA
ATOM     25  H   LIG    1        4.258  -2.430   3.386  0.00  0.00    +0.220 HD
ENDBRANCH  20  24
ENDBRANCH  19  20
ENDBRANCH  18  19
BRANCH  18  26
ATOM     26  C   LIG    1        4.387  -0.995  -0.206  0.00  0.00    +0.212 C 
BRANCH  26  28
ATOM     27  O   LIG    1        3.519   1.587  -0.937  0.00  0.00    -0.258 OA
ATOM     28  P   LIG    1        4.351   0.793   0.018  0.00  0.00    +0.342 P 
BRANCH  28  29
ATOM     29  O   LIG    1        5.881   1.278  -0.016  0.00  0.00    -0.323 OA
ATOM     30  H   LIG    1        5.971   2.244  -0.123  0.00  0.00    +0.220 HD
ENDBRANCH  28  29
BRANCH  28  31
ATOM     31  O   LIG    1        3.961   1.093   1.542  0.00  0.00    -0.323 OA
ATOM     32  H   LIG    1        3.768   2.032   1.722  0.00  0.00    +0.220 HD
ENDBRANCH  28  31
ENDBRANCH  26  28
ENDBRANCH  18  26
ENDBRANCH   1  18
TORSDOF 19
