REMARK  Name = *****
REMARK                            x       y       z     vdW  Elec       q    Type
REMARK                         _______ _______ _______ _____ _____    ______ ____
ROOT
ATOM      1  C   LIG    1        4.851   1.799   1.380  0.00  0.00    +0.011 C 
ATOM      2  C   LIG    1        4.910   3.030   2.283  0.00  0.00    +0.026 C 
ATOM      3  C   LIG    1        5.435   4.338   1.617  0.00  0.00    +0.134 C 
ATOM      4  C   LIG    1        4.816   5.443   2.542  0.00  0.00    +0.010 C 
ATOM      5  C   LIG    1        3.370   4.920   2.768  0.00  0.00    +0.005 C 
ATOM      6  C   LIG    1        2.309   5.306   1.690  0.00  0.00    +0.036 C 
ATOM      7  C   LIG    1        2.388   6.782   1.229  0.00  0.00    +0.153 C 
ATOM      8  C   LIG    1        3.835   7.169   0.861  0.00  0.00    +0.154 C 
ATOM      9  F   LIG    1        2.070   7.526   2.353  0.00  0.00    -0.238 F 
ATOM     10  C   LIG    1        1.300   7.129   0.109  0.00  0.00    +0.047 C 
ATOM     11  C   LIG    1        0.085   6.204   0.277  0.00  0.00    -0.020 C 
ATOM     12  C   LIG    1       -0.580   5.636  -0.745  0.00  0.00    +0.054 C 
ATOM     13  C   LIG    1       -0.128   5.795  -2.141  0.00  0.00    +0.179 C 
ATOM     14  C   LIG    1        1.168   6.474  -2.347  0.00  0.00    +0.047 C 
ATOM     15  O   LIG    1       -0.762   5.337  -3.078  0.00  0.00    -0.288 OA
ATOM     16  C   LIG    1       -0.230   5.853   1.698  0.00  0.00    +0.194 C 
ATOM     17  F   LIG    1       -1.401   5.164   1.807  0.00  0.00    -0.241 F 
ATOM     18  C   LIG    1        0.799   8.586   0.289  0.00  0.00    +0.023 C 
ATOM     19  C   LIG    1        1.816   7.053  -1.327  0.00  0.00    -0.009 C 
ATOM     20  C   LIG    1        0.890   4.968   2.240  0.00  0.00    +0.048 C 
ATOM     21  C   LIG    1        5.549   5.504   3.915  0.00  0.00    +0.015 C 
ATOM     22  C   LIG    1        4.806   6.882   1.999  0.00  0.00    +0.044 C 
ATOM     23  C   LIG    1        3.522   3.383   2.853  0.00  0.00    +0.011 C 
ENDROOT
BRANCH   3  24
ATOM     24  O   LIG    1        4.884   4.439   0.307  0.00  0.00    -0.380 OA
ATOM     25  H   LIG    1        5.167   3.666  -0.215  0.00  0.00    +0.211 HD
ENDBRANCH   3  24
BRANCH   3  26
ATOM     26  C   LIG    1        6.990   4.365   1.570  0.00  0.00    +0.190 C 
ATOM     27  O   LIG    1        7.684   3.724   2.366  0.00  0.00    -0.292 OA
BRANCH  26  28
ATOM     28  C   LIG    1        7.669   5.260   0.534  0.00  0.00    +0.233 C 
BRANCH  28  29
ATOM     29  O   LIG    1        8.029   6.535   1.022  0.00  0.00    -0.387 OA
ATOM     30  H   LIG    1        8.753   6.406   1.661  0.00  0.00    +0.210 HD
ENDBRANCH  28  29
ENDBRANCH  26  28
ENDBRANCH   3  26
BRANCH   8  31
ATOM     31  O   LIG    1        3.930   8.568   0.561  0.00  0.00    -0.389 OA
ATOM     32  H   LIG    1        3.657   9.052   1.362  0.00  0.00    +0.210 HD
ENDBRANCH   8  31
TORSDOF 5
