REMARK  Name = *****
REMARK                            x       y       z     vdW  Elec       q    Type
REMARK                         _______ _______ _______ _____ _____    ______ ____
ROOT
ATOM      1  N   LIG    1        7.365  -2.566  -0.885  0.00  0.00    -0.298 NA
ATOM      2  C   LIG    1        8.330  -2.709   0.235  0.00  0.00    +0.100 C 
ATOM      3  C   LIG    1        7.850  -3.649   1.365  0.00  0.00    +0.100 C 
ATOM      4  N   LIG    1        7.530  -5.028   0.922  0.00  0.00    -0.289 NA
ATOM      5  C   LIG    1        6.629  -4.925  -0.257  0.00  0.00    +0.100 C 
ATOM      6  C   LIG    1        7.060  -3.930  -1.368  0.00  0.00    +0.100 C 
ENDROOT
BRANCH   1   7
ATOM      7  C   LIG    1        6.152  -1.817  -0.465  0.00  0.00    +0.112 C 
BRANCH   7   8
ATOM      8  C   LIG    1        5.092  -1.607  -1.583  0.00  0.00    +0.176 C 
BRANCH   8   9
ATOM      9  O   LIG    1        3.993  -0.788  -1.127  0.00  0.00    -0.367 OA
BRANCH   9  10
ATOM     10  C   LIG    1        3.011  -0.583  -2.167  0.00  0.00    +0.279 C 
BRANCH  10  12
ATOM     11  O   LIG    1        0.782   0.426  -2.267  0.00  0.00    -0.248 OA
ATOM     12  C   LIG    1        1.788   0.196  -1.637  0.00  0.00    +0.331 C 
BRANCH  12  13
ATOM     13  O   LIG    1        2.004   0.627  -0.356  0.00  0.00    -0.479 OA
ATOM     14  H   LIG    1        2.926   0.400  -0.110  0.00  0.00    +0.295 HD
ENDBRANCH  12  13
ENDBRANCH  10  12
ENDBRANCH   9  10
ENDBRANCH   8   9
ENDBRANCH   7   8
ENDBRANCH   1   7
BRANCH   4  15
ATOM     15  C   LIG    1        8.774  -5.823   0.697  0.00  0.00    +0.117 C 
BRANCH  15  16
ATOM     16  C   LIG    1        8.482  -7.212   0.107  0.00  0.00    -0.026 A 
ATOM     17  C   LIG    1        8.616  -7.423  -1.279  0.00  0.00    +0.007 A 
ATOM     18  C   LIG    1        8.367  -8.677  -1.841  0.00  0.00    +0.020 A 
ATOM     19  C   LIG    1        8.004  -9.740  -1.019  0.00  0.00    +0.041 A 
ATOM     20 CL   LIG    1        7.763 -11.301  -1.701  0.00  0.00    -0.084 Cl
ATOM     21  C   LIG    1        7.837  -9.548   0.349  0.00  0.00    +0.020 A 
ATOM     22  C   LIG    1        8.050  -8.285   0.905  0.00  0.00    +0.007 A 
ENDBRANCH  15  16
BRANCH  15  23
ATOM     23  C   LIG    1        9.667  -5.949   1.962  0.00  0.00    -0.026 A 
ATOM     24  C   LIG    1       11.060  -6.099   1.834  0.00  0.00    +0.005 A 
ATOM     25  C   LIG    1       11.871  -6.282   2.962  0.00  0.00    +0.000 A 
ATOM     26  C   LIG    1       11.307  -6.323   4.235  0.00  0.00    +0.000 A 
ATOM     27  C   LIG    1        9.935  -6.149   4.387  0.00  0.00    +0.000 A 
ATOM     28  C   LIG    1        9.125  -5.964   3.263  0.00  0.00    +0.005 A 
ENDBRANCH  15  23
ENDBRANCH   4  15
TORSDOF 9
