REMARK  Name = *****
REMARK                            x       y       z     vdW  Elec       q    Type
REMARK                         _______ _______ _______ _____ _____    ______ ____
ROOT
ATOM      1  C   LIG    1        3.345   1.262  -0.831  0.00  0.00    +0.120 A 
ATOM      2  C   LIG    1        4.408   0.674  -1.520  0.00  0.00    +0.050 A 
ATOM      3  C   LIG    1        5.390   1.457  -2.171  0.00  0.00    -0.034 A 
ATOM      4  C   LIG    1        6.552   0.773  -2.939  0.00  0.00    +0.002 C 
ATOM      5  C   LIG    1        7.593   0.280  -1.890  0.00  0.00    +0.027 C 
ATOM      6  C   LIG    1        8.754   1.272  -1.657  0.00  0.00    +0.085 C 
ATOM      7  N   LIG    1        8.354   2.675  -1.766  0.00  0.00    -0.302 NA
ATOM      8  C   LIG    1        9.473   3.575  -1.502  0.00  0.00    +0.105 C 
ATOM      9  C   LIG    1        7.647   3.020  -3.028  0.00  0.00    +0.065 C 
ATOM     10  C   LIG    1        6.353   3.768  -2.667  0.00  0.00    +0.054 C 
ATOM     11  C   LIG    1        7.309   1.770  -3.857  0.00  0.00    +0.017 C 
ATOM     12  C   LIG    1        6.555   2.016  -5.169  0.00  0.00    +0.006 C 
ATOM     13  C   LIG    1        6.482   0.726  -5.996  0.00  0.00    +0.000 C 
ATOM     14  C   LIG    1        6.651  -0.545  -5.159  0.00  0.00    +0.001 C 
ATOM     15  C   LIG    1        5.986  -0.409  -3.791  0.00  0.00    +0.012 C 
ATOM     16  C   LIG    1        5.308   2.860  -2.060  0.00  0.00    -0.042 A 
ATOM     17  C   LIG    1        4.231   3.445  -1.377  0.00  0.00    +0.007 A 
ATOM     18  C   LIG    1        3.259   2.651  -0.772  0.00  0.00    +0.046 A 
ENDROOT
BRANCH   1  20
ATOM     19  C   LIG    1        2.386  -0.821  -0.202  0.00  0.00    +0.277 C 
ATOM     20  O   LIG    1        2.339   0.600  -0.182  0.00  0.00    -0.495 OA
ENDBRANCH   1  20
TORSDOF 1
