REMARK  Name = *****
REMARK                            x       y       z     vdW  Elec       q    Type
REMARK                         _______ _______ _______ _____ _____    ______ ____
ROOT
ATOM      1  C   LIG    1       18.638  -1.934 -16.091  0.00  0.00    +0.163 C 
ATOM      2  C   LIG    1       18.732  -1.867 -14.566  0.00  0.00    +0.209 C 
ATOM      3  N   LIG    1       18.138  -0.565 -14.237  0.00  0.00    -0.281 N 
ATOM      4  C   LIG    1       18.906   0.284 -13.424  0.00  0.00    +0.269 C 
ATOM      5  C   LIG    1       18.732   1.734 -13.540  0.00  0.00    +0.164 A 
ATOM      6  N   LIG    1       17.561   2.414 -13.858  0.00  0.00    -0.208 NA
ATOM      7  C   LIG    1       17.895   3.691 -13.748  0.00  0.00    +0.203 A 
ATOM      8  C   LIG    1       17.014   4.885 -13.772  0.00  0.00    +0.170 C 
ATOM      9  C   LIG    1       16.648   5.250 -12.344  0.00  0.00    +0.145 C 
ATOM     10  C   LIG    1       15.417   4.625 -11.697  0.00  0.00    +0.110 C 
ATOM     11  C   LIG    1       15.433   3.106 -11.813  0.00  0.00    +0.145 C 
ATOM     12  C   LIG    1       14.660   2.359 -10.766  0.00  0.00    +0.007 C 
ATOM     13  C   LIG    1       14.742   1.024 -10.574  0.00  0.00    -0.052 C 
ATOM     14  C   LIG    1       14.151   0.432  -9.380  0.00  0.00    +0.000 C 
ATOM     15  C   LIG    1       13.963  -0.885  -9.212  0.00  0.00    -0.008 C 
ATOM     16  C   LIG    1       13.752  -1.553  -7.886  0.00  0.00    +0.132 C 
ATOM     17  N   LIG    1       14.982  -2.296  -7.676  0.00  0.00    -0.308 N 
ATOM     18  H   LIG    1       15.818  -1.742  -7.802  0.00  0.00    +0.149 HD
ATOM     19  C   LIG    1       15.020  -3.585  -8.151  0.00  0.00    +0.237 C 
ATOM     20  C   LIG    1       16.215  -3.842  -9.003  0.00  0.00    +0.063 C 
ATOM     21  C   LIG    1       15.929  -4.370 -10.204  0.00  0.00    -0.015 C 
ATOM     22  C   LIG    1       16.815  -4.790 -11.360  0.00  0.00    +0.050 C 
ATOM     23  C   LIG    1       16.389  -4.240 -12.777  0.00  0.00    +0.186 C 
ATOM     24  O   LIG    1       17.094  -3.008 -13.131  0.00  0.00    -0.459 OA
ATOM     25  C   LIG    1       18.308  -4.604 -11.077  0.00  0.00    +0.015 C 
ATOM     26  O   LIG    1       14.086  -4.375  -8.080  0.00  0.00    -0.271 OA
ATOM     27  C   LIG    1       15.561   0.100 -11.454  0.00  0.00    +0.043 C 
ATOM     28  O   LIG    1       17.312   6.083 -11.719  0.00  0.00    -0.297 OA
ATOM     29  O   LIG    1       19.212   3.906 -13.458  0.00  0.00    -0.447 OA
ATOM     30  C   LIG    1       19.732   2.658 -13.322  0.00  0.00    +0.230 A 
ATOM     31  O   LIG    1       19.768  -0.183 -12.677  0.00  0.00    -0.268 OA
ATOM     32  C   LIG    1       17.310  -0.081 -15.340  0.00  0.00    +0.111 C 
ATOM     33  C   LIG    1       18.126  -3.160 -14.007  0.00  0.00    +0.330 C 
ATOM     34  O   LIG    1       18.557  -4.250 -14.379  0.00  0.00    -0.249 OA
ATOM     35  C   LIG    1       17.333  -1.193 -16.380  0.00  0.00    +0.047 C 
ENDROOT
BRANCH   1  36
ATOM     36  S   LIG    1       20.034  -1.120 -16.873  0.00  0.00    -0.025 S 
ATOM     37  O   LIG    1       19.840  -1.241 -18.313  0.00  0.00    -0.174 OA
ATOM     38  O   LIG    1       20.200   0.190 -16.288  0.00  0.00    -0.174 OA
BRANCH  36  39
ATOM     39  C   LIG    1       21.487  -2.058 -16.448  0.00  0.00    +0.181 C 
BRANCH  39  40
ATOM     40  C   LIG    1       21.444  -3.490 -16.956  0.00  0.00    +0.107 C 
BRANCH  40  41
ATOM     41  N   LIG    1       22.649  -4.295 -16.693  0.00  0.00    -0.301 NA
BRANCH  41  43
ATOM     42  C   LIG    1       23.849  -3.356 -18.742  0.00  0.00    +0.020 C 
ATOM     43  C   LIG    1       23.886  -3.712 -17.261  0.00  0.00    +0.081 C 
ENDBRANCH  41  43
BRANCH  41  44
ATOM     44  C   LIG    1       22.908  -4.595 -15.268  0.00  0.00    +0.081 C 
ATOM     45  C   LIG    1       21.794  -5.253 -14.460  0.00  0.00    +0.020 C 
ENDBRANCH  41  44
ENDBRANCH  40  41
ENDBRANCH  39  40
ENDBRANCH  36  39
ENDBRANCH   1  36
BRANCH  23  46
ATOM     46  C   LIG    1       14.862  -4.011 -12.996  0.00  0.00    +0.024 C 
ATOM     47  C   LIG    1       14.021  -5.283 -12.815  0.00  0.00    +0.011 C 
ATOM     48  C   LIG    1       14.574  -3.464 -14.402  0.00  0.00    +0.011 C 
ENDBRANCH  23  46
BRANCH  11  49
ATOM     49  O   LIG    1       14.896   2.757 -13.084  0.00  0.00    -0.387 OA
ATOM     50  H   LIG    1       15.600   2.256 -13.545  0.00  0.00    +0.210 HD
ENDBRANCH  11  49
TORSDOF 8
