REMARK  Name = *****
REMARK                            x       y       z     vdW  Elec       q    Type
REMARK                         _______ _______ _______ _____ _____    ______ ____
ROOT
ATOM      1  C   LIG    1        2.776   0.837   1.323  0.00  0.00    +0.162 A 
ATOM      2  C   LIG    1        3.862   1.711   1.188  0.00  0.00    +0.162 A 
ATOM      3  C   LIG    1        4.429   2.263   2.342  0.00  0.00    +0.054 A 
ATOM      4  C   LIG    1        3.914   2.020   3.625  0.00  0.00    -0.023 A 
ATOM      5  C   LIG    1        4.546   2.670   4.854  0.00  0.00    +0.094 C 
ATOM      6  N   LIG    1        3.641   2.708   6.028  0.00  0.00    -0.294 NA
ATOM      7  C   LIG    1        3.126   1.347   6.275  0.00  0.00    +0.089 C 
ATOM      8  C   LIG    1        2.288   0.772   5.118  0.00  0.00    +0.051 C 
ATOM      9  C   LIG    1        2.539   3.678   5.886  0.00  0.00    +0.096 C 
ATOM     10  C   LIG    1        2.986   5.109   5.551  0.00  0.00    +0.070 C 
ATOM     11  C   LIG    1        3.991   5.039   4.420  0.00  0.00    +0.139 C 
ATOM     12  O   LIG    1        3.959   5.777   3.426  0.00  0.00    -0.297 OA
ATOM     13  C   LIG    1        5.124   4.073   4.635  0.00  0.00    +0.098 C 
ATOM     14  C   LIG    1        2.848   1.114   3.756  0.00  0.00    -0.038 A 
ATOM     15  C   LIG    1        2.273   0.555   2.603  0.00  0.00    +0.053 A 
ENDROOT
BRANCH   1  17
ATOM     16  C   LIG    1        2.802  -0.089  -0.866  0.00  0.00    +0.277 C 
ATOM     17  O   LIG    1        2.075   0.224   0.315  0.00  0.00    -0.491 OA
ENDBRANCH   1  17
BRANCH   2  18
ATOM     18  O   LIG    1        4.384   1.966  -0.053  0.00  0.00    -0.491 OA
ATOM     19  C   LIG    1        4.927   3.268  -0.260  0.00  0.00    +0.277 C 
ENDBRANCH   2  18
BRANCH  10  20
ATOM     20  C   LIG    1        1.786   6.010   5.198  0.00  0.00    +0.015 C 
BRANCH  20  21
ATOM     21  C   LIG    1        0.746   6.176   6.324  0.00  0.00    -0.016 C 
ATOM     22  C   LIG    1       -0.440   7.011   5.835  0.00  0.00    +0.007 C 
ATOM     23  C   LIG    1        1.355   6.814   7.573  0.00  0.00    +0.007 C 
ENDBRANCH  20  21
ENDBRANCH  10  20
TORSDOF 4
