REMARK  Name = *****
REMARK                            x       y       z     vdW  Elec       q    Type
REMARK                         _______ _______ _______ _____ _____    ______ ____
ROOT
ATOM      1  C   LIG    1        5.842   0.552  -1.417  0.00  0.00    -0.047 A 
ATOM      2  C   LIG    1        6.380  -0.286  -0.437  0.00  0.00    +0.005 A 
ATOM      3  C   LIG    1        7.771  -0.257  -0.128  0.00  0.00    +0.023 A 
ATOM      4  C   LIG    1        8.679   0.593  -0.791  0.00  0.00    +0.030 A 
ATOM      5  C   LIG    1        8.112   1.337  -1.842  0.00  0.00    +0.023 A 
ATOM      6  C   LIG    1        6.739   1.329  -2.144  0.00  0.00    +0.005 A 
ENDROOT
BRANCH   1   7
ATOM      7  C   LIG    1        4.361   0.671  -1.716  0.00  0.00    +0.035 C 
BRANCH   7   8
ATOM      8  C   LIG    1        3.604   1.738  -0.896  0.00  0.00    +0.016 C 
BRANCH   8   9
ATOM      9  C   LIG    1        4.144   3.157  -1.055  0.00  0.00    +0.121 C 
BRANCH   9  11
ATOM     10  O   LIG    1        2.188   4.076   0.041  0.00  0.00    -0.251 OA
ATOM     11  C   LIG    1        3.358   4.156  -0.220  0.00  0.00    +0.305 C 
BRANCH  11  12
ATOM     12  O   LIG    1        4.139   5.212   0.178  0.00  0.00    -0.481 OA
ATOM     13  H   LIG    1        5.067   5.158  -0.116  0.00  0.00    +0.295 HD
ENDBRANCH  11  12
ENDBRANCH   9  11
ENDBRANCH   8   9
ENDBRANCH   7   8
ENDBRANCH   1   7
BRANCH   4  14
ATOM     14  N   LIG    1       10.042   0.733  -0.427  0.00  0.00    -0.328 N 
BRANCH  14  15
ATOM     15  C   LIG    1       10.816  -0.470  -0.026  0.00  0.00    +0.121 C 
BRANCH  15  16
ATOM     16  C   LIG    1       12.013  -0.320   0.928  0.00  0.00    +0.127 C 
ATOM     17 CL   LIG    1       11.615   0.502   2.454  0.00  0.00    -0.124 Cl
ENDBRANCH  15  16
ENDBRANCH  14  15
BRANCH  14  18
ATOM     18  C   LIG    1       10.640   2.087  -0.601  0.00  0.00    +0.121 C 
BRANCH  18  19
ATOM     19  C   LIG    1       12.153   2.292  -0.692  0.00  0.00    +0.127 C 
ATOM     20 CL   LIG    1       12.888   1.435  -2.068  0.00  0.00    -0.124 Cl
ENDBRANCH  18  19
ENDBRANCH  14  18
ENDBRANCH   4  14
TORSDOF 10
