REMARK  Name = *****
REMARK                            x       y       z     vdW  Elec       q    Type
REMARK                         _______ _______ _______ _____ _____    ______ ____
ROOT
ATOM      1  C   LIG    1        4.271  -2.108   6.016  0.00  0.00    +0.073 A 
ATOM      2  C   LIG    1        5.629  -2.466   5.804  0.00  0.00    +0.058 A 
ATOM      3 CL   LIG    1        6.219  -2.925   4.231  0.00  0.00    -0.082 Cl
ATOM      4  C   LIG    1        6.574  -2.407   6.861  0.00  0.00    -0.022 A 
ATOM      5  C   LIG    1        8.000  -2.921   6.689  0.00  0.00    +0.056 C 
ATOM      6  C   LIG    1        8.896  -2.732   7.923  0.00  0.00    +0.113 C 
ATOM      7  N   LIG    1        8.141  -2.914   9.156  0.00  0.00    -0.293 N 
ATOM      8  C   LIG    1        7.096  -1.916   9.311  0.00  0.00    +0.143 C 
ATOM      9  C   LIG    1        8.085  -4.202   9.701  0.00  0.00    +0.247 C 
ATOM     10  O   LIG    1        8.648  -5.159   9.168  0.00  0.00    -0.270 OA
ATOM     11  C   LIG    1        6.157  -1.954   8.128  0.00  0.00    -0.024 A 
ATOM     12  C   LIG    1        4.845  -1.521   8.310  0.00  0.00    +0.026 A 
ATOM     13  C   LIG    1        3.910  -1.612   7.281  0.00  0.00    +0.055 A 
ATOM     14 CL   LIG    1        2.323  -1.092   7.729  0.00  0.00    -0.083 Cl
ENDROOT
BRANCH   9  15
ATOM     15  C   LIG    1        7.357  -4.464  10.976  0.00  0.00    +0.040 A 
ATOM     16  C   LIG    1        7.354  -3.528  12.019  0.00  0.00    +0.059 A 
ATOM     17  C   LIG    1        6.675  -3.888  13.181  0.00  0.00    +0.136 A 
ATOM     18  C   LIG    1        6.064  -5.119  13.386  0.00  0.00    +0.020 A 
ATOM     19  C   LIG    1        5.530  -5.068  14.701  0.00  0.00    +0.049 A 
ATOM     20  C   LIG    1        5.824  -3.816  15.192  0.00  0.00    +0.196 A 
ATOM     21  C   LIG    1        6.116  -6.072  12.355  0.00  0.00    +0.012 A 
ATOM     22  O   LIG    1        6.524  -3.095  14.277  0.00  0.00    -0.463 OA
ATOM     23  C   LIG    1        6.761  -5.726  11.155  0.00  0.00    +0.014 A 
ENDBRANCH   9  15
BRANCH   1  26
ATOM     24  N   LIG    1        2.217  -1.379   4.872  0.00  0.00    -0.298 N 
ATOM     25  H   LIG    1        2.029  -0.812   5.691  0.00  0.00    +0.150 HD
ATOM     26  C   LIG    1        3.262  -2.285   4.920  0.00  0.00    +0.248 C 
ATOM     27  O   LIG    1        3.364  -3.159   4.072  0.00  0.00    -0.270 OA
BRANCH  24  28
ATOM     28  CA  LIG    1        1.130  -1.484   3.875  0.00  0.00    +0.186 C 
BRANCH  28  29
ATOM     29  C   LIG    1        1.504  -0.635   2.647  0.00  0.00    +0.326 C 
ATOM     30  O   LIG    1        0.792  -0.494   1.663  0.00  0.00    -0.249 OA
BRANCH  29  31
ATOM     31  OXT LIG    1        2.685   0.023   2.775  0.00  0.00    -0.479 OA
ATOM     32  HXT LIG    1        3.117  -0.269   3.604  0.00  0.00    +0.295 HD
ENDBRANCH  29  31
ENDBRANCH  28  29
BRANCH  28  33
ATOM     33  C   LIG    1       -0.209  -0.948   4.428  0.00  0.00    +0.069 C 
BRANCH  33  36
ATOM     34  C   LIG    1       -1.560  -1.732   7.920  0.00  0.00    +0.088 A 
ATOM     35  C   LIG    1       -1.018  -1.034   6.835  0.00  0.00    +0.030 A 
ATOM     36  C   LIG    1       -0.783  -1.698   5.613  0.00  0.00    -0.043 A 
ATOM     37  C   LIG    1       -1.112  -3.054   5.519  0.00  0.00    +0.004 A 
ATOM     38  C   LIG    1       -1.659  -3.739   6.605  0.00  0.00    +0.002 A 
ATOM     39  C   LIG    1       -1.878  -3.087   7.816  0.00  0.00    +0.027 A 
BRANCH  34  41
ATOM     40  C   LIG    1       -3.394  -0.311   9.502  0.00  0.00    +0.200 C 
ATOM     41  S   LIG    1       -1.730  -0.920   9.499  0.00  0.00    -0.006 S 
ATOM     42  O   LIG    1       -1.623  -1.940  10.526  0.00  0.00    -0.170 OA
ATOM     43  O   LIG    1       -0.835   0.222   9.491  0.00  0.00    -0.170 OA
ENDBRANCH  34  41
ENDBRANCH  33  36
ENDBRANCH  28  33
ENDBRANCH  24  28
ENDBRANCH   1  26
TORSDOF 8
