REMARK  Name = *****
REMARK                            x       y       z     vdW  Elec       q    Type
REMARK                         _______ _______ _______ _____ _____    ______ ____
ROOT
ATOM      1  C   LIG    1       -5.895  -5.903   3.138  0.00  0.00    +0.176 C 
ATOM      2  O   LIG    1       -6.002  -4.844   4.125  0.00  0.00    -0.461 OA
ATOM      3  C   LIG    1       -4.910  -4.672   4.907  0.00  0.00    +0.308 C 
ATOM      4  O   LIG    1       -3.893  -5.383   4.869  0.00  0.00    -0.251 OA
ATOM      5  C   LIG    1       -5.025  -3.500   5.867  0.00  0.00    +0.129 C 
ATOM      6  C   LIG    1       -4.779  -2.096   5.261  0.00  0.00    +0.040 C 
ATOM      7  C   LIG    1       -3.696  -2.291   4.248  0.00  0.00    -0.004 C 
ATOM      8  C   LIG    1       -2.477  -2.220   4.828  0.00  0.00    -0.015 C 
ATOM      9  C   LIG    1       -2.572  -1.401   6.096  0.00  0.00    +0.023 C 
ATOM     10  C   LIG    1       -2.268  -1.737   7.575  0.00  0.00    +0.006 C 
ATOM     11  C   LIG    1       -2.304  -0.377   8.328  0.00  0.00    +0.021 C 
ATOM     12  C   LIG    1       -2.374  -0.823   9.793  0.00  0.00    +0.040 C 
ATOM     13  C   LIG    1       -3.452  -1.900   9.798  0.00  0.00    +0.122 C 
ATOM     14  C   LIG    1       -3.511   0.479   7.922  0.00  0.00    -0.073 C 
ATOM     15  C   LIG    1       -3.515   1.887   8.441  0.00  0.00    +0.039 C 
ATOM     16  C   LIG    1       -4.433   0.062   7.022  0.00  0.00    -0.023 C 
ATOM     17  C   LIG    1       -3.227  -2.605   8.442  0.00  0.00    +0.036 C 
ATOM     18  C   LIG    1       -3.945  -2.376   2.795  0.00  0.00    +0.165 C 
ATOM     19  O   LIG    1       -3.292  -3.203   2.157  0.00  0.00    -0.292 OA
ATOM     20  C   LIG    1       -4.823  -1.305   2.088  0.00  0.00    +0.086 C 
ATOM     21  C   LIG    1       -5.819  -0.427   2.855  0.00  0.00    +0.018 C 
ATOM     22  C   LIG    1       -5.565  -1.914   0.865  0.00  0.00    +0.132 C 
ATOM     23  C   LIG    1       -6.525  -3.057   1.301  0.00  0.00    +0.032 C 
ATOM     24  C   LIG    1       -6.069  -4.483   1.006  0.00  0.00    +0.006 C 
ATOM     25  C   LIG    1       -4.023  -0.914   5.955  0.00  0.00    +0.027 C 
ATOM     26  C   LIG    1       -6.746  -5.525   1.911  0.00  0.00    +0.045 C 
ENDROOT
BRANCH   1  28
ATOM     27  C   LIG    1       -5.612  -7.799   4.876  0.00  0.00    +0.007 C 
ATOM     28  C   LIG    1       -6.398  -7.252   3.694  0.00  0.00    +0.041 C 
ENDBRANCH   1  28
BRANCH  13  29
ATOM     29  O   LIG    1       -4.806  -1.413   9.775  0.00  0.00    -0.345 OA
BRANCH  29  30
ATOM     30  C   LIG    1       -5.202  -0.584  10.872  0.00  0.00    +0.282 C 
ATOM     31  C   LIG    1       -6.631  -0.050  10.560  0.00  0.00    +0.205 C 
ATOM     32  C   LIG    1       -7.646  -1.042  11.162  0.00  0.00    +0.182 C 
ATOM     33  C   LIG    1       -7.473  -1.086  12.707  0.00  0.00    +0.178 C 
ATOM     34  C   LIG    1       -5.985  -0.950  13.128  0.00  0.00    +0.150 C 
ATOM     35  C   LIG    1       -5.592   0.390  13.755  0.00  0.00    +0.040 C 
ATOM     36  O   LIG    1       -5.094  -1.327  12.078  0.00  0.00    -0.343 OA
BRANCH  31  37
ATOM     37  O   LIG    1       -6.920   1.250  11.124  0.00  0.00    -0.372 OA
ATOM     38  C   LIG    1       -6.113   2.308  10.631  0.00  0.00    +0.194 C 
ENDBRANCH  31  37
BRANCH  32  39
ATOM     39  O   LIG    1       -9.021  -0.685  10.871  0.00  0.00    -0.374 OA
ATOM     40  C   LIG    1       -9.335  -0.648   9.485  0.00  0.00    +0.194 C 
ENDBRANCH  32  39
BRANCH  33  41
ATOM     41  O   LIG    1       -7.903  -2.358  13.257  0.00  0.00    -0.375 OA
ATOM     42  C   LIG    1       -9.262  -2.687  13.020  0.00  0.00    +0.194 C 
ENDBRANCH  33  41
ENDBRANCH  29  30
ENDBRANCH  13  29
BRANCH  22  43
ATOM     43  O   LIG    1       -4.702  -2.296  -0.218  0.00  0.00    -0.347 OA
BRANCH  43  44
ATOM     44  C   LIG    1       -3.842  -1.238  -0.655  0.00  0.00    +0.251 C 
ATOM     45  O   LIG    1       -4.611  -0.145  -1.123  0.00  0.00    -0.347 OA
ATOM     46  C   LIG    1       -3.862   1.039  -1.424  0.00  0.00    +0.135 C 
ATOM     47  C   LIG    1       -4.918   1.940  -2.082  0.00  0.00    +0.039 C 
ATOM     48  C   LIG    1       -2.602   0.806  -2.342  0.00  0.00    +0.085 C 
ATOM     49  C   LIG    1       -1.952  -0.583  -2.078  0.00  0.00    +0.026 C 
ATOM     50  C   LIG    1       -2.956  -1.696  -1.790  0.00  0.00    +0.063 C 
BRANCH  48  51
ATOM     51  N   LIG    1       -1.556   1.877  -2.236  0.00  0.00    -0.303 NA
ATOM     52  C   LIG    1       -0.427   1.666  -3.151  0.00  0.00    +0.105 C 
ATOM     53  C   LIG    1       -2.072   3.232  -2.447  0.00  0.00    +0.105 C 
ENDBRANCH  48  51
ENDBRANCH  43  44
ENDBRANCH  22  43
TORSDOF 9
