REMARK  Name = *****
REMARK                            x       y       z     vdW  Elec       q    Type
REMARK                         _______ _______ _______ _____ _____    ______ ____
ROOT
ATOM      1  N   LIG    1        8.124   5.806   0.770  0.00  0.00    -0.084 NA
ATOM      2  C   LIG    1        9.414   5.802   0.584  0.00  0.00    +0.118 A 
ATOM      3  C   LIG    1       10.227   4.821   1.343  0.00  0.00    +0.011 A 
ATOM      4  C   LIG    1       11.263   5.241   2.191  0.00  0.00    -0.016 A 
ATOM      5  C   LIG    1       11.962   4.268   2.919  0.00  0.00    +0.008 A 
ATOM      6  C   LIG    1       11.668   2.910   2.766  0.00  0.00    +0.001 A 
ATOM      7  C   LIG    1       10.654   2.506   1.900  0.00  0.00    +0.001 A 
ATOM      8  C   LIG    1       11.620   6.652   2.398  0.00  0.00    +0.009 A 
ATOM      9  C   LIG    1       11.626   7.606   1.460  0.00  0.00    +0.009 A 
ATOM     10  C   LIG    1       11.241   7.449   0.049  0.00  0.00    -0.016 A 
ATOM     11  C   LIG    1       11.939   8.191  -0.916  0.00  0.00    +0.008 A 
ATOM     12  C   LIG    1       11.570   8.144  -2.264  0.00  0.00    +0.001 A 
ATOM     13  C   LIG    1       10.487   7.366  -2.666  0.00  0.00    +0.001 A 
ATOM     14  C   LIG    1        9.784   6.622  -1.722  0.00  0.00    +0.010 A 
ATOM     15  C   LIG    1        9.921   3.461   1.198  0.00  0.00    +0.010 A 
ATOM     16  C   LIG    1       10.157   6.665  -0.370  0.00  0.00    +0.011 A 
ENDROOT
BRANCH   1  17
ATOM     17  O   LIG    1        7.495   6.845   0.066  0.00  0.00    -0.392 OA
BRANCH  17  18
ATOM     18  C   LIG    1        6.094   6.835   0.354  0.00  0.00    +0.277 C 
BRANCH  18  19
ATOM     19  C   LIG    1        5.664   8.200   0.911  0.00  0.00    +0.124 C 
BRANCH  19  21
ATOM     20  C   LIG    1        5.448  10.576   0.539  0.00  0.00    +0.101 C 
ATOM     21  N   LIG    1        5.869   9.306  -0.040  0.00  0.00    -0.316 NA
ATOM     22  H   LIG    1        6.866   9.347  -0.264  0.00  0.00    +0.122 HD
ENDBRANCH  19  21
ENDBRANCH  18  19
ENDBRANCH  17  18
ENDBRANCH   1  17
TORSDOF 4
