REMARK  Name = *****
REMARK                            x       y       z     vdW  Elec       q    Type
REMARK                         _______ _______ _______ _____ _____    ______ ____
ROOT
ATOM      1  C   LIG    1        3.000   1.318  -0.386  0.00  0.00    +0.225 C 
ATOM      2  N   LIG    1        2.340   2.503  -0.322  0.00  0.00    -0.287 N 
ATOM      3  H   LIG    1        1.406   2.557   0.070  0.00  0.00    +0.172 HD
ATOM      4  C   LIG    1        2.926   3.631  -0.784  0.00  0.00    +0.330 C 
ATOM      5  O   LIG    1        2.367   4.721  -0.745  0.00  0.00    -0.247 OA
ATOM      6  N   LIG    1        4.172   3.471  -1.291  0.00  0.00    -0.259 N 
ATOM      7  H   LIG    1        4.655   4.279  -1.649  0.00  0.00    +0.175 HD
ATOM      8  C   LIG    1        4.823   2.273  -1.350  0.00  0.00    +0.352 C 
ATOM      9  O   LIG    1        5.950   2.220  -1.827  0.00  0.00    -0.244 OA
ATOM     10  N   LIG    1        4.187   1.160  -0.868  0.00  0.00    -0.168 NA
ENDROOT
BRANCH   1  12
ATOM     11  O   LIG    1        1.129   0.217   0.623  0.00  0.00    -0.242 OA
ATOM     12  C   LIG    1        2.249   0.113   0.161  0.00  0.00    +0.373 C 
BRANCH  12  13
ATOM     13  O   LIG    1        2.978  -1.007   0.059  0.00  0.00    -0.475 OA
ATOM     14  H   LIG    1        3.850  -0.801  -0.354  0.00  0.00    +0.295 HD
ENDBRANCH  12  13
ENDBRANCH   1  12
TORSDOF 2
