REMARK  Name = *****
REMARK                            x       y       z     vdW  Elec       q    Type
REMARK                         _______ _______ _______ _____ _____    ______ ____
ROOT
ATOM      1  C   LIG    1        4.089  -1.150   1.631  0.00  0.00    +0.161 C 
ENDROOT
BRANCH   1   2
ATOM      2  C   LIG    1        4.693  -1.831   2.850  0.00  0.00    -0.018 A 
ATOM      3  C   LIG    1        4.514  -1.331   4.153  0.00  0.00    +0.006 A 
ATOM      4  C   LIG    1        5.083  -1.988   5.249  0.00  0.00    +0.000 A 
ATOM      5  C   LIG    1        5.827  -3.149   5.067  0.00  0.00    +0.000 A 
ATOM      6  C   LIG    1        6.015  -3.658   3.782  0.00  0.00    +0.000 A 
ATOM      7  C   LIG    1        5.455  -2.998   2.686  0.00  0.00    +0.006 A 
ENDBRANCH   1   2
BRANCH   1   8
ATOM      8  C   LIG    1        2.525  -1.041   1.627  0.00  0.00    +0.083 C 
ATOM      9  C   LIG    1        1.865  -2.417   1.746  0.00  0.00    +0.027 C 
BRANCH   8  11
ATOM     10  C   LIG    1        0.698   0.002   0.335  0.00  0.00    +0.101 C 
ATOM     11  N   LIG    1        2.102  -0.369   0.373  0.00  0.00    -0.314 NA
ATOM     12  H   LIG    1        2.687   0.465   0.260  0.00  0.00    +0.122 HD
ENDBRANCH   8  11
ENDBRANCH   1   8
BRANCH   1  13
ATOM     13  O   LIG    1        4.636   0.175   1.500  0.00  0.00    -0.386 OA
ATOM     14  H   LIG    1        4.794   0.521   2.392  0.00  0.00    +0.210 HD
ENDBRANCH   1  13
TORSDOF 4
