REMARK  Name = *****
REMARK                            x       y       z     vdW  Elec       q    Type
REMARK                         _______ _______ _______ _____ _____    ______ ____
ROOT
ATOM      1  C   LIG    1        2.216  -0.079   0.002  0.00  0.00    +0.216 A 
ATOM      2  N   LIG    1        2.845  -1.263  -0.057  0.00  0.00    -0.198 NA
ATOM      3  C   LIG    1        4.203  -1.316   0.037  0.00  0.00    +0.152 A 
ATOM      4  C   LIG    1        4.888  -0.096   0.187  0.00  0.00    +0.148 A 
ATOM      5  N   LIG    1        6.226   0.212   0.319  0.00  0.00    -0.231 NA
ATOM      6  C   LIG    1        6.264   1.527   0.393  0.00  0.00    +0.202 A 
ATOM      7  N   LIG    1        5.016   2.088   0.300  0.00  0.00    -0.308 N 
ATOM      8  C   LIG    1        4.119   1.055   0.188  0.00  0.00    +0.168 A 
ATOM      9  N   LIG    1        2.784   1.134   0.088  0.00  0.00    -0.195 NA
ENDROOT
BRANCH   7  10
ATOM     10  C   LIG    1        4.663   3.500   0.329  0.00  0.00    +0.113 C 
ATOM     11  C   LIG    1        4.595   4.157  -1.066  0.00  0.00    +0.039 C 
ATOM     12  C   LIG    1        5.820   5.085  -1.191  0.00  0.00    +0.039 C 
ATOM     13  C   LIG    1        6.288   5.213   0.228  0.00  0.00    -0.023 C 
ATOM     14  C   LIG    1        5.660   4.360   1.049  0.00  0.00    -0.006 C 
BRANCH  12  15
ATOM     15  C   LIG    1        6.895   4.534  -2.134  0.00  0.00    +0.163 C 
BRANCH  15  16
ATOM     16  O   LIG    1        8.018   5.408  -2.192  0.00  0.00    -0.394 OA
ATOM     17  H   LIG    1        8.499   5.321  -1.351  0.00  0.00    +0.209 HD
ENDBRANCH  15  16
ENDBRANCH  12  15
ENDBRANCH   7  10
BRANCH   1  18
ATOM     18  N   LIG    1        0.838  -0.125  -0.081  0.00  0.00    -0.327 N 
ATOM     19  H   LIG    1        0.566  -1.001  -0.507  0.00  0.00    +0.145 HD
ATOM     20  H   LIG    1        0.484   0.723  -0.497  0.00  0.00    +0.145 HD
ENDBRANCH   1  18
BRANCH   3  21
ATOM     21  N   LIG    1        4.888  -2.541  -0.042  0.00  0.00    -0.324 N 
ATOM     22  H   LIG    1        5.841  -2.469   0.300  0.00  0.00    +0.148 HD
BRANCH  21  23
ATOM     23  C   LIG    1        4.179  -3.811  -0.092  0.00  0.00    +0.072 C 
ATOM     24  C   LIG    1        4.912  -5.082  -0.427  0.00  0.00    +0.024 C 
ATOM     25  C   LIG    1        4.389  -4.860   0.962  0.00  0.00    +0.024 C 
ENDBRANCH  21  23
ENDBRANCH   3  21
TORSDOF 6
