REMARK  Name = *****
REMARK                            x       y       z     vdW  Elec       q    Type
REMARK                         _______ _______ _______ _____ _____    ______ ____
ROOT
ATOM      1  C   LIG    1        9.494   4.367   1.659  0.00  0.00    +0.173 A 
ATOM      2  C   LIG    1        9.671   5.700   1.966  0.00  0.00    +0.167 A 
ATOM      3  O   LIG    1        9.148   6.768   1.292  0.00  0.00    -0.480 OA
ATOM      4  C   LIG    1        9.644   7.964   1.974  0.00  0.00    +0.229 C 
ATOM      5  C   LIG    1       10.664   7.540   3.054  0.00  0.00    +0.049 C 
ATOM      6  C   LIG    1       12.143   7.812   2.755  0.00  0.00    +0.043 C 
ATOM      7  C   LIG    1       12.929   7.316   4.007  0.00  0.00    +0.069 C 
ATOM      8  N   LIG    1       12.611   8.054   5.250  0.00  0.00    -0.301 NA
ATOM      9  C   LIG    1       13.657   9.010   5.612  0.00  0.00    +0.105 C 
ATOM     10  C   LIG    1       11.306   8.722   5.240  0.00  0.00    +0.085 C 
ATOM     11  C   LIG    1       12.658   5.762   4.260  0.00  0.00    +0.055 C 
ATOM     12  C   LIG    1       11.481   5.180   3.499  0.00  0.00    -0.038 A 
ATOM     13  C   LIG    1       11.300   3.825   3.217  0.00  0.00    +0.008 A 
ATOM     14  C   LIG    1       12.330   9.212   2.242  0.00  0.00    -0.021 C 
ATOM     15  C   LIG    1       11.433   9.722   1.381  0.00  0.00    +0.017 C 
ATOM     16  C   LIG    1       10.224   7.955   4.483  0.00  0.00    +0.031 C 
ATOM     17  C   LIG    1       10.195   8.974   0.933  0.00  0.00    +0.240 C 
ATOM     18  C   LIG    1       10.580   6.065   2.924  0.00  0.00    +0.012 A 
ATOM     19  C   LIG    1       10.298   3.418   2.306  0.00  0.00    +0.050 A 
ENDROOT
BRANCH   1  20
ATOM     20  O   LIG    1        8.708   3.951   0.581  0.00  0.00    -0.422 OA
BRANCH  20  22
ATOM     21  C   LIG    1        7.314   4.895  -1.057  0.00  0.00    +0.136 C 
ATOM     22  C   LIG    1        7.513   4.645   0.409  0.00  0.00    +0.309 C 
ATOM     23  O   LIG    1        6.719   4.947   1.291  0.00  0.00    -0.251 OA
ENDBRANCH  20  22
ENDBRANCH   1  20
BRANCH  17  24
ATOM     24  O   LIG    1        9.192   9.988   0.687  0.00  0.00    -0.454 OA
BRANCH  24  25
ATOM     25  C   LIG    1        8.213   9.656  -0.199  0.00  0.00    +0.305 C 
ATOM     26  O   LIG    1        8.142   8.619  -0.834  0.00  0.00    -0.251 OA
ATOM     27  C   LIG    1        7.247  10.796  -0.339  0.00  0.00    +0.136 C 
ENDBRANCH  24  25
ENDBRANCH  17  24
TORSDOF 4
