REMARK  Name = *****
REMARK                            x       y       z     vdW  Elec       q    Type
REMARK                         _______ _______ _______ _____ _____    ______ ____
ROOT
ATOM      1  C   LIG    1        7.036  -3.124  -4.044  0.00  0.00    +0.339 C 
ATOM      2  O   LIG    1        7.044  -2.017  -4.529  0.00  0.00    -0.245 OA
ENDROOT
BRANCH   1   3
ATOM      3  C   LIG    1        7.580  -4.342  -4.712  0.00  0.00    +0.059 A 
ATOM      4  C   LIG    1        8.245  -4.199  -5.932  0.00  0.00    +0.017 A 
ATOM      5  C   LIG    1        8.897  -5.302  -6.499  0.00  0.00    +0.024 A 
ATOM      6  C   LIG    1        8.893  -6.555  -5.867  0.00  0.00    +0.029 A 
ATOM      7  C   LIG    1        8.152  -6.690  -4.686  0.00  0.00    +0.024 A 
ATOM      8  C   LIG    1        7.507  -5.597  -4.110  0.00  0.00    +0.017 A 
BRANCH   6   9
ATOM      9  N   LIG    1        9.637  -7.650  -6.319  0.00  0.00    -0.336 N 
ATOM     10  C   LIG    1        8.824  -8.775  -6.776  0.00  0.00    +0.129 C 
ATOM     11  C   LIG    1       10.844  -7.369  -7.086  0.00  0.00    +0.129 C 
ENDBRANCH   6   9
ENDBRANCH   1   3
BRANCH   1  12
ATOM     12  O   LIG    1        6.618  -3.465  -2.796  0.00  0.00    -0.461 OA
BRANCH  12  13
ATOM     13  C   LIG    1        6.230  -2.383  -1.942  0.00  0.00    +0.236 C 
BRANCH  13  14
ATOM     14  C   LIG    1        4.750  -2.023  -2.155  0.00  0.00    +0.026 C 
BRANCH  14  15
ATOM     15  C   LIG    1        3.881  -3.290  -1.931  0.00  0.00    +0.003 C 
ATOM     16  C   LIG    1        2.383  -3.082  -2.105  0.00  0.00    +0.004 C 
ENDBRANCH  14  15
BRANCH  14  17
ATOM     17  C   LIG    1        4.291  -0.848  -1.262  0.00  0.00    +0.007 C 
BRANCH  17  18
ATOM     18  C   LIG    1        5.083   0.457  -1.438  0.00  0.00    +0.000 C 
BRANCH  18  20
ATOM     19  C   LIG    1        3.157   2.010  -0.743  0.00  0.00    +0.004 C 
ATOM     20  C   LIG    1        4.607   1.601  -0.530  0.00  0.00    -0.003 C 
ENDBRANCH  18  20
ENDBRANCH  17  18
ENDBRANCH  14  17
ENDBRANCH  13  14
ENDBRANCH  12  13
ENDBRANCH   1  12
TORSDOF 9
