REMARK  Name = *****
REMARK                            x       y       z     vdW  Elec       q    Type
REMARK                         _______ _______ _______ _____ _____    ______ ____
ROOT
ATOM      1  C   LIG    1       10.304  -1.702   1.336  0.00  0.00    +0.122 C 
ENDROOT
BRANCH   1   2
ATOM      2  C   LIG    1       11.267  -0.933   0.377  0.00  0.00    +0.172 C 
ATOM      3  C   LIG    1       10.966  -1.204  -1.122  0.00  0.00    +0.176 C 
ATOM      4  C   LIG    1       12.111  -0.761  -2.054  0.00  0.00    +0.177 C 
ATOM      5  C   LIG    1       13.464  -1.248  -1.530  0.00  0.00    +0.184 C 
ATOM      6  C   LIG    1       13.660  -0.753  -0.095  0.00  0.00    +0.207 C 
ATOM      7  O   LIG    1       12.610  -1.352   0.684  0.00  0.00    -0.356 OA
BRANCH   3   8
ATOM      8  O   LIG    1       10.756  -2.606  -1.391  0.00  0.00    -0.387 OA
ATOM      9  H   LIG    1       11.349  -3.123  -0.814  0.00  0.00    +0.210 HD
ENDBRANCH   3   8
BRANCH   4  10
ATOM     10  O   LIG    1       11.923  -1.326  -3.366  0.00  0.00    -0.387 OA
ATOM     11  H   LIG    1       11.372  -2.126  -3.226  0.00  0.00    +0.210 HD
ENDBRANCH   4  10
BRANCH   5  12
ATOM     12  O   LIG    1       14.523  -0.901  -2.419  0.00  0.00    -0.386 OA
ATOM     13  H   LIG    1       14.179  -1.105  -3.313  0.00  0.00    +0.210 HD
ENDBRANCH   5  12
BRANCH   6  14
ATOM     14  S   LIG    1       13.761   1.064   0.186  0.00  0.00    -0.131 S 
ATOM     15  C   LIG    1       15.147   1.485  -0.899  0.00  0.00    +0.087 C 
ENDBRANCH   6  14
ENDBRANCH   1   2
BRANCH   1  17
ATOM     16  C   LIG    1        7.899  -2.378   1.182  0.00  0.00    +0.231 C 
ATOM     17  N   LIG    1        8.882  -1.425   1.034  0.00  0.00    -0.307 N 
ATOM     18  H   LIG    1        8.575  -0.475   0.839  0.00  0.00    +0.149 HD
ATOM     19  O   LIG    1        8.173  -3.549   1.483  0.00  0.00    -0.274 OA
BRANCH  16  24
ATOM     20  C   LIG    1        4.148  -2.454   0.540  0.00  0.00    +0.005 C 
ATOM     21  C   LIG    1        4.609  -1.160  -0.161  0.00  0.00    +0.088 C 
ATOM     22  N   LIG    1        6.093  -1.201  -0.220  0.00  0.00    -0.294 NA
ATOM     23  C   LIG    1        6.521  -1.953  -1.405  0.00  0.00    +0.105 C 
ATOM     24  C   LIG    1        6.449  -1.873   1.065  0.00  0.00    +0.143 C 
ATOM     25  C   LIG    1        5.408  -2.974   1.236  0.00  0.00    +0.033 C 
BRANCH  20  26
ATOM     26  C   LIG    1        2.954  -2.231   1.484  0.00  0.00    +0.004 C 
BRANCH  26  28
ATOM     27  C   LIG    1        1.879  -4.574   1.334  0.00  0.00    +0.004 C 
ATOM     28  C   LIG    1        2.447  -3.480   2.225  0.00  0.00    -0.003 C 
ENDBRANCH  26  28
ENDBRANCH  20  26
ENDBRANCH  16  24
ENDBRANCH   1  17
BRANCH   1  29
ATOM     29  C   LIG    1       10.618  -1.532   2.863  0.00  0.00    +0.100 C 
ATOM     30 CL   LIG    1       10.190   0.116   3.437  0.00  0.00    -0.120 Cl
ATOM     31  C   LIG    1       12.059  -1.835   3.284  0.00  0.00    +0.026 C 
ENDBRANCH   1  29
TORSDOF 10
