REMARK  Name = *****
REMARK                            x       y       z     vdW  Elec       q    Type
REMARK                         _______ _______ _______ _____ _____    ______ ____
ROOT
ATOM      1  C   LIG    1        6.840  -2.081   1.920  0.00  0.00    +0.205 C 
ENDROOT
BRANCH   1   2
ATOM      2  C   LIG    1        7.727  -1.746   0.727  0.00  0.00    -0.007 A 
ATOM      3  C   LIG    1        9.080  -2.109   0.653  0.00  0.00    +0.007 A 
ATOM      4  C   LIG    1        9.847  -1.803  -0.479  0.00  0.00    +0.000 A 
ATOM      5  C   LIG    1        9.271  -1.149  -1.565  0.00  0.00    +0.000 A 
ATOM      6  C   LIG    1        7.925  -0.804  -1.525  0.00  0.00    +0.000 A 
ATOM      7  C   LIG    1        7.164  -1.100  -0.391  0.00  0.00    +0.007 A 
ENDBRANCH   1   2
BRANCH   1   8
ATOM      8  C   LIG    1        7.522  -2.149   3.308  0.00  0.00    +0.064 C 
BRANCH   8   9
ATOM      9  C   LIG    1        8.169  -0.845   3.788  0.00  0.00    +0.084 C 
BRANCH   9  11
ATOM     10  C   LIG    1        9.429   0.144   5.614  0.00  0.00    +0.101 C 
ATOM     11  N   LIG    1        8.771  -1.057   5.113  0.00  0.00    -0.319 NA
ATOM     12  H   LIG    1        8.051  -1.342   5.777  0.00  0.00    +0.122 HD
ENDBRANCH   9  11
ENDBRANCH   8   9
ENDBRANCH   1   8
BRANCH   1  13
ATOM     13  O   LIG    1        6.308  -3.403   1.691  0.00  0.00    -0.484 OA
BRANCH  13  14
ATOM     14  C   LIG    1        4.959  -3.583   1.599  0.00  0.00    +0.121 A 
ATOM     15  C   LIG    1        4.056  -2.668   1.056  0.00  0.00    +0.046 A 
ATOM     16  C   LIG    1        2.705  -3.007   0.923  0.00  0.00    +0.016 A 
ATOM     17  C   LIG    1        2.235  -4.268   1.309  0.00  0.00    +0.055 A 
ATOM     18  C   LIG    1        3.144  -5.178   1.870  0.00  0.00    +0.016 A 
ATOM     19  C   LIG    1        4.493  -4.832   2.006  0.00  0.00    +0.046 A 
BRANCH  17  20
ATOM     20  C   LIG    1        0.788  -4.636   1.087  0.00  0.00    +0.417 C 
ATOM     21  F   LIG    1        0.430  -4.558  -0.226  0.00  0.00    -0.166 F 
ATOM     22  F   LIG    1       -0.068  -3.814   1.755  0.00  0.00    -0.166 F 
ATOM     23  F   LIG    1        0.476  -5.902   1.482  0.00  0.00    -0.166 F 
ENDBRANCH  17  20
ENDBRANCH  13  14
ENDBRANCH   1  13
TORSDOF 7
