REMARK  Name = *****
REMARK                            x       y       z     vdW  Elec       q    Type
REMARK                         _______ _______ _______ _____ _____    ______ ____
ROOT
ATOM      1  N   LIG    1        8.549   4.380   1.861  0.00  0.00    -0.259 N 
ATOM      2  C   LIG    1        9.952   4.272   2.011  0.00  0.00    +0.333 C 
ATOM      3  O   LIG    1       10.497   3.334   1.432  0.00  0.00    -0.246 OA
ATOM      4  N   LIG    1       10.618   5.236   2.834  0.00  0.00    -0.280 N 
ATOM      5  C   LIG    1       11.888   5.094   3.670  0.00  0.00    +0.155 C 
ATOM      6  C   LIG    1        9.988   6.436   2.924  0.00  0.00    +0.168 A 
ATOM      7  N   LIG    1       10.454   7.547   3.553  0.00  0.00    -0.218 NA
ATOM      8  C   LIG    1        9.552   8.470   3.289  0.00  0.00    +0.202 A 
ATOM      9  N   LIG    1        8.540   7.968   2.530  0.00  0.00    -0.328 N 
ATOM     10  C   LIG    1        7.362   8.663   2.085  0.00  0.00    +0.150 C 
ATOM     11  C   LIG    1        8.777   6.651   2.309  0.00  0.00    +0.151 A 
ATOM     12  C   LIG    1        8.044   5.629   1.683  0.00  0.00    +0.282 C 
ATOM     13  O   LIG    1        6.995   5.887   0.984  0.00  0.00    -0.265 OA
ENDROOT
BRANCH   1  14
ATOM     14  C   LIG    1        7.832   3.183   1.352  0.00  0.00    +0.130 C 
BRANCH  14  15
ATOM     15  C   LIG    1        7.400   2.113   2.401  0.00  0.00    +0.022 C 
BRANCH  15  16
ATOM     16  C   LIG    1        8.413   1.123   3.039  0.00  0.00    +0.009 C 
BRANCH  16  17
ATOM     17  C   LIG    1        9.348   1.527   4.134  0.00  0.00    +0.074 C 
BRANCH  17  19
ATOM     18  C   LIG    1       11.801   1.955   3.127  0.00  0.00    +0.086 C 
ATOM     19  C   LIG    1       10.498   2.404   3.871  0.00  0.00    +0.130 C 
ATOM     20  O   LIG    1       10.294   3.449   4.469  0.00  0.00    -0.298 OA
ENDBRANCH  17  19
ENDBRANCH  16  17
ENDBRANCH  15  16
ENDBRANCH  14  15
ENDBRANCH   1  14
TORSDOF 5
