REMARK  Name = *****
REMARK                            x       y       z     vdW  Elec       q    Type
REMARK                         _______ _______ _______ _____ _____    ______ ____
ROOT
ATOM      1  C   LIG    1        6.147   2.526   6.221  0.00  0.00    +0.158 C 
ENDROOT
BRANCH   1   2
ATOM      2  C   LIG    1        7.646   2.401   6.057  0.00  0.00    -0.016 A 
ATOM      3  C   LIG    1        8.336   1.284   6.559  0.00  0.00    +0.033 A 
ATOM      4  C   LIG    1        9.705   1.105   6.370  0.00  0.00    +0.075 A 
ATOM      5  C   LIG    1       10.410   2.066   5.648  0.00  0.00    +0.138 A 
ATOM      6  C   LIG    1        9.752   3.194   5.145  0.00  0.00    +0.048 A 
ATOM      7  C   LIG    1        8.374   3.355   5.337  0.00  0.00    +0.010 A 
BRANCH   4   8
ATOM      8  N   LIG    1       10.233  -0.164   6.668  0.00  0.00    -0.285 N 
ATOM      9  H   LIG    1       10.203  -0.850   5.940  0.00  0.00    +0.155 HD
ATOM     10  C   LIG    1       11.064  -0.513   7.716  0.00  0.00    +0.330 C 
ATOM     11  O   LIG    1       11.534  -1.618   7.856  0.00  0.00    -0.279 OA
ENDBRANCH   4   8
BRANCH   5  12
ATOM     12  O   LIG    1       11.736   1.869   5.390  0.00  0.00    -0.505 OA
ATOM     13  H   LIG    1       12.117   2.713   5.096  0.00  0.00    +0.292 HD
ENDBRANCH   5  12
ENDBRANCH   1   2
BRANCH   1  14
ATOM     14  O   LIG    1        5.549   1.700   5.214  0.00  0.00    -0.386 OA
ATOM     15  H   LIG    1        5.599   2.186   4.373  0.00  0.00    +0.210 HD
ENDBRANCH   1  14
BRANCH   1  16
ATOM     16  C   LIG    1        5.581   2.082   7.601  0.00  0.00    +0.117 C 
BRANCH  16  17
ATOM     17  N   LIG    1        5.844   2.954   8.762  0.00  0.00    -0.310 NA
ATOM     18  H   LIG    1        5.587   3.905   8.491  0.00  0.00    +0.122 HD
BRANCH  17  19
ATOM     19  C   LIG    1        7.228   2.976   9.283  0.00  0.00    +0.055 C 
ATOM     20  C   LIG    1        7.737   1.582   9.700  0.00  0.00    +0.024 C 
BRANCH  19  21
ATOM     21  C   LIG    1        7.438   3.849  10.549  0.00  0.00    +0.053 C 
BRANCH  21  25
ATOM     22  C   LIG    1        6.144   7.945  10.735  0.00  0.00    +0.120 A 
ATOM     23  C   LIG    1        5.228   6.916  10.527  0.00  0.00    +0.046 A 
ATOM     24  C   LIG    1        5.650   5.598  10.453  0.00  0.00    +0.007 A 
ATOM     25  C   LIG    1        7.004   5.284  10.536  0.00  0.00    -0.046 A 
ATOM     26  C   LIG    1        7.931   6.316  10.749  0.00  0.00    +0.007 A 
ATOM     27  C   LIG    1        7.499   7.640  10.869  0.00  0.00    +0.046 A 
BRANCH  22  29
ATOM     28  C   LIG    1        4.578   9.599  10.181  0.00  0.00    +0.277 C 
ATOM     29  O   LIG    1        5.786   9.261  10.863  0.00  0.00    -0.495 OA
ENDBRANCH  22  29
ENDBRANCH  21  25
ENDBRANCH  19  21
ENDBRANCH  17  19
ENDBRANCH  16  17
ENDBRANCH   1  16
TORSDOF 10
