REMARK  Name = *****
REMARK                            x       y       z     vdW  Elec       q    Type
REMARK                         _______ _______ _______ _____ _____    ______ ____
ROOT
ATOM      1  C   LIG    1        4.490   1.956   0.274  0.00  0.00    +0.080 C 
ENDROOT
BRANCH   1   2
ATOM      2  C   LIG    1        4.850   3.480   0.439  0.00  0.00    -0.030 A 
ATOM      3  C   LIG    1        3.892   4.482   0.682  0.00  0.00    +0.005 A 
ATOM      4  C   LIG    1        4.255   5.826   0.841  0.00  0.00    +0.000 A 
ATOM      5  C   LIG    1        5.589   6.206   0.795  0.00  0.00    +0.000 A 
ATOM      6  C   LIG    1        6.565   5.239   0.578  0.00  0.00    +0.000 A 
ATOM      7  C   LIG    1        6.199   3.898   0.391  0.00  0.00    +0.005 A 
ENDBRANCH   1   2
BRANCH   1   8
ATOM      8  C   LIG    1        5.054   1.420  -1.099  0.00  0.00    -0.030 A 
ATOM      9  C   LIG    1        4.601   1.971  -2.314  0.00  0.00    +0.005 A 
ATOM     10  C   LIG    1        5.088   1.510  -3.546  0.00  0.00    +0.000 A 
ATOM     11  C   LIG    1        6.043   0.501  -3.595  0.00  0.00    +0.000 A 
ATOM     12  C   LIG    1        6.510  -0.059  -2.416  0.00  0.00    +0.000 A 
ATOM     13  C   LIG    1        6.021   0.392  -1.186  0.00  0.00    +0.005 A 
ENDBRANCH   1   8
BRANCH   1  14
ATOM     14  C   LIG    1        2.925   1.685   0.241  0.00  0.00    +0.148 C 
ATOM     15  O   LIG    1        2.136   2.429  -0.366  0.00  0.00    -0.296 OA
BRANCH  14  17
ATOM     16  C   LIG    1        1.338   0.717   1.948  0.00  0.00    +0.012 C 
ATOM     17  C   LIG    1        2.337   0.416   0.840  0.00  0.00    +0.072 C 
ENDBRANCH  14  17
ENDBRANCH   1  14
BRANCH   1  18
ATOM     18  C   LIG    1        5.205   1.197   1.447  0.00  0.00    +0.039 C 
BRANCH  18  19
ATOM     19  C   LIG    1        4.858   1.581   2.889  0.00  0.00    +0.085 C 
BRANCH  19  20
ATOM     20  N   LIG    1        5.541   0.692   3.856  0.00  0.00    -0.308 NA
ATOM     21  C   LIG    1        5.075   0.977   5.216  0.00  0.00    +0.104 C 
ATOM     22  C   LIG    1        7.001   0.825   3.806  0.00  0.00    +0.104 C 
ENDBRANCH  19  20
ENDBRANCH  18  19
ENDBRANCH   1  18
TORSDOF 7
