REMARK  Name = *****
REMARK                            x       y       z     vdW  Elec       q    Type
REMARK                         _______ _______ _______ _____ _____    ______ ____
ROOT
ATOM      1  C   LIG    1        2.172  -1.447  -1.969  0.00  0.00    +0.024 C 
ATOM      2  C   LIG    1        1.976  -0.146  -1.173  0.00  0.00    +0.055 C 
ENDROOT
BRANCH   2   3
ATOM      3  N   LIG    1        3.230   0.338  -0.540  0.00  0.00    -0.312 NA
ATOM      4  H   LIG    1        3.590  -0.393   0.073  0.00  0.00    +0.122 HD
BRANCH   3   5
ATOM      5  C   LIG    1        4.280   0.757  -1.486  0.00  0.00    +0.096 C 
BRANCH   5   6
ATOM      6  C   LIG    1        5.520   1.340  -0.790  0.00  0.00    +0.133 C 
BRANCH   6   7
ATOM      7  C   LIG    1        6.563   1.699  -1.785  0.00  0.00    +0.064 C 
ATOM      8  N   LIG    1        7.382   1.996  -2.546  0.00  0.00    -0.197 NA
ENDBRANCH   6   7
ENDBRANCH   5   6
ENDBRANCH   3   5
ENDBRANCH   2   3
BRANCH   2   9
ATOM      9  C   LIG    1        1.253   0.907  -2.055  0.00  0.00    +0.053 C 
BRANCH   9  10
ATOM     10  C   LIG    1        0.784   2.175  -1.375  0.00  0.00    -0.046 A 
ATOM     11  C   LIG    1        0.746   3.373  -2.107  0.00  0.00    +0.003 A 
ATOM     12  C   LIG    1        0.321   4.562  -1.511  0.00  0.00    +0.000 A 
ATOM     13  C   LIG    1       -0.088   4.568  -0.180  0.00  0.00    +0.000 A 
ATOM     14  C   LIG    1       -0.090   3.382   0.548  0.00  0.00    +0.000 A 
ATOM     15  C   LIG    1        0.330   2.192  -0.049  0.00  0.00    +0.003 A 
ENDBRANCH   9  10
ENDBRANCH   2   9
TORSDOF 6
