REMARK  Name = *****
REMARK                            x       y       z     vdW  Elec       q    Type
REMARK                         _______ _______ _______ _____ _____    ______ ____
ROOT
ATOM      1  N   LIG    1        4.700  -0.139   0.942  0.00  0.00    -0.311 N 
ATOM      2  H   LIG    1        5.678   0.064   1.123  0.00  0.00    +0.152 HD
ENDROOT
BRANCH   1   3
ATOM      3  C   LIG    1        4.462  -0.925  -0.235  0.00  0.00    +0.050 A 
ATOM      4  C   LIG    1        3.249  -0.828  -0.995  0.00  0.00    +0.022 A 
ATOM      5  C   LIG    1        3.099  -1.710  -2.085  0.00  0.00    +0.073 A 
ATOM      6  C   LIG    1        1.900  -1.753  -2.785  0.00  0.00    +0.028 A 
ATOM      7  C   LIG    1        0.837  -0.904  -2.485  0.00  0.00    +0.002 A 
ATOM      8  C   LIG    1        0.998   0.051  -1.497  0.00  0.00    +0.001 A 
ATOM      9  N   LIG    1        4.069  -2.518  -2.516  0.00  0.00    -0.247 NA
ATOM     10  C   LIG    1        5.230  -2.561  -1.861  0.00  0.00    +0.073 A 
ATOM     11  C   LIG    1        6.232  -3.348  -2.415  0.00  0.00    +0.028 A 
ATOM     12  C   LIG    1        7.467  -3.516  -1.793  0.00  0.00    +0.002 A 
ATOM     13  C   LIG    1        7.684  -2.929  -0.557  0.00  0.00    +0.001 A 
ATOM     14  C   LIG    1        6.693  -2.119   0.009  0.00  0.00    +0.012 A 
ATOM     15  C   LIG    1        2.196   0.103  -0.783  0.00  0.00    +0.012 A 
ATOM     16  C   LIG    1        5.469  -1.856  -0.663  0.00  0.00    +0.022 A 
ENDBRANCH   1   3
BRANCH   1  18
ATOM     17  C   LIG    1        4.189   1.446   2.779  0.00  0.00    +0.143 A 
ATOM     18  C   LIG    1        3.866   0.300   2.001  0.00  0.00    +0.074 A 
ATOM     19  C   LIG    1        2.657  -0.363   2.274  0.00  0.00    +0.029 A 
ATOM     20  C   LIG    1        1.800   0.067   3.287  0.00  0.00    +0.026 A 
ATOM     21  C   LIG    1        2.150   1.161   4.063  0.00  0.00    +0.051 A 
ATOM     22  C   LIG    1        3.314   1.870   3.791  0.00  0.00    +0.072 A 
BRANCH  17  24
ATOM     23  C   LIG    1        5.859   2.939   3.576  0.00  0.00    +0.277 C 
ATOM     24  O   LIG    1        5.359   2.125   2.504  0.00  0.00    -0.493 OA
ENDBRANCH  17  24
BRANCH  21  25
ATOM     25  N   LIG    1        1.302   1.576   5.130  0.00  0.00    -0.221 N 
ATOM     26  H   LIG    1        1.790   1.885   5.973  0.00  0.00    +0.173 HD
BRANCH  25  27
ATOM     27  S   LIG    1        0.083   2.686   4.761  0.00  0.00    +0.040 S 
ATOM     28  O   LIG    1        0.449   3.462   3.613  0.00  0.00    -0.155 OA
ATOM     29  O   LIG    1       -0.240   3.324   6.034  0.00  0.00    -0.155 OA
ATOM     30  C   LIG    1       -1.264   1.598   4.353  0.00  0.00    +0.218 C 
ENDBRANCH  25  27
ENDBRANCH  21  25
ENDBRANCH   1  18
TORSDOF 5
