REMARK  Name = *****
REMARK                            x       y       z     vdW  Elec       q    Type
REMARK                         _______ _______ _______ _____ _____    ______ ____
ROOT
ATOM      1  C   LIG    1        1.163  -0.156   0.082  0.00  0.00    +0.243 C 
ATOM      2  N   LIG    1        2.624  -0.179   0.207  0.00  0.00    -0.255 N 
ENDROOT
BRANCH   2   3
ATOM      3  C   LIG    1        3.240  -1.282   0.749  0.00  0.00    +0.379 C 
ATOM      4  N   LIG    1        2.702  -2.374   1.156  0.00  0.00    -0.130 NA
ATOM      5  H   LIG    1        1.694  -2.375   1.008  0.00  0.00    +0.306 HD
BRANCH   3   6
ATOM      6  N   LIG    1        4.577  -1.190   0.886  0.00  0.00    -0.289 N 
ATOM      7  H   LIG    1        4.911  -2.050   1.316  0.00  0.00    +0.255 HD
ATOM      8  H   LIG    1        4.888  -0.410   1.456  0.00  0.00    +0.255 HD
ENDBRANCH   3   6
ENDBRANCH   2   3
BRANCH   2   9
ATOM      9  C   LIG    1        3.316   0.549  -0.907  0.00  0.00    +0.319 C 
BRANCH   9  10
ATOM     10  C   LIG    1        4.199   1.671  -0.374  0.00  0.00    +0.339 C 
ATOM     11  O   LIG    1        4.891   2.401  -1.076  0.00  0.00    -0.247 OA
BRANCH  10  12
ATOM     12  O   LIG    1        4.108   1.823   0.973  0.00  0.00    -0.478 OA
ATOM     13  H   LIG    1        3.447   1.163   1.290  0.00  0.00    +0.295 HD
ENDBRANCH  10  12
ENDBRANCH   9  10
ENDBRANCH   2   9
TORSDOF 5
