REMARK  Name = *****
REMARK                            x       y       z     vdW  Elec       q    Type
REMARK                         _______ _______ _______ _____ _____    ______ ____
ROOT
ATOM      1  C   LIG    1        5.405   0.334  -3.442  0.00  0.00    +0.136 A 
ATOM      2  C   LIG    1        5.505  -0.676  -2.473  0.00  0.00    +0.101 A 
ATOM      3  C   LIG    1        6.585  -1.576  -2.508  0.00  0.00    +0.020 A 
ATOM      4  C   LIG    1        7.492  -1.553  -3.561  0.00  0.00    +0.024 A 
ATOM      5  C   LIG    1        7.308  -0.661  -4.609  0.00  0.00    +0.028 A 
ATOM      6  C   LIG    1        6.347   0.349  -4.482  0.00  0.00    +0.069 A 
ENDROOT
BRANCH   5   7
ATOM      7  N   LIG    1        8.203  -0.657  -5.686  0.00  0.00    -0.358 N 
ATOM      8  H   LIG    1        8.598  -1.578  -5.860  0.00  0.00    +0.142 HD
ATOM      9  H   LIG    1        7.793  -0.272  -6.533  0.00  0.00    +0.142 HD
ENDBRANCH   5   7
BRANCH   2  10
ATOM     10  C   LIG    1        4.511  -0.963  -1.405  0.00  0.00    +0.343 C 
ATOM     11  O   LIG    1        4.373  -2.078  -0.939  0.00  0.00    -0.245 OA
BRANCH  10  12
ATOM     12  O   LIG    1        3.914   0.161  -0.941  0.00  0.00    -0.460 OA
BRANCH  12  13
ATOM     13  C   LIG    1        3.297   0.001   0.349  0.00  0.00    +0.247 C 
BRANCH  13  14
ATOM     14  C   LIG    1        1.900  -0.633   0.254  0.00  0.00    +0.125 C 
BRANCH  14  15
ATOM     15  N   LIG    1        1.181  -0.759   1.540  0.00  0.00    -0.300 NA
BRANCH  15  16
ATOM     16  C   LIG    1       -0.231  -1.128   1.349  0.00  0.00    +0.081 C 
ATOM     17  C   LIG    1       -1.018  -0.089   0.552  0.00  0.00    +0.020 C 
ENDBRANCH  15  16
BRANCH  15  18
ATOM     18  C   LIG    1        1.833  -1.663   2.510  0.00  0.00    +0.081 C 
ATOM     19  C   LIG    1        2.033  -3.120   2.093  0.00  0.00    +0.020 C 
ENDBRANCH  15  18
ENDBRANCH  14  15
ENDBRANCH  13  14
ENDBRANCH  12  13
ENDBRANCH  10  12
ENDBRANCH   2  10
BRANCH   1  20
ATOM     20  O   LIG    1        4.394   1.255  -3.344  0.00  0.00    -0.491 OA
BRANCH  20  21
ATOM     21  C   LIG    1        3.940   1.913  -4.534  0.00  0.00    +0.229 C 
BRANCH  21  23
ATOM     22  C   LIG    1        2.799   1.611  -6.765  0.00  0.00    +0.007 C 
ATOM     23  C   LIG    1        3.298   0.925  -5.508  0.00  0.00    +0.037 C 
ENDBRANCH  21  23
ENDBRANCH  20  21
ENDBRANCH   1  20
TORSDOF 11
