REMARK  Name = *****
REMARK                            x       y       z     vdW  Elec       q    Type
REMARK                         _______ _______ _______ _____ _____    ______ ____
ROOT
ATOM      1  C   LIG    1        6.523   0.967   2.219  0.00  0.00    +0.139 C 
ENDROOT
BRANCH   1   2
ATOM      2  C   LIG    1        7.951   0.493   1.867  0.00  0.00    -0.028 A 
ATOM      3  C   LIG    1        8.931   1.424   1.455  0.00  0.00    +0.005 A 
ATOM      4  C   LIG    1       10.229   1.022   1.099  0.00  0.00    +0.000 A 
ATOM      5  C   LIG    1       10.582  -0.322   1.146  0.00  0.00    +0.000 A 
ATOM      6  C   LIG    1        9.643  -1.257   1.577  0.00  0.00    +0.000 A 
ATOM      7  C   LIG    1        8.347  -0.854   1.946  0.00  0.00    +0.005 A 
ENDBRANCH   1   2
BRANCH   1   8
ATOM      8  C   LIG    1        6.209   0.956   3.718  0.00  0.00    -0.028 A 
ATOM      9  C   LIG    1        6.670   2.013   4.529  0.00  0.00    +0.005 A 
ATOM     10  C   LIG    1        6.415   2.036   5.906  0.00  0.00    +0.000 A 
ATOM     11  C   LIG    1        5.703   1.001   6.504  0.00  0.00    +0.000 A 
ATOM     12  C   LIG    1        5.227  -0.044   5.723  0.00  0.00    +0.000 A 
ATOM     13  C   LIG    1        5.480  -0.066   4.348  0.00  0.00    +0.005 A 
ENDBRANCH   1   8
BRANCH   1  14
ATOM     14  S   LIG    1        5.231   0.204   1.097  0.00  0.00    +0.043 S 
ATOM     15  O   LIG    1        4.956  -1.220   1.499  0.00  0.00    -0.256 OA
BRANCH  14  16
ATOM     16  C   LIG    1        3.805   1.216   1.600  0.00  0.00    +0.200 C 
BRANCH  16  20
ATOM     17  N   LIG    1        2.245  -0.467   0.652  0.00  0.00    -0.329 N 
ATOM     18  H   LIG    1        2.908  -1.198   0.849  0.00  0.00    +0.145 HD
ATOM     19  H   LIG    1        1.364  -0.712   0.209  0.00  0.00    +0.145 HD
ATOM     20  C   LIG    1        2.486   0.867   0.894  0.00  0.00    +0.223 C 
ATOM     21  O   LIG    1        1.641   1.712   0.628  0.00  0.00    -0.275 OA
ENDBRANCH  16  20
ENDBRANCH  14  16
ENDBRANCH   1  14
TORSDOF 5
