REMARK  Name = *****
REMARK                            x       y       z     vdW  Elec       q    Type
REMARK                         _______ _______ _______ _____ _____    ______ ____
ROOT
ATOM      1  C   LIG    1        2.739  -2.250  -1.080  0.00  0.00    +0.066 C 
ATOM      2  C   LIG    1        1.829  -2.763   0.036  0.00  0.00    +0.045 C 
ATOM      3  C   LIG    1        0.426  -2.193   0.077  0.00  0.00    +0.063 C 
ATOM      4  N   LIG    1        2.182  -3.526   1.009  0.00  0.00    -0.158 NA
ATOM      5  N   LIG    1        3.441  -4.116   1.010  0.00  0.00    -0.149 NA
ATOM      6  C   LIG    1        4.521  -3.406   0.939  0.00  0.00    +0.101 C 
ATOM      7  C   LIG    1        4.576  -1.945   0.645  0.00  0.00    +0.010 A 
ATOM      8  C   LIG    1        5.444  -1.104   1.351  0.00  0.00    +0.059 A 
ATOM      9  C   LIG    1        5.677   0.211   0.922  0.00  0.00    +0.162 A 
ATOM     10  C   LIG    1        5.014   0.696  -0.216  0.00  0.00    +0.162 A 
ATOM     11  C   LIG    1        4.096  -0.137  -0.873  0.00  0.00    +0.054 A 
ATOM     12  C   LIG    1        3.844  -1.443  -0.433  0.00  0.00    -0.026 A 
ENDROOT
BRANCH   6  13
ATOM     13  C   LIG    1        5.833  -4.138   1.097  0.00  0.00    +0.006 A 
ATOM     14  C   LIG    1        6.999  -3.762   0.414  0.00  0.00    +0.059 A 
ATOM     15  C   LIG    1        8.218  -4.429   0.640  0.00  0.00    +0.162 A 
ATOM     16  C   LIG    1        8.260  -5.488   1.560  0.00  0.00    +0.162 A 
ATOM     17  C   LIG    1        7.070  -5.922   2.163  0.00  0.00    +0.050 A 
ATOM     18  C   LIG    1        5.871  -5.251   1.939  0.00  0.00    +0.014 A 
BRANCH  15  19
ATOM     19  O   LIG    1        9.253  -3.912  -0.100  0.00  0.00    -0.491 OA
ATOM     20  C   LIG    1       10.544  -4.488   0.060  0.00  0.00    +0.277 C 
ENDBRANCH  15  19
BRANCH  16  21
ATOM     21  O   LIG    1        9.445  -6.121   1.829  0.00  0.00    -0.491 OA
ATOM     22  C   LIG    1        9.628  -6.500   3.191  0.00  0.00    +0.277 C 
ENDBRANCH  16  21
ENDBRANCH   6  13
BRANCH   1  24
ATOM     23  C   LIG    1        3.942  -2.744  -3.260  0.00  0.00    +0.005 C 
ATOM     24  C   LIG    1        3.180  -3.329  -2.075  0.00  0.00    +0.011 C 
ENDBRANCH   1  24
BRANCH   9  25
ATOM     25  O   LIG    1        6.627   0.848   1.678  0.00  0.00    -0.491 OA
ATOM     26  C   LIG    1        6.577   2.265   1.753  0.00  0.00    +0.277 C 
ENDBRANCH   9  25
BRANCH  10  27
ATOM     27  O   LIG    1        5.330   1.933  -0.711  0.00  0.00    -0.491 OA
ATOM     28  C   LIG    1        4.269   2.633  -1.356  0.00  0.00    +0.277 C 
ENDBRANCH  10  27
TORSDOF 6
