REMARK  Name = *****
REMARK                            x       y       z     vdW  Elec       q    Type
REMARK                         _______ _______ _______ _____ _____    ______ ____
ROOT
ATOM      1  C   LIG    1        1.204   4.202  -6.402  0.00  0.00    +0.014 C 
ATOM      2  C   LIG    1        1.935   5.339  -5.644  0.00  0.00    -0.003 C 
ATOM      3  C   LIG    1        3.151   5.836  -6.471  0.00  0.00    +0.121 C 
ATOM      4  C   LIG    1        4.339   4.980  -5.999  0.00  0.00    +0.032 C 
ATOM      5  C   LIG    1        3.788   4.034  -4.899  0.00  0.00    +0.007 C 
ATOM      6  C   LIG    1        2.612   4.848  -4.345  0.00  0.00    +0.001 C 
ATOM      7  C   LIG    1        1.660   4.429  -3.178  0.00  0.00    -0.003 C 
ATOM      8  C   LIG    1        0.957   3.051  -3.151  0.00  0.00    +0.008 C 
ATOM      9  C   LIG    1       -0.544   2.962  -2.719  0.00  0.00    +0.032 C 
ATOM     10  C   LIG    1       -1.237   4.186  -2.160  0.00  0.00    -0.060 C 
ATOM     11  C   LIG    1       -0.352   5.360  -1.783  0.00  0.00    -0.007 C 
ATOM     12  C   LIG    1        0.327   4.977  -0.442  0.00  0.00    +0.016 C 
ATOM     13  C   LIG    1       -1.178   6.659  -1.508  0.00  0.00    +0.019 C 
ATOM     14  C   LIG    1       -2.455   6.748  -2.335  0.00  0.00    +0.080 C 
ATOM     15  C   LIG    1       -3.293   5.557  -1.979  0.00  0.00    +0.156 C 
ATOM     16  O   LIG    1       -4.486   5.620  -1.805  0.00  0.00    -0.293 OA
ATOM     17  C   LIG    1       -2.584   4.236  -2.047  0.00  0.00    +0.046 C 
ATOM     18  C   LIG    1        0.690   5.619  -2.915  0.00  0.00    +0.002 C 
ATOM     19  C   LIG    1        0.005   6.087  -4.220  0.00  0.00    +0.005 C 
ATOM     20  C   LIG    1        0.955   6.458  -5.335  0.00  0.00    +0.010 C 
ENDROOT
BRANCH   3  21
ATOM     21  O   LIG    1        3.461   7.211  -6.224  0.00  0.00    -0.391 OA
ATOM     22  H   LIG    1        3.642   7.326  -5.275  0.00  0.00    +0.210 HD
ENDBRANCH   3  21
TORSDOF 1
