REMARK  Name = *****
REMARK                            x       y       z     vdW  Elec       q    Type
REMARK                         _______ _______ _______ _____ _____    ______ ____
ROOT
ATOM      1  C   LIG    1        7.789   6.163  -5.665  0.00  0.00    +0.065 C 
ATOM      2  C   LIG    1        7.835   5.998  -7.202  0.00  0.00    +0.097 C 
ATOM      3  C   LIG    1        9.017   6.780  -7.790  0.00  0.00    +0.065 C 
ATOM      4  C   LIG    1        9.512   7.859  -7.139  0.00  0.00    +0.016 C 
ATOM      5  C   LIG    1       10.524   8.820  -7.711  0.00  0.00    +0.061 C 
ATOM      6  N   LIG    1        9.032   8.171  -5.873  0.00  0.00    -0.321 N 
ATOM      7  H   LIG    1        9.524   8.913  -5.378  0.00  0.00    +0.152 HD
ATOM      8  C   LIG    1        8.326   7.266  -5.083  0.00  0.00    +0.016 C 
ATOM      9  C   LIG    1        8.240   7.641  -3.620  0.00  0.00    +0.061 C 
ENDROOT
BRANCH   2  10
ATOM     10  C   LIG    1        6.479   6.442  -7.835  0.00  0.00    -0.015 A 
ATOM     11  C   LIG    1        5.577   5.587  -8.515  0.00  0.00    +0.063 A 
ATOM     12 CL   LIG    1        5.954   3.913  -8.769  0.00  0.00    -0.082 Cl
ATOM     13  C   LIG    1        4.350   6.095  -9.012  0.00  0.00    +0.059 A 
ATOM     14 CL   LIG    1        3.184   5.116  -9.845  0.00  0.00    -0.082 Cl
ATOM     15  C   LIG    1        4.013   7.440  -8.849  0.00  0.00    +0.021 A 
ATOM     16  C   LIG    1        4.898   8.294  -8.211  0.00  0.00    +0.002 A 
ATOM     17  C   LIG    1        6.105   7.801  -7.716  0.00  0.00    +0.006 A 
ENDBRANCH   2  10
BRANCH   1  18
ATOM     18  C   LIG    1        7.251   5.035  -4.847  0.00  0.00    +0.340 C 
ATOM     19  O   LIG    1        6.983   5.078  -3.667  0.00  0.00    -0.245 OA
BRANCH  18  20
ATOM     20  O   LIG    1        7.216   3.923  -5.627  0.00  0.00    -0.424 OA
BRANCH  20  21
ATOM     21  C   LIG    1        6.849   2.717  -4.960  0.00  0.00    +0.473 C 
BRANCH  21  22
ATOM     22  O   LIG    1        5.534   2.794  -4.423  0.00  0.00    -0.427 OA
BRANCH  22  23
ATOM     23  C   LIG    1        4.617   1.979  -4.986  0.00  0.00    +0.310 C 
ATOM     24  O   LIG    1        4.849   1.175  -5.882  0.00  0.00    -0.251 OA
BRANCH  23  25
ATOM     25  C   LIG    1        3.278   2.163  -4.337  0.00  0.00    +0.120 C 
BRANCH  25  27
ATOM     26  C   LIG    1        2.645  -0.296  -4.557  0.00  0.00    +0.004 C 
ATOM     27  C   LIG    1        2.802   0.900  -3.628  0.00  0.00    +0.008 C 
ENDBRANCH  25  27
ENDBRANCH  23  25
ENDBRANCH  22  23
ENDBRANCH  21  22
ENDBRANCH  20  21
ENDBRANCH  18  20
ENDBRANCH   1  18
BRANCH   3  28
ATOM     28  C   LIG    1        9.649   6.291  -9.044  0.00  0.00    +0.337 C 
ATOM     29  O   LIG    1       10.783   6.536  -9.400  0.00  0.00    -0.245 OA
BRANCH  28  30
ATOM     30  O   LIG    1        8.739   5.574  -9.750  0.00  0.00    -0.465 OA
ATOM     31  C   LIG    1        9.091   5.372 -11.116  0.00  0.00    +0.280 C 
ENDBRANCH  28  30
ENDBRANCH   3  28
TORSDOF 10
