REMARK  Name = *****
REMARK                            x       y       z     vdW  Elec       q    Type
REMARK                         _______ _______ _______ _____ _____    ______ ____
ROOT
ATOM      1  C   LIG    1        6.625   1.373   2.713  0.00  0.00    -0.040 A 
ATOM      2  C   LIG    1        7.461   0.376   3.228  0.00  0.00    +0.049 A 
ATOM      3  C   LIG    1        8.856   0.485   3.139  0.00  0.00    +0.129 A 
ATOM      4  O   LIG    1        9.550  -0.540   3.720  0.00  0.00    -0.485 OA
ATOM      5  C   LIG    1       10.942  -0.677   3.355  0.00  0.00    +0.109 C 
ATOM      6  C   LIG    1       11.640   0.712   3.405  0.00  0.00    +0.044 C 
ATOM      7  C   LIG    1       10.960   1.730   2.465  0.00  0.00    +0.056 C 
ATOM      8  C   LIG    1       11.514   1.674   1.054  0.00  0.00    -0.019 C 
ATOM      9  C   LIG    1       12.706   1.135   0.727  0.00  0.00    -0.076 C 
ATOM     10  C   LIG    1       13.195   1.093  -0.693  0.00  0.00    +0.038 C 
ATOM     11  C   LIG    1       13.627   0.537   1.756  0.00  0.00    +0.030 C 
ATOM     12  C   LIG    1       13.166   0.742   3.199  0.00  0.00    +0.012 C 
ATOM     13  C   LIG    1       11.533  -1.596   4.443  0.00  0.00    +0.056 C 
ATOM     14  C   LIG    1       10.983  -1.454   2.030  0.00  0.00    +0.056 C 
ATOM     15  C   LIG    1        9.453   1.597   2.537  0.00  0.00    +0.043 A 
ATOM     16  C   LIG    1        8.605   2.607   2.055  0.00  0.00    +0.124 A 
ATOM     17  C   LIG    1        7.212   2.504   2.138  0.00  0.00    +0.049 A 
ENDROOT
BRANCH  16  18
ATOM     18  O   LIG    1        9.162   3.730   1.503  0.00  0.00    -0.506 OA
ATOM     19  H   LIG    1        8.452   4.313   1.190  0.00  0.00    +0.292 HD
ENDBRANCH  16  18
BRANCH   1  20
ATOM     20  C   LIG    1        5.122   1.240   2.796  0.00  0.00    +0.035 C 
BRANCH  20  21
ATOM     21  C   LIG    1        4.556   1.833   4.090  0.00  0.00    +0.005 C 
BRANCH  21  22
ATOM     22  C   LIG    1        3.026   1.731   4.146  0.00  0.00    +0.000 C 
BRANCH  22  24
ATOM     23  C   LIG    1        0.957   2.228   5.522  0.00  0.00    +0.004 C 
ATOM     24  C   LIG    1        2.475   2.311   5.451  0.00  0.00    -0.003 C 
ENDBRANCH  22  24
ENDBRANCH  21  22
ENDBRANCH  20  21
ENDBRANCH   1  20
TORSDOF 5
