REMARK  Name = *****
REMARK                            x       y       z     vdW  Elec       q    Type
REMARK                         _______ _______ _______ _____ _____    ______ ____
ROOT
ATOM      1  N   LIG    1        5.019  -1.309  -0.039  0.00  0.00    -0.298 N 
ATOM      2  C   LIG    1        5.556  -1.387  -1.367  0.00  0.00    +0.049 A 
ATOM      3  C   LIG    1        6.947  -1.531  -1.600  0.00  0.00    +0.034 A 
ATOM      4  C   LIG    1        7.497  -1.522  -2.900  0.00  0.00    +0.018 A 
ATOM      5  C   LIG    1        6.683  -1.423  -4.015  0.00  0.00    +0.020 A 
ATOM      6  C   LIG    1        5.311  -1.324  -3.833  0.00  0.00    +0.054 A 
ATOM      7  S   LIG    1        8.147  -1.829  -0.332  0.00  0.00    -0.086 S 
ATOM      8  C   LIG    1        7.201  -1.570   1.137  0.00  0.00    +0.034 A 
ATOM      9  C   LIG    1        7.946  -1.682   2.330  0.00  0.00    +0.017 A 
ATOM     10  C   LIG    1        7.363  -1.435   3.562  0.00  0.00    +0.001 A 
ATOM     11  C   LIG    1        6.050  -1.002   3.598  0.00  0.00    +0.002 A 
ATOM     12  C   LIG    1        5.307  -0.897   2.412  0.00  0.00    +0.024 A 
ATOM     13  C   LIG    1        4.762  -1.291  -2.532  0.00  0.00    +0.043 A 
ATOM     14  C   LIG    1        5.824  -1.257   1.149  0.00  0.00    +0.048 A 
ENDROOT
BRANCH   6  15
ATOM     15  C   LIG    1        4.458  -1.277  -4.990  0.00  0.00    +0.099 C 
ATOM     16  N   LIG    1        3.791  -1.257  -5.931  0.00  0.00    -0.191 NA
ENDBRANCH   6  15
BRANCH   1  17
ATOM     17  C   LIG    1        3.523  -1.345   0.145  0.00  0.00    +0.115 C 
BRANCH  17  19
ATOM     18  C   LIG    1        1.351  -2.681   0.332  0.00  0.00    +0.010 C 
ATOM     19  C   LIG    1        2.896  -2.769   0.265  0.00  0.00    +0.018 C 
BRANCH  19  20
ATOM     20  C   LIG    1        3.400  -3.531   1.516  0.00  0.00    +0.088 C 
BRANCH  20  21
ATOM     21  N   LIG    1        2.811  -4.875   1.700  0.00  0.00    -0.308 NA
ATOM     22  C   LIG    1        3.217  -5.451   2.981  0.00  0.00    +0.104 C 
ATOM     23  C   LIG    1        3.133  -5.778   0.594  0.00  0.00    +0.104 C 
ENDBRANCH  20  21
ENDBRANCH  19  20
ENDBRANCH  17  19
ENDBRANCH   1  17
TORSDOF 5
