REMARK  Name = *****
REMARK                            x       y       z     vdW  Elec       q    Type
REMARK                         _______ _______ _______ _____ _____    ______ ____
ROOT
ATOM      1  C   LIG    1        1.206   0.041   8.377  0.00  0.00    +0.168 C 
ATOM      2  C   LIG    1       -0.233  -0.449   8.766  0.00  0.00    +0.237 C 
ATOM      3  O   LIG    1       -0.510  -1.648   8.648  0.00  0.00    -0.274 OA
ATOM      4  N   LIG    1       -1.203   0.463   9.119  0.00  0.00    -0.285 N 
ATOM      5  C   LIG    1       -2.593   0.267   8.747  0.00  0.00    +0.153 C 
ATOM      6  C   LIG    1       -3.106   1.702   8.551  0.00  0.00    +0.195 C 
ATOM      7  C   LIG    1       -2.244   2.537   9.529  0.00  0.00    +0.078 C 
ATOM      8  O   LIG    1       -4.501   1.787   8.859  0.00  0.00    -0.470 OA
ATOM      9  C   LIG    1       -5.149   2.758   8.127  0.00  0.00    +0.244 A 
ATOM     10  C   LIG    1       -6.243   2.417   7.337  0.00  0.00    +0.175 A 
ATOM     11  N   LIG    1       -6.908   3.368   6.610  0.00  0.00    -0.239 NA
ATOM     12  C   LIG    1       -6.489   4.638   6.726  0.00  0.00    +0.090 A 
ATOM     13  C   LIG    1       -5.398   4.978   7.564  0.00  0.00    +0.093 A 
ATOM     14  C   LIG    1       -5.029   6.317   7.652  0.00  0.00    +0.030 A 
ATOM     15  C   LIG    1       -5.692   7.312   6.926  0.00  0.00    +0.002 A 
ATOM     16  C   LIG    1       -6.746   6.967   6.091  0.00  0.00    +0.002 A 
ATOM     17  C   LIG    1       -7.137   5.632   6.002  0.00  0.00    +0.030 A 
ATOM     18  C   LIG    1       -6.645   0.960   7.179  0.00  0.00    +0.314 C 
ATOM     19  F   LIG    1       -6.825   0.353   8.393  0.00  0.00    -0.194 F 
ATOM     20  F   LIG    1       -7.861   0.820   6.561  0.00  0.00    -0.194 F 
ATOM     21  C   LIG    1       -5.642   0.140   6.387  0.00  0.00    +0.052 C 
ATOM     22  C   LIG    1       -4.765   0.591   5.470  0.00  0.00    +0.003 C 
ATOM     23  C   LIG    1       -3.737  -0.249   4.790  0.00  0.00    +0.187 C 
ATOM     24  O   LIG    1       -2.477   0.353   5.069  0.00  0.00    -0.369 OA
ATOM     25  C   LIG    1       -1.425  -0.180   4.273  0.00  0.00    +0.159 C 
ATOM     26  C   LIG    1       -0.100   0.548   4.533  0.00  0.00    +0.207 C 
ATOM     27  C   LIG    1        0.897  -0.388   3.856  0.00  0.00    +0.047 C 
ATOM     28  C   LIG    1        0.393  -1.794   4.204  0.00  0.00    +0.006 C 
ATOM     29  O   LIG    1        0.171   0.543   5.945  0.00  0.00    -0.445 OA
ATOM     30  C   LIG    1        0.857   1.577   6.460  0.00  0.00    +0.401 C 
ATOM     31  O   LIG    1        1.205   2.587   5.854  0.00  0.00    -0.227 OA
ATOM     32  C   LIG    1       -1.081  -1.637   4.589  0.00  0.00    +0.035 C 
ATOM     33  N   LIG    1       -4.722   4.037   8.263  0.00  0.00    -0.210 NA
ATOM     34  C   LIG    1       -1.119   1.604  10.022  0.00  0.00    +0.166 C 
ATOM     35  N   LIG    1        1.181   1.382   7.772  0.00  0.00    -0.269 N 
ATOM     36  H   LIG    1        1.793   2.103   8.125  0.00  0.00    +0.153 HD
ENDROOT
BRANCH   1  38
ATOM     37  C   LIG    1        2.389   0.851  10.524  0.00  0.00    +0.013 C 
ATOM     38  C   LIG    1        2.410  -0.142   9.355  0.00  0.00    -0.011 C 
ATOM     39  C   LIG    1        2.475  -1.574   9.919  0.00  0.00    +0.013 C 
ATOM     40  C   LIG    1        3.729   0.068   8.558  0.00  0.00    +0.013 C 
ENDBRANCH   1  38
BRANCH  34  41
ATOM     41  C   LIG    1       -1.383   1.142  11.506  0.00  0.00    +0.234 C 
ATOM     42  N   LIG    1       -0.794   1.928  12.472  0.00  0.00    -0.299 N 
ATOM     43  H   LIG    1       -0.350   2.806  12.193  0.00  0.00    +0.150 HD
ATOM     44  O   LIG    1       -2.069   0.171  11.809  0.00  0.00    -0.274 OA
BRANCH  42  45
ATOM     45  C   LIG    1       -0.939   1.737  13.919  0.00  0.00    +0.121 C 
ATOM     46  C   LIG    1       -0.330   0.499  14.583  0.00  0.00    +0.090 C 
ATOM     47  C   LIG    1        0.386   1.809  14.692  0.00  0.00    +0.047 C 
BRANCH  45  48
ATOM     48  C   LIG    1       -2.139   2.430  14.586  0.00  0.00    +0.256 C 
ATOM     49  N   LIG    1       -2.144   3.844  14.624  0.00  0.00    -0.188 N 
ATOM     50  H   LIG    1       -2.866   4.245  15.223  0.00  0.00    +0.176 HD
ATOM     51  O   LIG    1       -3.036   1.804  15.120  0.00  0.00    -0.272 OA
BRANCH  49  52
ATOM     52  S   LIG    1       -0.948   4.846  14.070  0.00  0.00    +0.051 S 
ATOM     53  O   LIG    1       -0.553   4.394  12.743  0.00  0.00    -0.155 OA
ATOM     54  O   LIG    1        0.034   4.969  15.115  0.00  0.00    -0.155 OA
BRANCH  52  55
ATOM     55  C   LIG    1       -1.656   6.485  13.828  0.00  0.00    +0.104 C 
ATOM     56  C   LIG    1       -0.936   7.319  12.797  0.00  0.00    +0.033 C 
ATOM     57  C   LIG    1       -2.297   6.747  12.488  0.00  0.00    +0.033 C 
ATOM     58  C   LIG    1       -2.149   7.079  15.092  0.00  0.00    +0.037 C 
ENDBRANCH  52  55
ENDBRANCH  49  52
ENDBRANCH  45  48
BRANCH  46  59
ATOM     59  C   LIG    1       -0.839  -0.148  15.823  0.00  0.00    +0.347 C 
ATOM     60  F   LIG    1       -1.353  -1.364  15.513  0.00  0.00    -0.209 F 
ATOM     61  F   LIG    1        0.224  -0.387  16.641  0.00  0.00    -0.209 F 
ENDBRANCH  46  59
ENDBRANCH  42  45
ENDBRANCH  34  41
TORSDOF 7
