REMARK  Name = *****
REMARK                            x       y       z     vdW  Elec       q    Type
REMARK                         _______ _______ _______ _____ _____    ______ ____
ROOT
ATOM      1  C   LIG    1       -1.151  -0.156  -5.151  0.00  0.00    +0.003 C 
ATOM      2  C   LIG    1        0.056  -0.693  -5.420  0.00  0.00    -0.050 C 
ATOM      3  C   LIG    1        1.155   0.179  -5.989  0.00  0.00    +0.044 C 
ENDROOT
BRANCH   1   5
ATOM      4  C   LIG    1       -3.495  -0.176  -4.433  0.00  0.00    +0.003 C 
ATOM      5  C   LIG    1       -2.342  -0.826  -4.668  0.00  0.00    +0.001 C 
BRANCH   4   7
ATOM      6  C   LIG    1       -5.875  -0.540  -4.981  0.00  0.00    +0.044 C 
ATOM      7  C   LIG    1       -4.732  -0.832  -4.036  0.00  0.00    -0.044 C 
ATOM      8  C   LIG    1       -4.940  -1.645  -2.982  0.00  0.00    +0.094 C 
BRANCH   8   9
ATOM      9  C   LIG    1       -4.080  -2.137  -1.885  0.00  0.00    +0.330 C 
ATOM     10  O   LIG    1       -4.390  -3.123  -1.242  0.00  0.00    -0.246 OA
BRANCH   9  11
ATOM     11  O   LIG    1       -3.001  -1.390  -1.599  0.00  0.00    -0.477 OA
ATOM     12  H   LIG    1       -2.915  -0.597  -2.154  0.00  0.00    +0.295 HD
ENDBRANCH   9  11
ENDBRANCH   8   9
ENDBRANCH   4   7
ENDBRANCH   1   5
BRANCH   2  13
ATOM     13  C   LIG    1        0.435  -2.093  -5.259  0.00  0.00    +0.003 C 
ATOM     14  C   LIG    1        0.500  -2.741  -4.083  0.00  0.00    +0.004 C 
BRANCH  14  15
ATOM     15  C   LIG    1        0.959  -4.116  -3.811  0.00  0.00    -0.043 C 
ATOM     16  C   LIG    1        0.288  -4.801  -2.575  0.00  0.00    -0.010 C 
ATOM     17  C   LIG    1        0.232  -3.898  -1.313  0.00  0.00    +0.016 C 
ATOM     18  C   LIG    1       -1.161  -5.194  -2.937  0.00  0.00    +0.016 C 
ATOM     19  C   LIG    1        1.067  -6.070  -2.128  0.00  0.00    +0.011 C 
ATOM     20  C   LIG    1        1.469  -6.945  -3.299  0.00  0.00    +0.005 C 
ATOM     21  C   LIG    1        2.379  -6.170  -4.237  0.00  0.00    +0.031 C 
ATOM     22  C   LIG    1        1.938  -4.745  -4.519  0.00  0.00    -0.069 C 
ATOM     23  C   LIG    1        2.739  -4.133  -5.646  0.00  0.00    +0.039 C 
ENDBRANCH  14  15
ENDBRANCH   2  13
TORSDOF 6
