REMARK  Name = *****
REMARK                            x       y       z     vdW  Elec       q    Type
REMARK                         _______ _______ _______ _____ _____    ______ ____
ROOT
ATOM      1  C   LIG    1        4.373   1.755  -0.601  0.00  0.00    +0.062 A 
ATOM      2  C   LIG    1        5.277   2.791  -0.270  0.00  0.00    +0.058 A 
ATOM      3  I   LIG    1        4.582   4.388   0.980  0.00  0.00    -0.040 I 
ATOM      4  C   LIG    1        6.649   2.718  -0.642  0.00  0.00    +0.065 A 
ATOM      5  C   LIG    1        7.142   1.467  -1.096  0.00  0.00    +0.049 A 
ATOM      6  I   LIG    1        9.019   1.265  -2.100  0.00  0.00    -0.041 I 
ATOM      7  C   LIG    1        6.274   0.372  -1.202  0.00  0.00    +0.067 A 
ATOM      8  C   LIG    1        4.904   0.619  -1.220  0.00  0.00    +0.049 A 
ATOM      9  I   LIG    1        4.097   0.174  -3.250  0.00  0.00    -0.041 I 
ENDROOT
BRANCH   1  12
ATOM     10  C   LIG    1        0.695   1.137   0.121  0.00  0.00    +0.109 C 
ATOM     11  C   LIG    1        2.096   0.783  -0.286  0.00  0.00    +0.214 C 
ATOM     12  N   LIG    1        2.994   1.839  -0.257  0.00  0.00    -0.284 N 
ATOM     13  H   LIG    1        2.692   2.707   0.172  0.00  0.00    +0.155 HD
ATOM     14  O   LIG    1        2.369  -0.380  -0.564  0.00  0.00    -0.276 OA
ENDBRANCH   1  12
BRANCH   4  15
ATOM     15  N   LIG    1        7.500   3.874  -0.560  0.00  0.00    -0.273 N 
ATOM     16  C   LIG    1        7.187   4.995  -1.339  0.00  0.00    +0.216 C 
ATOM     17  O   LIG    1        6.221   5.046  -2.102  0.00  0.00    -0.276 OA
ATOM     18  C   LIG    1        8.136   6.170  -1.246  0.00  0.00    +0.110 C 
ATOM     19  C   LIG    1        8.739   3.778   0.206  0.00  0.00    +0.138 C 
ENDBRANCH   4  15
BRANCH   7  20
ATOM     20  C   LIG    1        6.707  -0.898  -0.535  0.00  0.00    +0.247 C 
ATOM     21  N   LIG    1        6.008  -1.262   0.616  0.00  0.00    -0.301 N 
ATOM     22  H   LIG    1        5.035  -0.978   0.718  0.00  0.00    +0.150 HD
ATOM     23  O   LIG    1        7.678  -1.520  -0.931  0.00  0.00    -0.270 OA
BRANCH  21  24
ATOM     24  C   LIG    1        6.411  -2.449   1.399  0.00  0.00    +0.160 C 
ATOM     25  C   LIG    1        6.190  -2.241   2.917  0.00  0.00    +0.270 C 
ATOM     26  O   LIG    1        4.818  -2.290   3.292  0.00  0.00    -0.341 OA
ATOM     27  C   LIG    1        4.175  -3.539   2.974  0.00  0.00    +0.178 C 
ATOM     28  C   LIG    1        4.272  -3.845   1.469  0.00  0.00    +0.176 C 
ATOM     29  C   LIG    1        5.706  -3.734   0.924  0.00  0.00    +0.170 C 
BRANCH  25  30
ATOM     30  O   LIG    1        6.705  -0.981   3.329  0.00  0.00    -0.365 OA
ATOM     31  H   LIG    1        6.504  -0.377   2.593  0.00  0.00    +0.212 HD
ENDBRANCH  25  30
BRANCH  28  32
ATOM     32  O   LIG    1        3.476  -2.892   0.753  0.00  0.00    -0.387 OA
ATOM     33  H   LIG    1        2.539  -3.037   0.973  0.00  0.00    +0.210 HD
ENDBRANCH  28  32
BRANCH  29  34
ATOM     34  O   LIG    1        6.460  -4.881   1.329  0.00  0.00    -0.387 OA
ATOM     35  H   LIG    1        7.246  -4.916   0.749  0.00  0.00    +0.210 HD
ENDBRANCH  29  34
BRANCH  27  36
ATOM     36  C   LIG    1        4.673  -4.675   3.883  0.00  0.00    +0.190 C 
BRANCH  36  37
ATOM     37  O   LIG    1        4.519  -4.295   5.252  0.00  0.00    -0.392 OA
ATOM     38  H   LIG    1        4.836  -3.372   5.320  0.00  0.00    +0.209 HD
ENDBRANCH  36  37
ENDBRANCH  27  36
ENDBRANCH  21  24
ENDBRANCH   7  20
TORSDOF 9
