REMARK  Name = *****
REMARK                            x       y       z     vdW  Elec       q    Type
REMARK                         _______ _______ _______ _____ _____    ______ ____
ROOT
ATOM      1  C   LIG    1        2.266   2.240  -0.416  0.00  0.00    +0.064 A 
ATOM      2  C   LIG    1        1.639   2.723   0.763  0.00  0.00    +0.049 A 
ATOM      3  I   LIG    1        0.008   1.514   1.583  0.00  0.00    -0.041 I 
ATOM      4  C   LIG    1        1.888   4.032   1.259  0.00  0.00    +0.065 A 
ATOM      5  C   LIG    1        2.580   4.944   0.397  0.00  0.00    +0.040 A 
ATOM      6  I   LIG    1        3.157   6.906   1.118  0.00  0.00    -0.042 I 
ATOM      7  C   LIG    1        3.023   4.545  -0.900  0.00  0.00    +0.065 A 
ATOM      8  C   LIG    1        3.008   3.158  -1.193  0.00  0.00    +0.049 A 
ATOM      9  I   LIG    1        4.582   2.400  -2.538  0.00  0.00    -0.041 I 
ENDROOT
BRANCH   4  10
ATOM     10  C   LIG    1        1.443   4.448   2.666  0.00  0.00    +0.246 C 
ATOM     11  N   LIG    1        1.470   3.442   3.630  0.00  0.00    -0.309 N 
ATOM     12  H   LIG    1        1.330   2.495   3.301  0.00  0.00    +0.149 HD
ATOM     13  O   LIG    1        1.080   5.562   2.932  0.00  0.00    -0.270 OA
BRANCH  11  14
ATOM     14  C   LIG    1        1.007   3.669   4.998  0.00  0.00    +0.138 C 
BRANCH  14  15
ATOM     15  C   LIG    1        1.042   2.379   5.837  0.00  0.00    +0.157 C 
BRANCH  15  16
ATOM     16  O   LIG    1        0.158   1.402   5.263  0.00  0.00    -0.388 OA
ATOM     17  H   LIG    1        0.464   0.534   5.599  0.00  0.00    +0.210 HD
ENDBRANCH  15  16
BRANCH  15  18
ATOM     18  C   LIG    1        2.445   1.769   5.931  0.00  0.00    +0.188 C 
BRANCH  18  19
ATOM     19  O   LIG    1        2.380   0.575   6.719  0.00  0.00    -0.392 OA
ATOM     20  H   LIG    1        2.326   0.844   7.653  0.00  0.00    +0.209 HD
ENDBRANCH  18  19
ENDBRANCH  15  18
ENDBRANCH  14  15
ENDBRANCH  11  14
ENDBRANCH   4  10
BRANCH   1  23
ATOM     21  C   LIG    1        2.903  -1.520  -0.416  0.00  0.00    +0.110 C 
ATOM     22  C   LIG    1        2.732  -0.105   0.090  0.00  0.00    +0.217 C 
ATOM     23  N   LIG    1        2.201   0.847  -0.793  0.00  0.00    -0.267 N 
ATOM     24  O   LIG    1        3.178   0.189   1.204  0.00  0.00    -0.276 OA
BRANCH  23  25
ATOM     25  C   LIG    1        1.689   0.514  -2.140  0.00  0.00    +0.147 C 
BRANCH  25  26
ATOM     26  C   LIG    1        0.187   0.169  -2.182  0.00  0.00    +0.158 C 
BRANCH  26  27
ATOM     27  O   LIG    1       -0.092  -0.982  -1.381  0.00  0.00    -0.388 OA
ATOM     28  H   LIG    1        0.133  -1.757  -1.935  0.00  0.00    +0.210 HD
ENDBRANCH  26  27
BRANCH  26  29
ATOM     29  C   LIG    1       -0.251  -0.141  -3.621  0.00  0.00    +0.188 C 
BRANCH  29  30
ATOM     30  O   LIG    1        0.492  -1.270  -4.092  0.00  0.00    -0.392 OA
ATOM     31  H   LIG    1        1.034  -0.976  -4.847  0.00  0.00    +0.209 HD
ENDBRANCH  29  30
ENDBRANCH  26  29
ENDBRANCH  25  26
ENDBRANCH  23  25
ENDBRANCH   1  23
BRANCH   7  32
ATOM     32  C   LIG    1        3.418   5.506  -2.002  0.00  0.00    +0.246 C 
ATOM     33  N   LIG    1        3.006   5.160  -3.294  0.00  0.00    -0.309 N 
ATOM     34  H   LIG    1        2.509   4.295  -3.489  0.00  0.00    +0.149 HD
ATOM     35  O   LIG    1        4.025   6.550  -1.799  0.00  0.00    -0.270 OA
BRANCH  33  36
ATOM     36  C   LIG    1        3.144   6.080  -4.424  0.00  0.00    +0.138 C 
BRANCH  36  37
ATOM     37  C   LIG    1        3.284   5.367  -5.772  0.00  0.00    +0.157 C 
BRANCH  37  38
ATOM     38  O   LIG    1        2.130   4.548  -6.037  0.00  0.00    -0.388 OA
ATOM     39  H   LIG    1        2.089   4.471  -7.014  0.00  0.00    +0.210 HD
ENDBRANCH  37  38
BRANCH  37  40
ATOM     40  C   LIG    1        3.433   6.386  -6.909  0.00  0.00    +0.188 C 
BRANCH  40  41
ATOM     41  O   LIG    1        3.547   5.685  -8.150  0.00  0.00    -0.392 OA
ATOM     42  H   LIG    1        4.399   5.212  -8.143  0.00  0.00    +0.209 HD
ENDBRANCH  40  41
ENDBRANCH  37  40
ENDBRANCH  36  37
ENDBRANCH  33  36
ENDBRANCH   7  32
TORSDOF 18
