REMARK  Name = *****
REMARK                            x       y       z     vdW  Elec       q    Type
REMARK                         _______ _______ _______ _____ _____    ______ ____
ROOT
ATOM      1  N   LIG    1        7.009  -0.580  -1.927  0.00  0.00    -0.322 N 
ATOM      2  C   LIG    1        6.831  -1.637  -2.776  0.00  0.00    +0.151 A 
ATOM      3  C   LIG    1        5.946  -1.832  -3.876  0.00  0.00    +0.282 C 
ATOM      4  N   LIG    1        5.921  -3.163  -4.315  0.00  0.00    -0.262 N 
ATOM      5  C   LIG    1        6.727  -4.208  -3.820  0.00  0.00    +0.333 C 
ATOM      6  N   LIG    1        7.620  -3.895  -2.795  0.00  0.00    -0.280 N 
ATOM      7  C   LIG    1        8.434  -4.929  -2.183  0.00  0.00    +0.155 C 
ATOM      8  O   LIG    1        6.635  -5.351  -4.279  0.00  0.00    -0.246 OA
ATOM      9  C   LIG    1        4.993  -3.507  -5.374  0.00  0.00    +0.157 C 
ATOM     10  O   LIG    1        5.288  -0.931  -4.372  0.00  0.00    -0.265 OA
ATOM     11  C   LIG    1        7.642  -2.616  -2.290  0.00  0.00    +0.168 A 
ATOM     12  N   LIG    1        8.405  -2.178  -1.250  0.00  0.00    -0.218 NA
ATOM     13  C   LIG    1        8.007  -0.937  -1.053  0.00  0.00    +0.202 A 
ENDROOT
BRANCH   1  14
ATOM     14  C   LIG    1        6.209   0.631  -1.847  0.00  0.00    +0.156 C 
BRANCH  14  15
ATOM     15  C   LIG    1        4.932   0.423  -1.014  0.00  0.00    +0.148 C 
BRANCH  15  16
ATOM     16  O   LIG    1        4.092  -0.594  -1.587  0.00  0.00    -0.389 OA
ATOM     17  H   LIG    1        3.783  -0.282  -2.459  0.00  0.00    +0.210 HD
ENDBRANCH  15  16
BRANCH  15  18
ATOM     18  C   LIG    1        4.091   1.716  -0.897  0.00  0.00    +0.117 C 
BRANCH  18  20
ATOM     19  C   LIG    1        3.829   4.025  -0.262  0.00  0.00    +0.105 C 
ATOM     20  N   LIG    1        4.734   2.867  -0.243  0.00  0.00    -0.301 NA
BRANCH  20  21
ATOM     21  C   LIG    1        5.179   2.583   1.135  0.00  0.00    +0.112 C 
BRANCH  21  22
ATOM     22  C   LIG    1        4.096   2.173   2.144  0.00  0.00    +0.171 C 
BRANCH  22  23
ATOM     23  O   LIG    1        4.699   1.927   3.408  0.00  0.00    -0.394 OA
ATOM     24  H   LIG    1        3.993   1.615   4.000  0.00  0.00    +0.209 HD
ENDBRANCH  22  23
ENDBRANCH  21  22
ENDBRANCH  20  21
ENDBRANCH  18  20
ENDBRANCH  15  18
ENDBRANCH  14  15
ENDBRANCH   1  14
TORSDOF 8
