REMARK  Name = *****
REMARK                            x       y       z     vdW  Elec       q    Type
REMARK                         _______ _______ _______ _____ _____    ______ ____
ROOT
ATOM      1  N   LIG    1        6.450   4.760   2.049  0.00  0.00    -0.297 N 
ATOM      2  C   LIG    1        7.141   5.748   2.894  0.00  0.00    +0.123 C 
ATOM      3  C   LIG    1        7.138   7.144   2.238  0.00  0.00    +0.104 C 
ATOM      4  N   LIG    1        5.802   7.652   1.802  0.00  0.00    -0.289 NA
ATOM      5  C   LIG    1        5.263   6.614   0.889  0.00  0.00    +0.104 C 
ATOM      6  C   LIG    1        5.170   5.185   1.475  0.00  0.00    +0.123 C 
ENDROOT
BRANCH   1   9
ATOM      7  C   LIG    1        5.572   1.394   2.771  0.00  0.00    +0.221 A 
ATOM      8  N   LIG    1        5.545   2.579   2.170  0.00  0.00    -0.181 NA
ATOM      9  C   LIG    1        6.422   3.476   2.617  0.00  0.00    +0.224 A 
ATOM     10  N   LIG    1        7.282   3.216   3.583  0.00  0.00    -0.181 NA
ATOM     11  C   LIG    1        7.264   2.003   4.113  0.00  0.00    +0.221 A 
ATOM     12  N   LIG    1        6.436   1.054   3.710  0.00  0.00    -0.181 NA
BRANCH   7  13
ATOM     13  N   LIG    1        4.588   0.487   2.381  0.00  0.00    -0.310 N 
ATOM     14  H   LIG    1        4.264   0.749   1.462  0.00  0.00    +0.149 HD
BRANCH  13  15
ATOM     15  C   LIG    1        4.951  -0.897   2.586  0.00  0.00    +0.131 C 
BRANCH  15  17
ATOM     16  C   LIG    1        3.174  -2.619   2.990  0.00  0.00    +0.005 C 
ATOM     17  C   LIG    1        3.793  -1.756   2.172  0.00  0.00    -0.016 C 
ENDBRANCH  15  17
ENDBRANCH  13  15
ENDBRANCH   7  13
BRANCH  11  18
ATOM     18  N   LIG    1        8.114   1.692   5.153  0.00  0.00    -0.310 N 
ATOM     19  H   LIG    1        8.395   0.720   5.068  0.00  0.00    +0.149 HD
BRANCH  18  20
ATOM     20  C   LIG    1        9.137   2.657   5.472  0.00  0.00    +0.131 C 
BRANCH  20  21
ATOM     21  C   LIG    1        9.487   2.465   6.917  0.00  0.00    -0.016 C 
ATOM     22  C   LIG    1        9.349   3.422   7.843  0.00  0.00    +0.005 C 
ENDBRANCH  20  21
ENDBRANCH  18  20
ENDBRANCH  11  18
ENDBRANCH   1   9
BRANCH   4  23
ATOM     23  C   LIG    1        4.916   7.992   2.962  0.00  0.00    +0.117 C 
BRANCH  23  24
ATOM     24  C   LIG    1        3.466   8.369   2.581  0.00  0.00    -0.026 A 
ATOM     25  C   LIG    1        3.168   9.502   1.800  0.00  0.00    +0.008 A 
ATOM     26  C   LIG    1        1.842   9.840   1.496  0.00  0.00    +0.039 A 
ATOM     27  C   LIG    1        0.803   9.036   1.946  0.00  0.00    +0.123 A 
ATOM     28  F   LIG    1       -0.463   9.351   1.638  0.00  0.00    -0.205 F 
ATOM     29  C   LIG    1        1.062   7.913   2.718  0.00  0.00    +0.039 A 
ATOM     30  C   LIG    1        2.385   7.592   3.051  0.00  0.00    +0.008 A 
ENDBRANCH  23  24
BRANCH  23  31
ATOM     31  C   LIG    1        5.533   9.099   3.847  0.00  0.00    -0.026 A 
ATOM     32  C   LIG    1        6.356  10.107   3.299  0.00  0.00    +0.008 A 
ATOM     33  C   LIG    1        6.965  11.063   4.112  0.00  0.00    +0.039 A 
ATOM     34  C   LIG    1        6.724  11.047   5.478  0.00  0.00    +0.123 A 
ATOM     35  F   LIG    1        7.305  11.966   6.260  0.00  0.00    -0.205 F 
ATOM     36  C   LIG    1        5.886  10.093   6.044  0.00  0.00    +0.039 A 
ATOM     37  C   LIG    1        5.292   9.119   5.233  0.00  0.00    +0.008 A 
ENDBRANCH  23  31
ENDBRANCH   4  23
TORSDOF 10
