REMARK  Name = *****
REMARK                            x       y       z     vdW  Elec       q    Type
REMARK                         _______ _______ _______ _____ _____    ______ ____
ROOT
ATOM      1  C   LIG    1        4.407  -0.485   1.115  0.00  0.00    +0.044 C 
ENDROOT
BRANCH   1   2
ATOM      2  C   LIG    1        2.884  -0.469   1.271  0.00  0.00    +0.003 C 
BRANCH   2   4
ATOM      3  C   LIG    1        0.694   0.412   0.368  0.00  0.00    +0.004 C 
ATOM      4  C   LIG    1        2.208   0.400   0.207  0.00  0.00    -0.003 C 
ENDBRANCH   2   4
ENDBRANCH   1   2
BRANCH   1   5
ATOM      5  C   LIG    1        5.091  -1.360   2.168  0.00  0.00    +0.266 C 
BRANCH   5   6
ATOM      6  O   LIG    1        6.501  -1.315   1.938  0.00  0.00    -0.363 OA
BRANCH   6   7
ATOM      7  N   LIG    1        7.143  -2.100   2.891  0.00  0.00    +0.155 NA
ATOM      8  O   LIG    1        8.370  -2.083   2.728  0.00  0.00    -0.105 OA
ENDBRANCH   6   7
ENDBRANCH   5   6
ENDBRANCH   1   5
TORSDOF 5
