REMARK  Name = *****
REMARK                            x       y       z     vdW  Elec       q    Type
REMARK                         _______ _______ _______ _____ _____    ______ ____
ROOT
ATOM      1  N   LIG    1        4.675   2.298   0.709  0.00  0.00    -0.294 NA
ATOM      2  C   LIG    1        4.393   0.880   0.349  0.00  0.00    +0.069 C 
ATOM      3  C   LIG    1        4.993  -0.157   1.383  0.00  0.00    +0.038 C 
ATOM      4  C   LIG    1        4.747  -1.581   0.943  0.00  0.00    -0.033 C 
ATOM      5  C   LIG    1        4.557  -1.801  -0.424  0.00  0.00    +0.006 C 
ATOM      6  C   LIG    1        4.382  -3.063  -0.952  0.00  0.00    +0.047 C 
ATOM      7  N   LIG    1        4.218  -2.879  -2.308  0.00  0.00    -0.360 NA
ATOM      8  H   LIG    1        4.066  -3.623  -2.972  0.00  0.00    +0.165 HD
ATOM      9  C   LIG    1        4.313  -1.539  -2.630  0.00  0.00    +0.087 C 
ATOM     10  C   LIG    1        4.407  -4.197  -0.138  0.00  0.00    +0.026 C 
ATOM     11  C   LIG    1        4.620  -3.988   1.238  0.00  0.00    +0.002 C 
ATOM     12  C   LIG    1        4.539  -0.848  -1.464  0.00  0.00    -0.021 C 
ATOM     13  C   LIG    1        4.786  -2.704   1.775  0.00  0.00    +0.005 C 
ATOM     14  C   LIG    1        6.495   0.056   1.563  0.00  0.00    +0.023 C 
ATOM     15  C   LIG    1        6.826   1.525   1.825  0.00  0.00    +0.090 C 
ATOM     16  C   LIG    1        4.768   0.593  -1.150  0.00  0.00    +0.056 C 
ATOM     17  C   LIG    1        6.135   2.502   0.859  0.00  0.00    +0.097 C 
ENDROOT
BRANCH  15  18
ATOM     18  C   LIG    1        8.346   1.741   1.772  0.00  0.00    +0.227 C 
ATOM     19  N   LIG    1        8.952   2.729   2.576  0.00  0.00    -0.226 N 
ATOM     20  C   LIG    1        8.316   3.303   3.682  0.00  0.00    +0.308 C 
ATOM     21  N   LIG    1        9.030   4.272   4.343  0.00  0.00    -0.299 N 
ATOM     22  H   LIG    1        9.825   4.700   3.898  0.00  0.00    +0.150 HD
ATOM     23  O   LIG    1        7.216   2.998   4.110  0.00  0.00    -0.252 OA
ATOM     24  O   LIG    1        9.016   1.065   0.987  0.00  0.00    -0.275 OA
BRANCH  21  25
ATOM     25  C   LIG    1        8.490   4.950   5.505  0.00  0.00    +0.102 C 
ATOM     26  C   LIG    1        8.403   6.432   5.217  0.00  0.00    +0.024 C 
ENDBRANCH  21  25
BRANCH  19  27
ATOM     27  C   LIG    1       10.418   2.857   2.383  0.00  0.00    +0.119 C 
BRANCH  27  28
ATOM     28  C   LIG    1       10.900   3.873   1.331  0.00  0.00    +0.035 C 
BRANCH  28  29
ATOM     29  C   LIG    1       10.448   3.562  -0.105  0.00  0.00    +0.085 C 
BRANCH  29  30
ATOM     30  N   LIG    1       10.995   4.504  -1.102  0.00  0.00    -0.308 NA
ATOM     31  C   LIG    1       10.639   4.069  -2.461  0.00  0.00    +0.104 C 
ATOM     32  C   LIG    1       10.527   5.875  -0.894  0.00  0.00    +0.104 C 
ENDBRANCH  29  30
ENDBRANCH  28  29
ENDBRANCH  27  28
ENDBRANCH  19  27
ENDBRANCH  15  18
BRANCH   1  33
ATOM     33  C   LIG    1        3.944   2.725   1.920  0.00  0.00    +0.111 C 
BRANCH  33  35
ATOM     34  C   LIG    1        1.754   1.508   2.185  0.00  0.00    +0.005 C 
ATOM     35  C   LIG    1        2.447   2.587   1.786  0.00  0.00    -0.019 C 
ENDBRANCH  33  35
ENDBRANCH   1  33
TORSDOF 8
