REMARK  Name = *****
REMARK                            x       y       z     vdW  Elec       q    Type
REMARK                         _______ _______ _______ _____ _____    ______ ____
ROOT
ATOM      1  C   LIG    1        2.861  -1.366   0.344  0.00  0.00    +0.022 C 
ATOM      2  C   LIG    1        4.336  -1.783   0.146  0.00  0.00    +0.061 C 
ATOM      3  C   LIG    1        4.747  -2.920   1.078  0.00  0.00    +0.134 C 
ATOM      4  N   LIG    1        3.493  -3.582   1.654  0.00  0.00    +0.245 N 
ATOM      5  C   LIG    1        2.810  -2.595   2.597  0.00  0.00    +0.134 C 
ATOM      6  C   LIG    1        2.531  -3.891   0.489  0.00  0.00    +0.134 C 
ATOM      7  C   LIG    1        2.650  -1.243   1.889  0.00  0.00    +0.061 C 
ATOM      8  C   LIG    1        1.965  -2.580  -0.058  0.00  0.00    +0.061 C 
ENDROOT
BRANCH   1   9
ATOM      9  C   LIG    1        2.434  -0.043  -0.454  0.00  0.00    +0.122 C 
BRANCH   9  10
ATOM     10  C   LIG    1        3.146   1.247   0.034  0.00  0.00    -0.011 A 
ATOM     11  C   LIG    1        2.660   1.981   1.144  0.00  0.00    +0.007 A 
ATOM     12  C   LIG    1        3.260   3.184   1.553  0.00  0.00    +0.000 A 
ATOM     13  C   LIG    1        4.364   3.687   0.896  0.00  0.00    +0.000 A 
ATOM     14  C   LIG    1        4.898   2.978  -0.169  0.00  0.00    +0.000 A 
ATOM     15  C   LIG    1        4.296   1.781  -0.580  0.00  0.00    +0.007 A 
ENDBRANCH   9  10
BRANCH   9  16
ATOM     16  C   LIG    1        2.445  -0.253  -2.013  0.00  0.00    -0.011 A 
ATOM     17  C   LIG    1        3.622  -0.568  -2.727  0.00  0.00    +0.007 A 
ATOM     18  C   LIG    1        3.614  -0.874  -4.095  0.00  0.00    +0.000 A 
ATOM     19  C   LIG    1        2.425  -0.883  -4.803  0.00  0.00    +0.000 A 
ATOM     20  C   LIG    1        1.247  -0.542  -4.148  0.00  0.00    +0.000 A 
ATOM     21  C   LIG    1        1.260  -0.222  -2.783  0.00  0.00    +0.007 A 
ENDBRANCH   9  16
BRANCH   9  22
ATOM     22  O   LIG    1        1.046   0.120  -0.078  0.00  0.00    -0.379 OA
ATOM     23  H   LIG    1        0.711   0.888  -0.581  0.00  0.00    +0.211 HD
ENDBRANCH   9  22
ENDBRANCH   1   9
BRANCH   4  24
ATOM     24  C   LIG    1        3.859  -4.915   2.367  0.00  0.00    +0.162 C 
BRANCH  24  25
ATOM     25  C   LIG    1        4.845  -4.780   3.552  0.00  0.00    +0.211 C 
BRANCH  25  26
ATOM     26  O   LIG    1        6.106  -4.267   3.121  0.00  0.00    -0.370 OA
BRANCH  26  27
ATOM     27  C   LIG    1        7.014  -4.070   4.210  0.00  0.00    +0.195 C 
BRANCH  27  28
ATOM     28  C   LIG    1        8.286  -3.460   3.688  0.00  0.00    -0.022 A 
ATOM     29  C   LIG    1        9.335  -4.273   3.237  0.00  0.00    +0.006 A 
ATOM     30  C   LIG    1       10.526  -3.716   2.772  0.00  0.00    +0.000 A 
ATOM     31  C   LIG    1       10.685  -2.329   2.743  0.00  0.00    +0.000 A 
ATOM     32  C   LIG    1        9.648  -1.508   3.177  0.00  0.00    +0.000 A 
ATOM     33  C   LIG    1        8.457  -2.063   3.647  0.00  0.00    +0.006 A 
ENDBRANCH  27  28
ENDBRANCH  26  27
ENDBRANCH  25  26
ENDBRANCH  24  25
ENDBRANCH   4  24
TORSDOF 9
