REMARK  Name = *****
REMARK                            x       y       z     vdW  Elec       q    Type
REMARK                         _______ _______ _______ _____ _____    ______ ____
ROOT
ATOM      1  O   LIG    1        5.170  -2.873   2.709  0.00  0.00    -0.362 OA
ENDROOT
BRANCH   1   5
ATOM      2  N   LIG    1        6.170  -5.562   3.147  0.00  0.00    -0.302 NA
ATOM      3  C   LIG    1        6.605  -4.773   4.322  0.00  0.00    +0.087 C 
ATOM      4  C   LIG    1        7.265  -3.445   3.932  0.00  0.00    +0.047 C 
ATOM      5  C   LIG    1        6.619  -2.902   2.666  0.00  0.00    +0.122 C 
ATOM      6  C   LIG    1        7.157  -3.912   1.586  0.00  0.00    +0.047 C 
ATOM      7  C   LIG    1        7.111  -5.400   2.045  0.00  0.00    +0.087 C 
BRANCH   2   8
ATOM      8  C   LIG    1        5.778  -6.929   3.504  0.00  0.00    +0.085 C 
BRANCH   8   9
ATOM      9  C   LIG    1        5.049  -7.688   2.380  0.00  0.00    +0.026 C 
BRANCH   9  10
ATOM     10  C   LIG    1        4.564  -9.094   2.774  0.00  0.00    +0.121 C 
BRANCH  10  12
ATOM     11  O   LIG    1        2.375  -9.060   3.848  0.00  0.00    -0.251 OA
ATOM     12  C   LIG    1        3.644  -9.136   3.940  0.00  0.00    +0.305 C 
BRANCH  12  13
ATOM     13  O   LIG    1        4.259  -9.291   5.125  0.00  0.00    -0.481 OA
ATOM     14  H   LIG    1        5.242  -9.358   5.048  0.00  0.00    +0.295 HD
ENDBRANCH  12  13
ENDBRANCH  10  12
ENDBRANCH   9  10
ENDBRANCH   8   9
ENDBRANCH   2   8
ENDBRANCH   1   5
BRANCH   1  15
ATOM     15  C   LIG    1        4.458  -1.855   3.489  0.00  0.00    +0.197 C 
BRANCH  15  16
ATOM     16  C   LIG    1        2.965  -1.774   2.954  0.00  0.00    -0.013 A 
ATOM     17  C   LIG    1        2.012  -0.935   3.594  0.00  0.00    +0.008 A 
ATOM     18  C   LIG    1        0.629  -1.114   3.405  0.00  0.00    +0.020 A 
ATOM     19  C   LIG    1        0.171  -2.019   2.457  0.00  0.00    +0.041 A 
ATOM     20 CL   LIG    1       -1.522  -2.210   2.195  0.00  0.00    -0.084 Cl
ATOM     21  C   LIG    1        1.085  -2.775   1.729  0.00  0.00    +0.020 A 
ATOM     22  C   LIG    1        2.466  -2.674   1.992  0.00  0.00    +0.008 A 
ENDBRANCH  15  16
BRANCH  15  23
ATOM     23  C   LIG    1        4.450  -2.083   5.058  0.00  0.00    +0.074 A 
ATOM     24  N   LIG    1        5.562  -1.810   5.808  0.00  0.00    -0.257 NA
ATOM     25  C   LIG    1        5.527  -2.056   7.155  0.00  0.00    +0.111 A 
ATOM     26  C   LIG    1        4.396  -2.463   7.838  0.00  0.00    +0.020 A 
ATOM     27  C   LIG    1        3.247  -2.646   7.099  0.00  0.00    +0.003 A 
ATOM     28  C   LIG    1        3.283  -2.512   5.712  0.00  0.00    +0.026 A 
ENDBRANCH  15  23
ENDBRANCH   1  15
TORSDOF 9
