REMARK  Name = *****
REMARK                            x       y       z     vdW  Elec       q    Type
REMARK                         _______ _______ _______ _____ _____    ______ ____
ROOT
ATOM      1  C   LIG    1        0.875   0.111   0.203  0.00  0.00    +0.105 C 
ATOM      2  N   LIG    1        2.321   0.052   0.005  0.00  0.00    -0.305 NA
ATOM      3  C   LIG    1        2.780  -1.308  -0.326  0.00  0.00    +0.088 C 
ATOM      4  C   LIG    1        2.430  -1.788  -1.746  0.00  0.00    +0.047 C 
ATOM      5  C   LIG    1        2.885  -0.799  -2.814  0.00  0.00    -0.059 C 
ATOM      6  C   LIG    1        3.646  -1.123  -3.895  0.00  0.00    -0.010 C 
ATOM      7  C   LIG    1        4.127  -0.081  -4.838  0.00  0.00    -0.010 A 
ATOM      8  C   LIG    1        5.505   0.195  -4.946  0.00  0.00    -0.017 A 
ATOM      9  C   LIG    1        5.929   1.185  -5.846  0.00  0.00    +0.008 A 
ATOM     10  C   LIG    1        5.010   1.858  -6.656  0.00  0.00    +0.001 A 
ATOM     11  C   LIG    1        3.654   1.553  -6.575  0.00  0.00    +0.001 A 
ATOM     12  C   LIG    1        6.529  -0.479  -4.125  0.00  0.00    +0.009 C 
ATOM     13  C   LIG    1        6.534  -1.766  -3.732  0.00  0.00    +0.009 C 
ATOM     14  C   LIG    1        5.516  -2.790  -4.036  0.00  0.00    -0.017 A 
ATOM     15  C   LIG    1        5.949  -4.111  -4.231  0.00  0.00    +0.008 A 
ATOM     16  C   LIG    1        5.038  -5.127  -4.529  0.00  0.00    +0.001 A 
ATOM     17  C   LIG    1        3.681  -4.837  -4.636  0.00  0.00    +0.001 A 
ATOM     18  C   LIG    1        3.231  -3.534  -4.428  0.00  0.00    +0.009 A 
ATOM     19  C   LIG    1        3.214   0.583  -5.675  0.00  0.00    +0.009 A 
ATOM     20  C   LIG    1        4.136  -2.511  -4.102  0.00  0.00    -0.010 A 
ATOM     21  C   LIG    1        2.425   0.613  -2.471  0.00  0.00    +0.047 C 
ATOM     22  C   LIG    1        2.780   1.000  -1.024  0.00  0.00    +0.088 C 
ENDROOT
TORSDOF 0
