REMARK  Name = *****
REMARK                            x       y       z     vdW  Elec       q    Type
REMARK                         _______ _______ _______ _____ _____    ______ ____
ROOT
ATOM      1  N   LIG    1        5.255  -4.649   0.968  0.00  0.00    -0.310 NA
ATOM      2  H   LIG    1        4.890  -3.756   0.642  0.00  0.00    +0.122 HD
ENDROOT
BRANCH   1   4
ATOM      3  C   LIG    1        2.941  -5.455   0.974  0.00  0.00    +0.024 C 
ATOM      4  C   LIG    1        4.256  -5.388   1.769  0.00  0.00    +0.055 C 
BRANCH   4   5
ATOM      5  C   LIG    1        4.778  -6.793   2.162  0.00  0.00    +0.053 C 
BRANCH   5   6
ATOM      6  C   LIG    1        3.892  -7.556   3.121  0.00  0.00    -0.042 A 
ATOM      7  C   LIG    1        4.006  -7.365   4.503  0.00  0.00    +0.053 A 
ATOM      8  C   LIG    1        3.165  -8.088   5.328  0.00  0.00    +0.167 A 
ATOM      9  O   LIG    1        3.132  -8.024   6.682  0.00  0.00    -0.453 OA
ATOM     10  C   LIG    1        2.043  -8.928   6.967  0.00  0.00    +0.466 C 
ATOM     11  O   LIG    1        1.508  -9.572   5.790  0.00  0.00    -0.453 OA
ATOM     12  C   LIG    1        2.243  -8.973   4.814  0.00  0.00    +0.166 A 
ATOM     13  C   LIG    1        2.114  -9.193   3.470  0.00  0.00    +0.050 A 
ATOM     14  C   LIG    1        2.950  -8.478   2.609  0.00  0.00    +0.007 A 
ENDBRANCH   5   6
ENDBRANCH   4   5
ENDBRANCH   1   4
BRANCH   1  15
ATOM     15  C   LIG    1        6.571  -4.471   1.627  0.00  0.00    +0.117 C 
BRANCH  15  16
ATOM     16  C   LIG    1        6.526  -3.751   3.003  0.00  0.00    +0.158 C 
BRANCH  16  17
ATOM     17  C   LIG    1        7.877  -3.613   3.682  0.00  0.00    -0.014 A 
ATOM     18  C   LIG    1        8.660  -4.753   3.937  0.00  0.00    +0.055 A 
ATOM     19  C   LIG    1        9.870  -4.625   4.609  0.00  0.00    +0.159 A 
ATOM     20  C   LIG    1       10.310  -3.388   5.063  0.00  0.00    +0.158 A 
ATOM     21  C   LIG    1        9.552  -2.249   4.835  0.00  0.00    +0.049 A 
ATOM     22  C   LIG    1        8.339  -2.367   4.148  0.00  0.00    +0.010 A 
BRANCH  19  23
ATOM     23  O   LIG    1       10.627  -5.741   4.829  0.00  0.00    -0.503 OA
ATOM     24  H   LIG    1       11.420  -5.407   5.294  0.00  0.00    +0.292 HD
ENDBRANCH  19  23
BRANCH  20  25
ATOM     25  O   LIG    1       11.497  -3.338   5.741  0.00  0.00    -0.503 OA
ATOM     26  H   LIG    1       11.619  -2.428   6.059  0.00  0.00    +0.292 HD
ENDBRANCH  20  25
ENDBRANCH  16  17
BRANCH  16  27
ATOM     27  O   LIG    1        5.923  -2.462   2.827  0.00  0.00    -0.386 OA
ATOM     28  H   LIG    1        5.117  -2.608   2.307  0.00  0.00    +0.210 HD
ENDBRANCH  16  27
ENDBRANCH  15  16
ENDBRANCH   1  15
TORSDOF 9
