REMARK  Name = *****
REMARK                            x       y       z     vdW  Elec       q    Type
REMARK                         _______ _______ _______ _____ _____    ______ ____
ROOT
ATOM      1  C   LIG    1        2.924  -3.559   1.469  0.00  0.00    +0.005 C 
ENDROOT
BRANCH   1   2
ATOM      2  C   LIG    1        2.115  -2.325   1.076  0.00  0.00    +0.051 C 
BRANCH   2   3
ATOM      3  C   LIG    1        2.901  -1.380   0.140  0.00  0.00    +0.133 C 
BRANCH   3   5
ATOM      4  C   LIG    1        0.870  -0.568  -1.061  0.00  0.00    +0.193 C 
ATOM      5  N   LIG    1        2.104  -0.126  -0.281  0.00  0.00    +0.248 N 
ATOM      6  C   LIG    1        1.644   0.676   0.943  0.00  0.00    +0.193 C 
BRANCH   5   7
ATOM      7  C   LIG    1        2.999   0.823  -1.238  0.00  0.00    +0.129 C 
ATOM      8  C   LIG    1        2.294   2.139  -1.591  0.00  0.00    +0.013 A 
ATOM      9  C   LIG    1        2.901   3.205  -0.886  0.00  0.00    -0.009 A 
ATOM     10  C   LIG    1        2.384   4.493  -0.970  0.00  0.00    +0.009 A 
ATOM     11  C   LIG    1        1.278   4.711  -1.788  0.00  0.00    +0.001 A 
ATOM     12  C   LIG    1        0.719   3.667  -2.540  0.00  0.00    +0.001 A 
ATOM     13  C   LIG    1        4.106   2.727  -0.258  0.00  0.00    -0.009 A 
ATOM     14  C   LIG    1        5.082   3.421   0.447  0.00  0.00    +0.009 A 
ATOM     15  C   LIG    1        6.267   2.760   0.758  0.00  0.00    +0.001 A 
ATOM     16  C   LIG    1        6.492   1.443   0.327  0.00  0.00    +0.001 A 
ATOM     17  C   LIG    1        5.492   0.733  -0.353  0.00  0.00    +0.010 A 
ATOM     18  C   LIG    1        1.237   2.370  -2.455  0.00  0.00    +0.010 A 
ATOM     19  C   LIG    1        4.278   1.357  -0.578  0.00  0.00    +0.013 A 
ENDBRANCH   5   7
ENDBRANCH   3   5
ENDBRANCH   2   3
ENDBRANCH   1   2
BRANCH   1  20
ATOM     20  C   LIG    1        2.354  -4.237   2.731  0.00  0.00    +0.005 C 
BRANCH  20  21
ATOM     21  C   LIG    1        3.200  -5.464   3.065  0.00  0.00    +0.051 C 
BRANCH  21  22
ATOM     22  C   LIG    1        2.778  -6.200   4.349  0.00  0.00    +0.133 C 
BRANCH  22  23
ATOM     23  N   LIG    1        3.655  -7.448   4.632  0.00  0.00    +0.248 N 
ATOM     24  C   LIG    1        5.122  -7.041   4.742  0.00  0.00    +0.193 C 
ATOM     25  C   LIG    1        3.519  -8.456   3.485  0.00  0.00    +0.193 C 
BRANCH  23  26
ATOM     26  C   LIG    1        3.200  -8.152   6.008  0.00  0.00    +0.129 C 
ATOM     27  C   LIG    1        1.833  -8.838   5.914  0.00  0.00    +0.013 A 
ATOM     28  C   LIG    1        1.997 -10.243   5.944  0.00  0.00    -0.009 A 
ATOM     29  C   LIG    1        0.915 -11.094   5.800  0.00  0.00    +0.009 A 
ATOM     30  C   LIG    1       -0.354 -10.532   5.648  0.00  0.00    +0.001 A 
ATOM     31  C   LIG    1       -0.529  -9.140   5.676  0.00  0.00    +0.001 A 
ATOM     32  C   LIG    1        3.382 -10.550   6.239  0.00  0.00    -0.009 A 
ATOM     33  C   LIG    1        3.999 -11.773   6.437  0.00  0.00    +0.009 A 
ATOM     34  C   LIG    1        5.328 -11.785   6.868  0.00  0.00    +0.001 A 
ATOM     35  C   LIG    1        6.002 -10.585   7.135  0.00  0.00    +0.001 A 
ATOM     36  C   LIG    1        5.382  -9.351   6.923  0.00  0.00    +0.010 A 
ATOM     37  C   LIG    1        0.563  -8.281   5.823  0.00  0.00    +0.010 A 
ATOM     38  C   LIG    1        4.087  -9.339   6.414  0.00  0.00    +0.013 A 
ENDBRANCH  23  26
ENDBRANCH  22  23
ENDBRANCH  21  22
ENDBRANCH  20  21
ENDBRANCH   1  20
TORSDOF 9
