REMARK  Name = *****
REMARK                            x       y       z     vdW  Elec       q    Type
REMARK                         _______ _______ _______ _____ _____    ______ ____
ROOT
ATOM      1  C   LIG    1        2.344  -0.011  -0.121  0.00  0.00    +0.090 C 
ATOM      2  C   LIG    1        3.127  -1.280   0.167  0.00  0.00    +0.270 C 
ATOM      3  O   LIG    1        2.563  -2.365   0.282  0.00  0.00    -0.266 OA
ATOM      4  N   LIG    1        4.490  -1.146   0.259  0.00  0.00    -0.327 N 
ATOM      5  H   LIG    1        5.000  -1.997   0.461  0.00  0.00    +0.168 HD
ATOM      6  C   LIG    1        5.159   0.038   0.085  0.00  0.00    +0.094 C 
ATOM      7  C   LIG    1        4.494   1.172  -0.199  0.00  0.00    +0.000 C 
ATOM      8  C   LIG    1        3.043   1.122  -0.302  0.00  0.00    +0.038 C 
ENDROOT
BRANCH   7   9
ATOM      9  C   LIG    1        5.262   2.417  -0.372  0.00  0.00    -0.014 A 
ATOM     10  C   LIG    1        6.082   2.602  -1.486  0.00  0.00    +0.028 A 
ATOM     11  C   LIG    1        6.774   3.796  -1.601  0.00  0.00    +0.111 A 
ATOM     12  N   LIG    1        6.701   4.796  -0.696  0.00  0.00    -0.263 NA
ATOM     13  C   LIG    1        5.898   4.595   0.370  0.00  0.00    +0.111 A 
ATOM     14  C   LIG    1        5.165   3.438   0.575  0.00  0.00    +0.028 A 
ENDBRANCH   7   9
BRANCH   1  15
ATOM     15  N   LIG    1        0.965  -0.114  -0.200  0.00  0.00    -0.354 N 
ATOM     16  H   LIG    1        0.686  -1.091  -0.323  0.00  0.00    +0.142 HD
ATOM     17  H   LIG    1        0.549   0.509  -0.883  0.00  0.00    +0.142 HD
ENDBRANCH   1  15
TORSDOF 2
