REMARK  Name = *****
REMARK                            x       y       z     vdW  Elec       q    Type
REMARK                         _______ _______ _______ _____ _____    ______ ____
ROOT
ATOM      1  C   LIG    1       -7.701  -6.880  -0.997  0.00  0.00    +0.210 C 
ATOM      2  C   LIG    1       -9.127  -6.730  -0.330  0.00  0.00    +0.126 C 
ATOM      3  C   LIG    1      -10.087  -5.993  -1.295  0.00  0.00    +0.048 C 
ATOM      4  C   LIG    1       -9.214  -6.229   1.177  0.00  0.00    +0.160 C 
ATOM      5  C   LIG    1       -8.311  -5.090   1.697  0.00  0.00    +0.035 C 
ATOM      6  C   LIG    1       -8.398  -3.841   0.846  0.00  0.00    +0.012 C 
ATOM      7  C   LIG    1       -8.628  -4.806   3.199  0.00  0.00    +0.064 C 
ATOM      8  N   LIG    1      -10.056  -4.674   3.390  0.00  0.00    -0.286 NA
ATOM      9  H   LIG    1      -10.240  -3.871   2.825  0.00  0.00    +0.125 HD
ATOM     10  C   LIG    1      -10.903  -5.690   2.803  0.00  0.00    +0.213 C 
ATOM     11  C   LIG    1       -7.956  -3.537   3.908  0.00  0.00    +0.006 C 
ATOM     12  C   LIG    1       -8.685  -2.188   3.851  0.00  0.00    +0.009 C 
ATOM     13  C   LIG    1       -6.408  -3.520   3.777  0.00  0.00    +0.042 C 
ATOM     14  C   LIG    1       -5.500  -2.476   3.019  0.00  0.00    +0.090 C 
ATOM     15  C   LIG    1       -6.198  -1.165   2.655  0.00  0.00    +0.044 C 
ATOM     16  C   LIG    1       -4.719  -3.267   1.767  0.00  0.00    +0.158 C 
ATOM     17  C   LIG    1       -4.415  -2.346   0.551  0.00  0.00    +0.047 C 
ATOM     18  C   LIG    1       -3.082  -1.580   0.714  0.00  0.00    +0.013 C 
ATOM     19  C   LIG    1       -4.596  -2.809  -0.959  0.00  0.00    +0.140 C 
ATOM     20  C   LIG    1       -5.416  -3.974  -1.611  0.00  0.00    +0.124 C 
ATOM     21  C   LIG    1       -4.619  -4.474  -2.836  0.00  0.00    +0.022 C 
ATOM     22  C   LIG    1       -6.002  -5.179  -0.876  0.00  0.00    +0.313 C 
ATOM     23  O   LIG    1       -5.586  -5.714   0.079  0.00  0.00    -0.250 OA
ATOM     24  O   LIG    1      -10.599  -5.901   1.434  0.00  0.00    -0.353 OA
ATOM     25  O   LIG    1       -7.166  -5.602  -1.481  0.00  0.00    -0.458 OA
ENDROOT
BRANCH   1  27
ATOM     26  C   LIG    1       -6.458  -7.997  -2.998  0.00  0.00    +0.007 C 
ATOM     27  C   LIG    1       -7.784  -7.733  -2.295  0.00  0.00    +0.044 C 
ENDBRANCH   1  27
BRANCH  14  28
ATOM     28  O   LIG    1       -4.479  -1.990   3.927  0.00  0.00    -0.386 OA
ATOM     29  H   LIG    1       -4.679  -2.279   4.831  0.00  0.00    +0.210 HD
ENDBRANCH  14  28
BRANCH   2  30
ATOM     30  O   LIG    1       -9.676  -8.086  -0.238  0.00  0.00    -0.383 OA
ATOM     31  H   LIG    1      -10.572  -7.990   0.136  0.00  0.00    +0.210 HD
ENDBRANCH   2  30
BRANCH  16  32
ATOM     32  O   LIG    1       -3.563  -3.988   2.296  0.00  0.00    -0.342 OA
BRANCH  32  33
ATOM     33  C   LIG    1       -2.888  -4.927   1.422  0.00  0.00    +0.281 C 
ATOM     34  C   LIG    1       -1.543  -5.462   2.003  0.00  0.00    +0.187 C 
ATOM     35  C   LIG    1       -1.578  -6.972   2.444  0.00  0.00    +0.092 C 
ATOM     36  C   LIG    1       -2.297  -7.894   1.431  0.00  0.00    +0.053 C 
ATOM     37  C   LIG    1       -3.032  -7.075   0.395  0.00  0.00    +0.120 C 
ATOM     38  C   LIG    1       -4.016  -7.957  -0.371  0.00  0.00    +0.038 C 
ATOM     39  O   LIG    1       -3.692  -6.059   1.145  0.00  0.00    -0.346 OA
BRANCH  35  40
ATOM     40  N   LIG    1       -1.951  -7.117   3.865  0.00  0.00    -0.303 NA
ATOM     41  C   LIG    1       -1.514  -8.372   4.465  0.00  0.00    +0.105 C 
ATOM     42  C   LIG    1       -3.354  -6.857   4.179  0.00  0.00    +0.105 C 
ENDBRANCH  35  40
BRANCH  34  43
ATOM     43  O   LIG    1       -0.542  -5.370   0.952  0.00  0.00    -0.385 OA
ATOM     44  H   LIG    1        0.320  -5.474   1.391  0.00  0.00    +0.210 HD
ENDBRANCH  34  43
ENDBRANCH  32  33
ENDBRANCH  16  32
BRANCH  19  45
ATOM     45  O   LIG    1       -4.865  -1.589  -1.786  0.00  0.00    -0.347 OA
BRANCH  45  46
ATOM     46  C   LIG    1       -6.224  -1.083  -1.953  0.00  0.00    +0.254 C 
ATOM     47  O   LIG    1       -6.199   0.070  -2.805  0.00  0.00    -0.346 OA
ATOM     48  C   LIG    1       -7.458   0.753  -2.990  0.00  0.00    +0.150 C 
ATOM     49  C   LIG    1       -8.421   0.010  -3.906  0.00  0.00    +0.040 C 
ATOM     50  C   LIG    1       -8.052   1.217  -1.645  0.00  0.00    +0.175 C 
ATOM     51  C   LIG    1       -8.117   0.082  -0.604  0.00  0.00    +0.099 C 
ATOM     52  C   LIG    1       -9.281  -0.880  -0.903  0.00  0.00    +0.044 C 
ATOM     53  C   LIG    1       -6.808  -0.695  -0.614  0.00  0.00    +0.098 C 
BRANCH  51  54
ATOM     54  O   LIG    1       -8.446   0.531   0.735  0.00  0.00    -0.374 OA
ATOM     55  C   LIG    1       -7.581   1.441   1.401  0.00  0.00    +0.195 C 
ENDBRANCH  51  54
BRANCH  50  56
ATOM     56  O   LIG    1       -7.182   2.276  -1.201  0.00  0.00    -0.386 OA
ATOM     57  H   LIG    1       -6.268   1.938  -1.246  0.00  0.00    +0.210 HD
ENDBRANCH  50  56
ENDBRANCH  45  46
ENDBRANCH  19  45
BRANCH  10  58
ATOM     58  C   LIG    1      -12.395  -5.224   2.923  0.00  0.00    +0.207 C 
BRANCH  58  59
ATOM     59  O   LIG    1      -12.760  -4.040   2.173  0.00  0.00    -0.374 OA
BRANCH  59  60
ATOM     60  C   LIG    1      -12.163  -2.800   2.559  0.00  0.00    +0.188 C 
BRANCH  60  61
ATOM     61  C   LIG    1      -12.297  -2.470   4.049  0.00  0.00    +0.187 C 
BRANCH  61  62
ATOM     62  O   LIG    1      -11.611  -1.254   4.334  0.00  0.00    -0.381 OA
ATOM     63  C   LIG    1      -11.640  -0.942   5.721  0.00  0.00    +0.194 C 
ENDBRANCH  61  62
ENDBRANCH  60  61
ENDBRANCH  59  60
ENDBRANCH  58  59
ENDBRANCH  10  58
TORSDOF 16
