REMARK  Name = *****
REMARK                            x       y       z     vdW  Elec       q    Type
REMARK                         _______ _______ _______ _____ _____    ______ ____
ROOT
ATOM      1  C   LIG    1        4.171  -1.149   0.511  0.00  0.00    +0.138 A 
ATOM      2  C   LIG    1        4.799  -1.940  -0.499  0.00  0.00    -0.002 A 
ATOM      3  C   LIG    1        3.996  -2.533  -1.633  0.00  0.00    +0.048 C 
ATOM      4  C   LIG    1        6.205  -2.153  -0.443  0.00  0.00    -0.002 A 
ATOM      5  C   LIG    1        6.913  -3.068  -1.411  0.00  0.00    +0.048 C 
ATOM      6  C   LIG    1        6.944  -1.475   0.537  0.00  0.00    +0.124 A 
ATOM      7  C   LIG    1        6.306  -0.798   1.570  0.00  0.00    +0.052 A 
ATOM      8  C   LIG    1        4.922  -0.580   1.555  0.00  0.00    -0.004 A 
ATOM      9  C   LIG    1        4.388   0.272   2.667  0.00  0.00    +0.048 C 
ENDROOT
BRANCH   1  10
ATOM     10  O   LIG    1        2.780  -0.836   0.304  0.00  0.00    -0.425 OA
BRANCH  10  12
ATOM     11  C   LIG    1        0.537  -0.070   0.549  0.00  0.00    +0.136 C 
ATOM     12  C   LIG    1        1.768  -0.569   1.243  0.00  0.00    +0.309 C 
ATOM     13  O   LIG    1        1.831  -0.746   2.465  0.00  0.00    -0.251 OA
ENDBRANCH  10  12
ENDBRANCH   1  10
BRANCH   6  14
ATOM     14  O   LIG    1        8.316  -1.391   0.521  0.00  0.00    -0.489 OA
BRANCH  14  15
ATOM     15  C   LIG    1        8.770  -0.606  -0.608  0.00  0.00    +0.261 C 
BRANCH  15  16
ATOM     16  C   LIG    1        9.574   0.629  -0.158  0.00  0.00    +0.166 C 
BRANCH  16  17
ATOM     17  O   LIG    1        8.773   1.489   0.661  0.00  0.00    -0.387 OA
ATOM     18  H   LIG    1        8.542   0.976   1.453  0.00  0.00    +0.210 HD
ENDBRANCH  16  17
BRANCH  16  19
ATOM     19  C   LIG    1       10.847   0.210   0.596  0.00  0.00    +0.115 C 
BRANCH  19  20
ATOM     20  N   LIG    1       11.662   1.366   1.011  0.00  0.00    -0.311 NA
ATOM     21  H   LIG    1       11.086   1.975   1.597  0.00  0.00    +0.122 HD
BRANCH  20  22
ATOM     22  C   LIG    1       12.886   0.960   1.717  0.00  0.00    +0.048 C 
ATOM     23  C   LIG    1       13.649   2.184   2.236  0.00  0.00    +0.024 C 
ATOM     24  C   LIG    1       13.802   0.157   0.789  0.00  0.00    +0.024 C 
ENDBRANCH  20  22
ENDBRANCH  19  20
ENDBRANCH  16  19
ENDBRANCH  15  16
ENDBRANCH  14  15
ENDBRANCH   6  14
TORSDOF 9
