REMARK  Name = *****
REMARK                            x       y       z     vdW  Elec       q    Type
REMARK                         _______ _______ _______ _____ _____    ______ ____
ROOT
ATOM      1  C   LIG    1        5.351  -3.661   2.250  0.00  0.00    +0.251 C 
ENDROOT
BRANCH   1   2
ATOM      2  C   LIG    1        3.917  -3.584   2.807  0.00  0.00    +0.280 C 
BRANCH   2   3
ATOM      3  O   LIG    1        2.947  -2.891   1.966  0.00  0.00    -0.461 OA
BRANCH   3   4
ATOM      4  C   LIG    1        2.104  -3.774   1.321  0.00  0.00    +0.307 C 
ATOM      5  O   LIG    1        2.282  -4.968   1.464  0.00  0.00    -0.251 OA
BRANCH   4   6
ATOM      6  C   LIG    1        0.770  -2.923   0.521  0.00  0.00    +0.121 C 
BRANCH   6   7
ATOM      7  C   LIG    1        0.020  -3.259  -0.993  0.00  0.00    +0.016 C 
BRANCH   7   8
ATOM      8  C   LIG    1       -1.226  -2.691  -1.542  0.00  0.00    +0.035 C 
BRANCH   8   9
ATOM      9  C   LIG    1       -1.736  -3.552  -2.738  0.00  0.00    -0.047 A 
ATOM     10  C   LIG    1       -2.414  -2.825  -3.705  0.00  0.00    +0.003 A 
ATOM     11  C   LIG    1       -3.075  -3.462  -4.751  0.00  0.00    +0.000 A 
ATOM     12  C   LIG    1       -3.048  -4.849  -4.883  0.00  0.00    +0.000 A 
ATOM     13  C   LIG    1       -2.300  -5.608  -3.995  0.00  0.00    +0.000 A 
ATOM     14  C   LIG    1       -1.643  -4.964  -2.933  0.00  0.00    +0.003 A 
ENDBRANCH   8   9
ENDBRANCH   7   8
ENDBRANCH   6   7
ENDBRANCH   4   6
ENDBRANCH   3   4
ENDBRANCH   2   3
ENDBRANCH   1   2
BRANCH   1  15
ATOM     15  O   LIG    1        5.357  -4.440   1.037  0.00  0.00    -0.454 OA
BRANCH  15  16
ATOM     16  C   LIG    1        6.153  -5.522   1.063  0.00  0.00    +0.308 C 
ATOM     17  O   LIG    1        7.356  -5.545   1.415  0.00  0.00    -0.251 OA
BRANCH  16  18
ATOM     18  C   LIG    1        5.357  -6.785   0.741  0.00  0.00    +0.121 C 
BRANCH  18  19
ATOM     19  C   LIG    1        5.377  -7.301  -0.702  0.00  0.00    +0.016 C 
BRANCH  19  20
ATOM     20  C   LIG    1        4.903  -6.395  -1.833  0.00  0.00    +0.035 C 
BRANCH  20  21
ATOM     21  C   LIG    1        3.468  -6.196  -1.712  0.00  0.00    -0.047 A 
ATOM     22  C   LIG    1        3.210  -4.863  -1.574  0.00  0.00    +0.003 A 
ATOM     23  C   LIG    1        2.047  -4.688  -1.045  0.00  0.00    +0.000 A 
ATOM     24  C   LIG    1        1.095  -5.632  -0.610  0.00  0.00    +0.000 A 
ATOM     25  C   LIG    1        1.134  -6.896  -1.109  0.00  0.00    +0.000 A 
ATOM     26  C   LIG    1        2.421  -7.191  -1.655  0.00  0.00    +0.003 A 
ENDBRANCH  20  21
ENDBRANCH  19  20
ENDBRANCH  18  19
ENDBRANCH  16  18
ENDBRANCH  15  16
ENDBRANCH   1  15
BRANCH   1  27
ATOM     27  C   LIG    1        5.893  -2.269   2.017  0.00  0.00    +0.280 C 
BRANCH  27  28
ATOM     28  O   LIG    1        7.271  -2.346   1.652  0.00  0.00    -0.461 OA
BRANCH  28  30
ATOM     29  O   LIG    1        7.874  -2.648   3.840  0.00  0.00    -0.251 OA
ATOM     30  C   LIG    1        8.163  -2.564   2.643  0.00  0.00    +0.307 C 
BRANCH  30  31
ATOM     31  C   LIG    1        9.565  -2.692   2.106  0.00  0.00    +0.121 C 
BRANCH  31  32
ATOM     32  C   LIG    1        9.699  -2.461   0.606  0.00  0.00    +0.016 C 
BRANCH  32  33
ATOM     33  C   LIG    1        9.317  -1.051   0.116  0.00  0.00    +0.035 C 
BRANCH  33  34
ATOM     34  C   LIG    1        9.501  -0.857  -1.373  0.00  0.00    -0.047 A 
ATOM     35  C   LIG    1        9.998  -1.875  -2.201  0.00  0.00    +0.003 A 
ATOM     36  C   LIG    1       10.190  -1.668  -3.562  0.00  0.00    +0.000 A 
ATOM     37  C   LIG    1        9.875  -0.438  -4.123  0.00  0.00    +0.000 A 
ATOM     38  C   LIG    1        9.357   0.581  -3.324  0.00  0.00    +0.000 A 
ATOM     39  C   LIG    1        9.167   0.374  -1.956  0.00  0.00    +0.003 A 
ENDBRANCH  33  34
ENDBRANCH  32  33
ENDBRANCH  31  32
ENDBRANCH  30  31
ENDBRANCH  28  30
ENDBRANCH  27  28
ENDBRANCH   1  27
TORSDOF 20
