REMARK  Name = *****
REMARK                            x       y       z     vdW  Elec       q    Type
REMARK                         _______ _______ _______ _____ _____    ______ ____
ROOT
ATOM      1  CA  LIG    1       -4.765   4.590  -2.759  0.00  0.00    +0.191 C 
ATOM      2  C   LIG    1       -4.011   5.139  -4.011  0.00  0.00    +0.169 C 
ATOM      3  N   LIG    1       -2.795   5.123  -3.218  0.00  0.00    -0.249 N 
ATOM      4  CA  LIG    1       -1.711   5.966  -3.362  0.00  0.00    +0.123 C 
ATOM      5  C   LIG    1       -1.736   7.019  -4.227  0.00  0.00    -0.021 C 
ATOM      6  C   LIG    1       -2.925   7.343  -5.107  0.00  0.00    +0.104 C 
ATOM      7  S   LIG    1       -4.517   6.810  -4.480  0.00  0.00    -0.131 S 
ATOM      8  C   LIG    1       -3.377   4.662  -2.076  0.00  0.00    +0.244 C 
ATOM      9  O   LIG    1       -2.998   4.566  -0.922  0.00  0.00    -0.273 OA
ENDROOT
BRANCH   1  11
ATOM     10  C   LIG    1       -6.515   5.113  -1.050  0.00  0.00    +0.218 C 
ATOM     11  N   LIG    1       -5.796   5.488  -2.154  0.00  0.00    -0.301 N 
ATOM     12  H   LIG    1       -5.698   6.492  -2.314  0.00  0.00    +0.149 HD
ATOM     13  O   LIG    1       -6.395   3.996  -0.548  0.00  0.00    -0.275 OA
BRANCH  10  14
ATOM     14  C   LIG    1       -7.495   6.128  -0.479  0.00  0.00    +0.131 C 
BRANCH  14  16
ATOM     15  C   LIG    1       -6.807   8.587  -0.801  0.00  0.00    -0.030 A 
ATOM     16  C   LIG    1       -7.596   7.474  -1.174  0.00  0.00    -0.034 A 
ATOM     17  C   LIG    1       -8.522   7.614  -2.228  0.00  0.00    +0.004 A 
ATOM     18  C   LIG    1       -8.728   8.844  -2.853  0.00  0.00    +0.000 A 
ATOM     19  C   LIG    1       -7.988   9.950  -2.459  0.00  0.00    +0.000 A 
ATOM     20  C   LIG    1       -7.025   9.818  -1.457  0.00  0.00    +0.005 A 
BRANCH  15  21
ATOM     21  C   LIG    1       -5.766   8.533   0.300  0.00  0.00    +0.113 C 
BRANCH  21  22
ATOM     22  N   LIG    1       -4.677   7.610  -0.001  0.00  0.00    -0.326 NA
ATOM     23  H   LIG    1       -4.935   6.665   0.289  0.00  0.00    +0.118 HD
ATOM     24  H   LIG    1       -3.882   7.822   0.605  0.00  0.00    +0.118 HD
ENDBRANCH  21  22
ENDBRANCH  15  21
ENDBRANCH  14  16
ENDBRANCH  10  14
ENDBRANCH   1  11
BRANCH   4  25
ATOM     25  C   LIG    1       -0.503   5.616  -2.522  0.00  0.00    +0.351 C 
ATOM     26  O   LIG    1       -0.456   4.901  -1.539  0.00  0.00    -0.244 OA
BRANCH  25  27
ATOM     27  OXT LIG    1        0.665   6.046  -3.030  0.00  0.00    -0.476 OA
ATOM     28  HXT LIG    1        1.313   5.654  -2.406  0.00  0.00    +0.295 HD
ENDBRANCH  25  27
ENDBRANCH   4  25
BRANCH   5  29
ATOM     29  C   LIG    1       -0.635   8.084  -4.351  0.00  0.00    +0.111 C 
BRANCH  29  30
ATOM     30  S   LIG    1        0.614   7.605  -5.616  0.00  0.00    -0.080 S 
BRANCH  30  31
ATOM     31  C   LIG    1        1.681   8.968  -5.561  0.00  0.00    +0.210 A 
ATOM     32  N   LIG    1        3.056   8.954  -5.469  0.00  0.00    -0.209 N 
ATOM     33  N   LIG    1        3.497  10.230  -5.545  0.00  0.00    -0.043 NA
ATOM     34  N   LIG    1        2.416  10.979  -5.691  0.00  0.00    -0.022 NA
ATOM     35  N   LIG    1        1.283  10.211  -5.710  0.00  0.00    -0.102 NA
BRANCH  32  36
ATOM     36  C   LIG    1        4.025   7.888  -5.632  0.00  0.00    +0.268 C 
BRANCH  36  37
ATOM     37  C   LIG    1        5.146   7.897  -4.620  0.00  0.00    +0.327 C 
ATOM     38  O   LIG    1        5.256   8.552  -3.599  0.00  0.00    -0.249 OA
BRANCH  37  39
ATOM     39  O   LIG    1        6.132   7.032  -4.969  0.00  0.00    -0.479 OA
ATOM     40  H   LIG    1        6.857   7.186  -4.322  0.00  0.00    +0.295 HD
ENDBRANCH  37  39
ENDBRANCH  36  37
ENDBRANCH  32  36
ENDBRANCH  30  31
ENDBRANCH  29  30
ENDBRANCH   5  29
TORSDOF 13
