REMARK  Name = *****
REMARK                            x       y       z     vdW  Elec       q    Type
REMARK                         _______ _______ _______ _____ _____    ______ ____
ROOT
ATOM      1  C   LIG    1        0.770   3.399   2.342  0.00  0.00    -0.021 C 
ATOM      2  C   LIG    1        0.341   4.777   1.866  0.00  0.00    +0.104 C 
ATOM      3  S   LIG    1        0.377   6.010   3.187  0.00  0.00    -0.131 S 
ATOM      4  C   LIG    1       -0.669   5.022   4.274  0.00  0.00    +0.169 C 
ATOM      5  N   LIG    1       -0.045   3.731   4.526  0.00  0.00    -0.249 N 
ATOM      6  C   LIG    1       -0.078   3.841   5.877  0.00  0.00    +0.244 C 
ATOM      7  O   LIG    1        0.345   3.104   6.754  0.00  0.00    -0.273 OA
ATOM      8  CA  LIG    1       -0.532   5.292   5.802  0.00  0.00    +0.191 C 
ATOM      9  CA  LIG    1        0.600   2.924   3.639  0.00  0.00    +0.123 C 
ENDROOT
BRANCH   8  10
ATOM     10  N   LIG    1        0.512   6.248   6.266  0.00  0.00    -0.301 N 
ATOM     11  H   LIG    1        1.495   6.030   6.123  0.00  0.00    +0.149 HD
ATOM     12  C   LIG    1        0.167   7.445   6.850  0.00  0.00    +0.220 C 
ATOM     13  O   LIG    1       -1.014   7.762   6.951  0.00  0.00    -0.275 OA
BRANCH  12  14
ATOM     14  C   LIG    1        1.348   8.260   7.363  0.00  0.00    +0.151 C 
BRANCH  14  15
ATOM     15  C   LIG    1        0.955   9.563   7.989  0.00  0.00    +0.059 A 
ATOM     16  N   LIG    1        1.845  10.630   7.912  0.00  0.00    -0.230 NA
ATOM     17  C   LIG    1        1.347  11.684   8.513  0.00  0.00    +0.156 A 
ATOM     18  S   LIG    1       -0.221  11.486   9.175  0.00  0.00    -0.061 S 
ATOM     19  C   LIG    1       -0.202   9.849   8.693  0.00  0.00    +0.072 A 
BRANCH  17  20
ATOM     20  N   LIG    1        1.998  12.850   8.626  0.00  0.00    -0.338 N 
ATOM     21  H   LIG    1        2.827  12.977   8.061  0.00  0.00    +0.144 HD
ATOM     22  H   LIG    1        1.477  13.687   8.851  0.00  0.00    +0.144 HD
ENDBRANCH  17  20
ENDBRANCH  14  15
ENDBRANCH  12  14
ENDBRANCH   8  10
BRANCH   9  23
ATOM     23  C   LIG    1        1.156   1.589   4.034  0.00  0.00    +0.351 C 
ATOM     24  O   LIG    1        1.557   0.762   3.229  0.00  0.00    -0.244 OA
BRANCH  23  25
ATOM     25  OXT LIG    1        1.181   1.265   5.334  0.00  0.00    -0.476 OA
ATOM     26  HXT LIG    1        1.069   1.983   5.995  0.00  0.00    +0.295 HD
ENDBRANCH  23  25
ENDBRANCH   9  23
BRANCH   1  27
ATOM     27  C   LIG    1        1.480   2.630   1.243  0.00  0.00    +0.111 C 
BRANCH  27  28
ATOM     28  S   LIG    1        3.258   3.078   1.156  0.00  0.00    -0.080 S 
BRANCH  28  30
ATOM     29  N   LIG    1        4.366   1.357   3.017  0.00  0.00    -0.219 N 
ATOM     30  C   LIG    1        3.841   2.584   2.711  0.00  0.00    +0.210 A 
ATOM     31  N   LIG    1        3.778   3.297   3.814  0.00  0.00    -0.102 NA
ATOM     32  N   LIG    1        4.256   2.485   4.817  0.00  0.00    -0.022 NA
ATOM     33  N   LIG    1        4.626   1.304   4.339  0.00  0.00    -0.043 NA
BRANCH  29  34
ATOM     34  C   LIG    1        4.777   0.277   2.156  0.00  0.00    +0.163 C 
BRANCH  34  35
ATOM     35  C   LIG    1        3.626  -0.402   1.405  0.00  0.00    +0.107 C 
BRANCH  35  37
ATOM     36  C   LIG    1        2.886  -2.041  -0.188  0.00  0.00    +0.104 C 
ATOM     37  N   LIG    1        4.059  -1.472   0.487  0.00  0.00    -0.307 NA
ATOM     38  C   LIG    1        5.011  -0.976  -0.506  0.00  0.00    +0.104 C 
ENDBRANCH  35  37
ENDBRANCH  34  35
ENDBRANCH  29  34
ENDBRANCH  28  30
ENDBRANCH  27  28
ENDBRANCH   1  27
TORSDOF 12
