REMARK  Name = *****
REMARK                            x       y       z     vdW  Elec       q    Type
REMARK                         _______ _______ _______ _____ _____    ______ ____
ROOT
ATOM      1  C   LIG    1        4.958   1.534  -2.329  0.00  0.00    +0.181 C 
ATOM      2  O   LIG    1        5.863   2.537  -1.836  0.00  0.00    -0.340 OA
ATOM      3  C   LIG    1        6.835   2.737  -2.877  0.00  0.00    +0.171 C 
ATOM      4  C   LIG    1        8.231   2.446  -2.310  0.00  0.00    +0.065 C 
ATOM      5  C   LIG    1        9.333   2.748  -3.324  0.00  0.00    +0.005 C 
ATOM      6  C   LIG    1        9.238   4.181  -3.842  0.00  0.00    +0.000 C 
ATOM      7  C   LIG    1        7.852   4.495  -4.398  0.00  0.00    +0.005 C 
ATOM      8  C   LIG    1        6.754   4.180  -3.384  0.00  0.00    +0.065 C 
ATOM      9  O   LIG    1        6.556   1.833  -3.960  0.00  0.00    -0.346 OA
ATOM     10  C   LIG    1        5.769   0.801  -3.370  0.00  0.00    +0.198 C 
ENDROOT
BRANCH   1  11
ATOM     11  C   LIG    1        3.707   2.191  -2.936  0.00  0.00    +0.229 C 
BRANCH  11  12
ATOM     12  N   LIG    1        2.932   2.844  -1.887  0.00  0.00    -0.274 N 
ATOM     13  H   LIG    1        3.529   3.376  -1.253  0.00  0.00    +0.258 HD
BRANCH  12  16
ATOM     14  N   LIG    1        1.523   4.577  -1.424  0.00  0.00    -0.130 NA
ATOM     15  H   LIG    1        0.631   4.968  -1.727  0.00  0.00    +0.306 HD
ATOM     16  C   LIG    1        1.790   3.527  -2.106  0.00  0.00    +0.376 C 
BRANCH  16  17
ATOM     17  N   LIG    1        0.972   3.026  -3.051  0.00  0.00    -0.289 N 
ATOM     18  H   LIG    1        0.968   2.014  -3.071  0.00  0.00    +0.255 HD
ATOM     19  H   LIG    1        0.030   3.393  -3.035  0.00  0.00    +0.255 HD
ENDBRANCH  16  17
ENDBRANCH  12  16
ENDBRANCH  11  12
ENDBRANCH   1  11
TORSDOF 4
