REMARK  Name = *****
REMARK                            x       y       z     vdW  Elec       q    Type
REMARK                         _______ _______ _______ _____ _____    ______ ____
ROOT
ATOM      1  O   LIG    1       12.312   4.949   6.772  0.00  0.00    -0.492 OA
ENDROOT
BRANCH   1   2
ATOM      2  C   LIG    1       11.856   4.888   8.065  0.00  0.00    +0.121 A 
ATOM      3  C   LIG    1       12.006   3.761   8.869  0.00  0.00    +0.050 A 
ATOM      4  C   LIG    1       11.640   3.763  10.216  0.00  0.00    -0.030 A 
ATOM      5  C   LIG    1       11.063   4.914  10.757  0.00  0.00    +0.005 A 
ATOM      6  C   LIG    1       10.837   6.029   9.943  0.00  0.00    +0.004 A 
ATOM      7  C   LIG    1       11.222   6.013   8.596  0.00  0.00    +0.045 A 
BRANCH   4   8
ATOM      8  C   LIG    1       11.896   2.514  11.028  0.00  0.00    +0.119 C 
BRANCH   8   9
ATOM      9  N   LIG    1       11.221   1.320  10.483  0.00  0.00    -0.298 NA
ATOM     10  C   LIG    1       11.635   0.096  11.182  0.00  0.00    +0.085 C 
ATOM     11  C   LIG    1       11.096  -0.009  12.611  0.00  0.00    +0.015 C 
ATOM     12  C   LIG    1        9.583   0.194  12.669  0.00  0.00    +0.002 C 
ATOM     13  C   LIG    1        9.142   1.421  11.876  0.00  0.00    +0.015 C 
ATOM     14  C   LIG    1        9.754   1.424  10.476  0.00  0.00    +0.085 C 
ENDBRANCH   8   9
ENDBRANCH   4   8
ENDBRANCH   1   2
BRANCH   1  15
ATOM     15  C   LIG    1       13.399   4.054   6.473  0.00  0.00    +0.230 C 
BRANCH  15  16
ATOM     16  C   LIG    1       14.544   4.826   5.843  0.00  0.00    +0.060 C 
BRANCH  16  17
ATOM     17  C   LIG    1       15.729   3.905   5.570  0.00  0.00    +0.107 C 
BRANCH  17  19
ATOM     18  C   LIG    1       17.997   4.041   4.585  0.00  0.00    +0.251 C 
ATOM     19  N   LIG    1       16.816   4.636   4.966  0.00  0.00    -0.312 N 
ATOM     20  H   LIG    1       16.681   5.625   4.764  0.00  0.00    +0.149 HD
ATOM     21  O   LIG    1       18.223   2.843   4.731  0.00  0.00    -0.272 OA
BRANCH  18  22
ATOM     22  C   LIG    1       19.005   4.994   3.928  0.00  0.00    +0.327 C 
BRANCH  22  23
ATOM     23  O   LIG    1       19.390   6.081   4.775  0.00  0.00    -0.455 OA
BRANCH  23  25
ATOM     24  C   LIG    1       18.914   8.088   5.891  0.00  0.00    +0.136 C 
ATOM     25  C   LIG    1       18.505   7.116   4.825  0.00  0.00    +0.304 C 
ATOM     26  O   LIG    1       17.469   7.188   4.194  0.00  0.00    -0.251 OA
ENDBRANCH  23  25
ENDBRANCH  22  23
ENDBRANCH  18  22
ENDBRANCH  17  19
ENDBRANCH  16  17
ENDBRANCH  15  16
ENDBRANCH   1  15
TORSDOF 10
