REMARK  Name = *****
REMARK                            x       y       z     vdW  Elec       q    Type
REMARK                         _______ _______ _______ _____ _____    ______ ____
ROOT
ATOM      1  C   LIG    1       10.733  -4.205   0.125  0.00  0.00    +0.098 C 
ENDROOT
BRANCH   1   2
ATOM      2  C   LIG    1       12.172  -4.516   0.500  0.00  0.00    -0.014 A 
ATOM      3  C   LIG    1       13.132  -4.897  -0.459  0.00  0.00    +0.047 A 
ATOM      4 CL   LIG    1       12.722  -5.178  -2.114  0.00  0.00    -0.083 Cl
ATOM      5  C   LIG    1       14.475  -5.039  -0.105  0.00  0.00    +0.040 A 
ATOM      6  C   LIG    1       14.877  -4.786   1.203  0.00  0.00    +0.042 A 
ATOM      7 CL   LIG    1       16.537  -4.919   1.628  0.00  0.00    -0.084 Cl
ATOM      8  C   LIG    1       13.950  -4.409   2.168  0.00  0.00    +0.020 A 
ATOM      9  C   LIG    1       12.607  -4.284   1.822  0.00  0.00    +0.007 A 
ENDBRANCH   1   2
BRANCH   1  10
ATOM     10  S   LIG    1        9.504  -5.087   1.204  0.00  0.00    -0.146 S 
BRANCH  10  11
ATOM     11  C   LIG    1        9.908  -6.842   0.905  0.00  0.00    +0.104 C 
BRANCH  11  16
ATOM     12 CL   LIG    1       14.417  -9.274   4.106  0.00  0.00    -0.084 Cl
ATOM     13  C   LIG    1       13.153  -8.535   3.203  0.00  0.00    +0.041 A 
ATOM     14  C   LIG    1       12.047  -8.005   3.861  0.00  0.00    +0.020 A 
ATOM     15  C   LIG    1       11.002  -7.438   3.123  0.00  0.00    +0.006 A 
ATOM     16  C   LIG    1       11.061  -7.386   1.720  0.00  0.00    -0.037 A 
ATOM     17  C   LIG    1       12.191  -7.916   1.077  0.00  0.00    +0.006 A 
ATOM     18  C   LIG    1       13.233  -8.486   1.814  0.00  0.00    +0.020 A 
ENDBRANCH  11  16
ENDBRANCH  10  11
ENDBRANCH   1  10
BRANCH   1  19
ATOM     19  C   LIG    1       10.464  -2.678   0.238  0.00  0.00    +0.141 C 
BRANCH  19  20
ATOM     20  N   LIG    1       11.454  -1.837  -0.422  0.00  0.00    -0.336 N 
ATOM     21  C   LIG    1       12.571  -1.314   0.170  0.00  0.00    +0.199 A 
ATOM     22  N   LIG    1       13.276  -0.601  -0.687  0.00  0.00    -0.244 NA
ATOM     23  C   LIG    1       12.569  -0.640  -1.854  0.00  0.00    +0.130 A 
ATOM     24  C   LIG    1       11.427  -1.393  -1.712  0.00  0.00    +0.107 A 
ENDBRANCH  19  20
ENDBRANCH   1  19
TORSDOF 6
