REMARK  Name = *****
REMARK                            x       y       z     vdW  Elec       q    Type
REMARK                         _______ _______ _______ _____ _____    ______ ____
ROOT
ATOM      1  C   LIG    1        8.119   1.739  -0.919  0.00  0.00    +0.031 C 
ATOM      2  C   LIG    1        9.219   0.977  -0.769  0.00  0.00    +0.035 C 
ATOM      3  C   LIG    1       10.597   1.488  -1.104  0.00  0.00    +0.003 A 
ATOM      4  C   LIG    1       11.710   0.621  -0.920  0.00  0.00    -0.033 A 
ATOM      5  C   LIG    1       13.002   1.061  -1.203  0.00  0.00    +0.053 A 
ATOM      6  C   LIG    1       13.260   2.339  -1.692  0.00  0.00    +0.162 A 
ATOM      7  C   LIG    1       12.190   3.235  -1.840  0.00  0.00    +0.163 A 
ATOM      8  C   LIG    1       11.538  -0.807  -0.484  0.00  0.00    +0.054 C 
ATOM      9  C   LIG    1       10.297  -0.982   0.364  0.00  0.00    +0.106 C 
ATOM     10  C   LIG    1       10.885   2.787  -1.553  0.00  0.00    +0.059 A 
ATOM     11  N   LIG    1        9.186  -0.329  -0.292  0.00  0.00    -0.343 N 
ATOM     12  H   LIG    1        8.310  -0.828  -0.380  0.00  0.00    +0.146 HD
ENDROOT
BRANCH   1  16
ATOM     13  C   LIG    1        4.156   1.278   0.719  0.00  0.00    +0.162 A 
ATOM     14  C   LIG    1        5.234   0.620   1.331  0.00  0.00    +0.162 A 
ATOM     15  C   LIG    1        6.510   0.734   0.759  0.00  0.00    +0.057 A 
ATOM     16  C   LIG    1        6.751   1.479  -0.404  0.00  0.00    -0.020 A 
ATOM     17  C   LIG    1        5.671   2.141  -1.000  0.00  0.00    +0.012 A 
ATOM     18  C   LIG    1        4.395   2.032  -0.442  0.00  0.00    +0.050 A 
BRANCH  13  19
ATOM     19  O   LIG    1        2.846   1.347   1.103  0.00  0.00    -0.489 OA
BRANCH  19  21
ATOM     20  C   LIG    1        1.198   1.470   2.812  0.00  0.00    +0.048 C 
ATOM     21  C   LIG    1        2.399   0.701   2.288  0.00  0.00    +0.226 C 
ENDBRANCH  19  21
ENDBRANCH  13  19
BRANCH  14  22
ATOM     22  O   LIG    1        5.018  -0.146   2.449  0.00  0.00    -0.489 OA
BRANCH  22  23
ATOM     23  C   LIG    1        6.096  -0.267   3.384  0.00  0.00    +0.226 C 
ATOM     24  C   LIG    1        5.508  -0.503   4.767  0.00  0.00    +0.048 C 
ENDBRANCH  22  23
ENDBRANCH  14  22
ENDBRANCH   1  16
BRANCH   7  25
ATOM     25  O   LIG    1       12.227   4.540  -2.260  0.00  0.00    -0.489 OA
BRANCH  25  26
ATOM     26  C   LIG    1       13.472   5.152  -2.588  0.00  0.00    +0.226 C 
ATOM     27  C   LIG    1       13.834   4.884  -4.040  0.00  0.00    +0.048 C 
ENDBRANCH  25  26
ENDBRANCH   7  25
BRANCH   6  28
ATOM     28  O   LIG    1       14.538   2.716  -2.005  0.00  0.00    -0.489 OA
BRANCH  28  29
ATOM     29  C   LIG    1       15.396   1.667  -2.458  0.00  0.00    +0.226 C 
ATOM     30  C   LIG    1       16.439   2.253  -3.386  0.00  0.00    +0.048 C 
ENDBRANCH  28  29
ENDBRANCH   6  28
TORSDOF 9
