REMARK  Name = *****
REMARK                            x       y       z     vdW  Elec       q    Type
REMARK                         _______ _______ _______ _____ _____    ______ ____
ROOT
ATOM      1  C   LIG    1        7.472  -2.291  -1.054  0.00  0.00    +0.229 C 
ENDROOT
BRANCH   1   2
ATOM      2  O   LIG    1        7.527  -1.917  -2.446  0.00  0.00    -0.492 OA
BRANCH   2   6
ATOM      3  C   LIG    1        5.548   2.445  -1.098  0.00  0.00    +0.044 C 
ATOM      4  C   LIG    1        6.079   1.525  -2.157  0.00  0.00    -0.047 A 
ATOM      5  C   LIG    1        6.636   0.284  -1.797  0.00  0.00    +0.049 A 
ATOM      6  C   LIG    1        7.085  -0.638  -2.759  0.00  0.00    +0.124 A 
ATOM      7  C   LIG    1        7.058  -0.240  -4.115  0.00  0.00    -0.009 A 
ATOM      8  C   LIG    1        7.525  -1.105  -5.253  0.00  0.00    +0.048 C 
ATOM      9  C   LIG    1        6.515   1.016  -4.465  0.00  0.00    +0.007 A 
ATOM     10  C   LIG    1        6.023   1.887  -3.499  0.00  0.00    +0.004 A 
ENDBRANCH   2   6
ENDBRANCH   1   2
BRANCH   1  11
ATOM     11  C   LIG    1        7.989  -3.721  -0.756  0.00  0.00    +0.042 C 
BRANCH  11  12
ATOM     12  C   LIG    1        7.144  -4.896  -1.306  0.00  0.00    +0.021 C 
BRANCH  12  13
ATOM     13  C   LIG    1        7.620  -6.337  -0.895  0.00  0.00    +0.062 C 
ATOM     14  C   LIG    1        7.579  -6.529   0.634  0.00  0.00    +0.022 C 
ATOM     15  C   LIG    1        9.055  -6.603  -1.387  0.00  0.00    +0.022 C 
BRANCH  13  16
ATOM     16  C   LIG    1        6.725  -7.396  -1.573  0.00  0.00    +0.310 C 
ATOM     17  O   LIG    1        6.545  -7.525  -2.764  0.00  0.00    -0.250 OA
BRANCH  16  18
ATOM     18  O   LIG    1        6.157  -8.276  -0.715  0.00  0.00    -0.480 OA
ATOM     19  H   LIG    1        5.694  -8.926  -1.283  0.00  0.00    +0.295 HD
ENDBRANCH  16  18
ENDBRANCH  13  16
ENDBRANCH  12  13
ENDBRANCH  11  12
ENDBRANCH   1  11
TORSDOF 7
