REMARK  Name = *****
REMARK                            x       y       z     vdW  Elec       q    Type
REMARK                         _______ _______ _______ _____ _____    ______ ____
ROOT
ATOM      1  N   LIG    1        9.509   0.235  -3.097  0.00  0.00    -0.268 N 
ATOM      2  C   LIG    1        9.052  -0.174  -1.830  0.00  0.00    +0.241 C 
ATOM      3  O   LIG    1        7.870  -0.404  -1.593  0.00  0.00    -0.273 OA
ATOM      4  C   LIG    1       10.106  -0.399  -0.743  0.00  0.00    +0.238 C 
ATOM      5  N   LIG    1       10.641   0.898  -0.320  0.00  0.00    -0.273 NA
ATOM      6  C   LIG    1       11.418   1.497  -1.162  0.00  0.00    +0.078 C 
ATOM      7  C   LIG    1       11.836   0.893  -2.455  0.00  0.00    +0.023 A 
ATOM      8  C   LIG    1       13.214   0.898  -2.727  0.00  0.00    +0.032 A 
ATOM      9  C   LIG    1       13.662   0.595  -4.002  0.00  0.00    +0.042 A 
ATOM     10 CL   LIG    1       15.342   0.668  -4.356  0.00  0.00    -0.084 Cl
ATOM     11  C   LIG    1       12.751   0.265  -4.997  0.00  0.00    +0.022 A 
ATOM     12  C   LIG    1       11.383   0.174  -4.697  0.00  0.00    +0.025 A 
ATOM     13  C   LIG    1       10.896   0.446  -3.407  0.00  0.00    +0.046 A 
ENDROOT
BRANCH   6  14
ATOM     14  C   LIG    1       11.933   2.868  -0.812  0.00  0.00    +0.036 A 
ATOM     15  C   LIG    1       12.222   3.819  -1.799  0.00  0.00    +0.133 A 
ATOM     16  F   LIG    1       12.002   3.563  -3.097  0.00  0.00    -0.205 F 
ATOM     17  C   LIG    1       12.737   5.071  -1.467  0.00  0.00    +0.039 A 
ATOM     18  C   LIG    1       12.942   5.403  -0.131  0.00  0.00    +0.003 A 
ATOM     19  C   LIG    1       12.627   4.481   0.868  0.00  0.00    +0.001 A 
ATOM     20  C   LIG    1       12.125   3.217   0.532  0.00  0.00    +0.013 A 
ENDBRANCH   6  14
BRANCH   1  21
ATOM     21  C   LIG    1        8.485   0.402  -4.152  0.00  0.00    +0.129 C 
BRANCH  21  22
ATOM     22  C   LIG    1        8.323   1.882  -4.588  0.00  0.00    +0.104 C 
BRANCH  22  23
ATOM     23  N   LIG    1        7.214   2.214  -5.520  0.00  0.00    -0.301 NA
BRANCH  23  25
ATOM     24  C   LIG    1        8.611   1.806  -7.587  0.00  0.00    +0.020 C 
ATOM     25  C   LIG    1        7.311   1.540  -6.823  0.00  0.00    +0.081 C 
ENDBRANCH  23  25
BRANCH  23  26
ATOM     26  C   LIG    1        5.918   1.981  -4.848  0.00  0.00    +0.081 C 
ATOM     27  C   LIG    1        4.668   2.421  -5.607  0.00  0.00    +0.020 C 
ENDBRANCH  23  26
ENDBRANCH  22  23
ENDBRANCH  21  22
ENDBRANCH   1  21
TORSDOF 6
