REMARK  Name = *****
REMARK                            x       y       z     vdW  Elec       q    Type
REMARK                         _______ _______ _______ _____ _____    ______ ____
ROOT
ATOM      1 CL   LIG    1        2.626  -0.099  -0.101  0.00  0.00    +0.130 Cl
ENDROOT
BRANCH   1   2
ATOM      2  O   LIG    1        0.965  -0.128  -0.057  0.00  0.00    -0.271 OA
ATOM      3  H   LIG    1        0.566   0.234  -0.866  0.00  0.00    +0.238 HD
ENDBRANCH   1   2
BRANCH   1   4
ATOM      4  O   LIG    1        3.200  -0.220   1.457  0.00  0.00    -0.271 OA
ATOM      5  H   LIG    1        2.896  -1.045   1.866  0.00  0.00    +0.238 HD
ENDBRANCH   1   4
BRANCH   1   6
ATOM      6  O   LIG    1        3.172   1.326  -0.758  0.00  0.00    -0.271 OA
ATOM      7  H   LIG    1        2.877   1.468  -1.672  0.00  0.00    +0.238 HD
ENDBRANCH   1   6
BRANCH   1   8
ATOM      8  O   LIG    1        3.182  -1.400  -0.973  0.00  0.00    -0.271 OA
ATOM      9  H   LIG    1        3.147  -1.247  -1.932  0.00  0.00    +0.238 HD
ENDBRANCH   1   8
TORSDOF 4
