REMARK  Name = *****
REMARK                            x       y       z     vdW  Elec       q    Type
REMARK                         _______ _______ _______ _____ _____    ______ ____
ROOT
ATOM      1  C   LIG    1        6.445   9.327  -2.062  0.00  0.00    +0.011 C 
ATOM      2  C   LIG    1        4.968   9.328  -2.442  0.00  0.00    +0.026 C 
ATOM      3  C   LIG    1        4.222   7.973  -2.269  0.00  0.00    +0.135 C 
ATOM      4  C   LIG    1        2.736   8.450  -2.094  0.00  0.00    +0.010 C 
ATOM      5  C   LIG    1        2.871   9.668  -1.137  0.00  0.00    +0.005 C 
ATOM      6  C   LIG    1        2.880   9.380   0.398  0.00  0.00    +0.036 C 
ATOM      7  C   LIG    1        1.831   8.323   0.845  0.00  0.00    +0.153 C 
ATOM      8  C   LIG    1        1.925   7.066  -0.044  0.00  0.00    +0.154 C 
ATOM      9  F   LIG    1        0.600   8.892   0.564  0.00  0.00    -0.238 F 
ATOM     10  C   LIG    1        1.860   8.043   2.422  0.00  0.00    +0.047 C 
ATOM     11  C   LIG    1        2.407   9.286   3.136  0.00  0.00    -0.020 C 
ATOM     12  C   LIG    1        3.306   9.252   4.136  0.00  0.00    +0.054 C 
ATOM     13  C   LIG    1        3.905   7.982   4.589  0.00  0.00    +0.179 C 
ATOM     14  C   LIG    1        3.561   6.768   3.823  0.00  0.00    +0.047 C 
ATOM     15  O   LIG    1        4.693   7.942   5.524  0.00  0.00    -0.288 OA
ATOM     16  C   LIG    1        1.976  10.581   2.520  0.00  0.00    +0.194 C 
ATOM     17  F   LIG    1        2.322  11.652   3.288  0.00  0.00    -0.241 F 
ATOM     18  C   LIG    1        0.422   7.795   2.959  0.00  0.00    +0.023 C 
ATOM     19  C   LIG    1        2.654   6.807   2.837  0.00  0.00    -0.009 C 
ATOM     20  C   LIG    1        2.663  10.724   1.162  0.00  0.00    +0.048 C 
ATOM     21  C   LIG    1        2.151   8.975  -3.444  0.00  0.00    +0.015 C 
ATOM     22  C   LIG    1        1.754   7.410  -1.526  0.00  0.00    +0.044 C 
ATOM     23  C   LIG    1        4.168  10.360  -1.611  0.00  0.00    +0.011 C 
ENDROOT
BRANCH   3  24
ATOM     24  O   LIG    1        4.676   7.354  -1.069  0.00  0.00    -0.380 OA
ATOM     25  H   LIG    1        5.626   7.143  -1.172  0.00  0.00    +0.211 HD
ENDBRANCH   3  24
BRANCH   3  26
ATOM     26  C   LIG    1        4.439   7.012  -3.482  0.00  0.00    +0.202 C 
ATOM     27  O   LIG    1        4.729   7.436  -4.605  0.00  0.00    -0.291 OA
BRANCH  26  28
ATOM     28  C   LIG    1        4.226   5.509  -3.247  0.00  0.00    +0.309 C 
BRANCH  28  29
ATOM     29  O   LIG    1        4.984   4.668  -4.111  0.00  0.00    -0.457 OA
BRANCH  29  30
ATOM     30  C   LIG    1        6.289   4.470  -3.752  0.00  0.00    +0.313 C 
ATOM     31  O   LIG    1        6.818   5.021  -2.800  0.00  0.00    -0.250 OA
BRANCH  30  32
ATOM     32  C   LIG    1        6.998   3.517  -4.732  0.00  0.00    +0.059 C 
ATOM     33  C   LIG    1        7.542   4.360  -5.893  0.00  0.00    +0.022 C 
ATOM     34  C   LIG    1        6.052   2.445  -5.299  0.00  0.00    +0.022 C 
ATOM     35  C   LIG    1        8.125   2.777  -3.992  0.00  0.00    +0.022 C 
ENDBRANCH  30  32
ENDBRANCH  29  30
ENDBRANCH  28  29
ENDBRANCH  26  28
ENDBRANCH   3  26
BRANCH   8  36
ATOM     36  O   LIG    1        0.910   6.112   0.291  0.00  0.00    -0.389 OA
ATOM     37  H   LIG    1        0.061   6.592   0.313  0.00  0.00    +0.210 HD
ENDBRANCH   8  36
TORSDOF 7
