REMARK  Name = *****
REMARK                            x       y       z     vdW  Elec       q    Type
REMARK                         _______ _______ _______ _____ _____    ______ ____
ROOT
ATOM      1  C   LIG    1        2.436   0.468   1.280  0.00  0.00    +0.121 A 
ATOM      2  C   LIG    1        3.365  -0.426   1.831  0.00  0.00    +0.056 A 
ATOM      3  C   LIG    1        3.077  -1.091   3.058  0.00  0.00    +0.008 A 
ATOM      4  C   LIG    1        3.618  -2.239   3.716  0.00  0.00    -0.008 C 
ATOM      5  C   LIG    1        2.831  -2.462   4.843  0.00  0.00    +0.028 C 
ATOM      6  N   LIG    1        1.979  -1.363   5.026  0.00  0.00    -0.280 N 
ATOM      7  C   LIG    1        1.349  -0.959   6.254  0.00  0.00    +0.263 C 
ATOM      8  O   LIG    1        1.893  -1.365   7.298  0.00  0.00    -0.267 OA
ATOM      9  C   LIG    1        2.804  -3.678   5.718  0.00  0.00    +0.064 C 
ATOM     10  C   LIG    1        1.921  -0.734   3.767  0.00  0.00    +0.057 A 
ATOM     11  C   LIG    1        1.017   0.134   3.174  0.00  0.00    +0.030 A 
ATOM     12  C   LIG    1        1.249   0.686   1.938  0.00  0.00    +0.048 A 
ENDROOT
BRANCH   7  13
ATOM     13  C   LIG    1        0.207   0.002   6.430  0.00  0.00    +0.040 A 
ATOM     14  C   LIG    1       -0.846   0.082   5.517  0.00  0.00    +0.015 A 
ATOM     15  C   LIG    1       -1.741   1.161   5.531  0.00  0.00    +0.021 A 
ATOM     16  C   LIG    1       -1.742   2.032   6.609  0.00  0.00    +0.041 A 
ATOM     17 CL   LIG    1       -2.891   3.308   6.675  0.00  0.00    -0.084 Cl
ATOM     18  C   LIG    1       -0.842   1.833   7.654  0.00  0.00    +0.021 A 
ATOM     19  C   LIG    1        0.139   0.832   7.557  0.00  0.00    +0.015 A 
ENDBRANCH   7  13
BRANCH   1  21
ATOM     20  C   LIG    1        1.689   1.930  -0.407  0.00  0.00    +0.277 C 
ATOM     21  O   LIG    1        2.723   1.063   0.080  0.00  0.00    -0.495 OA
ENDBRANCH   1  21
BRANCH   4  22
ATOM     22  C   LIG    1        4.719  -3.123   3.191  0.00  0.00    +0.158 C 
BRANCH  22  23
ATOM     23  C   LIG    1        4.448  -3.876   1.894  0.00  0.00    +0.309 C 
ATOM     24  O   LIG    1        5.258  -4.623   1.407  0.00  0.00    -0.251 OA
BRANCH  23  25
ATOM     25  O   LIG    1        3.242  -3.669   1.298  0.00  0.00    -0.480 OA
ATOM     26  H   LIG    1        2.650  -3.053   1.751  0.00  0.00    +0.295 HD
ENDBRANCH  23  25
ENDBRANCH  22  23
ENDBRANCH   4  22
TORSDOF 5
