REMARK  Name = *****
REMARK                            x       y       z     vdW  Elec       q    Type
REMARK                         _______ _______ _______ _____ _____    ______ ____
ROOT
ATOM      1  C   LIG    1        6.394  -2.306  -0.496  0.00  0.00    +0.206 C 
ENDROOT
BRANCH   1   2
ATOM      2  N   LIG    1        5.055  -2.666  -0.961  0.00  0.00    -0.274 N 
ATOM      3  H   LIG    1        5.056  -3.525  -1.493  0.00  0.00    +0.258 HD
BRANCH   2   4
ATOM      4  C   LIG    1        4.093  -1.730  -1.244  0.00  0.00    +0.397 C 
ATOM      5  N   LIG    1        4.096  -0.588  -0.621  0.00  0.00    +0.010 NA
BRANCH   4   7
ATOM      6  C   LIG    1        1.882  -1.891  -2.431  0.00  0.00    +0.239 C 
ATOM      7  N   LIG    1        3.271  -2.230  -2.219  0.00  0.00    -0.278 N 
ATOM      8  H   LIG    1        3.450  -3.193  -2.466  0.00  0.00    +0.258 HD
ENDBRANCH   4   7
BRANCH   5   9
ATOM      9  C   LIG    1        3.188   0.351  -0.870  0.00  0.00    +0.295 C 
ATOM     10  N   LIG    1        2.395   1.187  -1.051  0.00  0.00    -0.150 NA
ENDBRANCH   5   9
ENDBRANCH   2   4
ENDBRANCH   1   2
BRANCH   1  11
ATOM     11  C   LIG    1        7.365  -2.143  -1.673  0.00  0.00    +0.106 C 
BRANCH  11  12
ATOM     12  S   LIG    1        7.642  -3.662  -2.677  0.00  0.00    -0.151 S 
BRANCH  12  13
ATOM     13  C   LIG    1        8.341  -4.797  -1.429  0.00  0.00    +0.126 C 
BRANCH  13  14
ATOM     14  C   LIG    1        9.599  -4.303  -0.797  0.00  0.00    +0.071 A 
ATOM     15  C   LIG    1       10.923  -4.548  -1.126  0.00  0.00    +0.036 A 
ATOM     16  C   LIG    1       11.570  -5.341  -2.196  0.00  0.00    +0.065 C 
ATOM     17  N   LIG    1       11.653  -3.863  -0.187  0.00  0.00    -0.348 N 
ATOM     18  H   LIG    1       12.662  -3.818  -0.126  0.00  0.00    +0.167 HD
ATOM     19  C   LIG    1       10.777  -3.245   0.655  0.00  0.00    +0.197 A 
ATOM     20  N   LIG    1        9.533  -3.501   0.326  0.00  0.00    -0.240 NA
ENDBRANCH  13  14
ENDBRANCH  12  13
ENDBRANCH  11  12
ENDBRANCH   1  11
TORSDOF 8
