REMARK  Name = *****
REMARK                            x       y       z     vdW  Elec       q    Type
REMARK                         _______ _______ _______ _____ _____    ______ ____
ROOT
ATOM      1  C   LIG    1        3.028   2.731  -3.015  0.00  0.00    +0.341 C 
ATOM      2  O   LIG    1        1.950   3.166  -2.631  0.00  0.00    -0.247 OA
ENDROOT
BRANCH   1   3
ATOM      3  O   LIG    1        3.466   1.444  -2.882  0.00  0.00    -0.459 OA
BRANCH   3  11
ATOM      4  C   LIG    1        0.849   0.006   0.549  0.00  0.00    +0.007 C 
ATOM      5  C   LIG    1        2.323  -0.292   0.283  0.00  0.00    -0.010 C 
ATOM      6  C   LIG    1        2.596  -1.720  -0.215  0.00  0.00    +0.010 C 
ATOM      7  C   LIG    1        2.348  -1.989  -1.718  0.00  0.00    -0.031 C 
ATOM      8  C   LIG    1        3.020  -3.332  -2.081  0.00  0.00    +0.011 C 
ATOM      9  C   LIG    1        0.848  -2.136  -2.030  0.00  0.00    +0.011 C 
ATOM     10  C   LIG    1        2.979  -0.874  -2.578  0.00  0.00    +0.051 C 
ATOM     11  C   LIG    1        2.629   0.547  -2.122  0.00  0.00    +0.177 C 
ATOM     12  C   LIG    1        2.956   0.747  -0.641  0.00  0.00    +0.048 C 
ENDBRANCH   3  11
ENDBRANCH   1   3
BRANCH   1  13
ATOM     13  C   LIG    1        4.091   3.582  -3.732  0.00  0.00    +0.253 C 
BRANCH  13  14
ATOM     14  C   LIG    1        5.087   4.179  -2.753  0.00  0.00    -0.008 A 
ATOM     15  C   LIG    1        4.855   5.418  -2.133  0.00  0.00    +0.007 A 
ATOM     16  C   LIG    1        5.784   5.957  -1.240  0.00  0.00    +0.000 A 
ATOM     17  C   LIG    1        6.949   5.257  -0.940  0.00  0.00    +0.000 A 
ATOM     18  C   LIG    1        7.184   4.016  -1.528  0.00  0.00    +0.000 A 
ATOM     19  C   LIG    1        6.260   3.479  -2.428  0.00  0.00    +0.007 A 
ENDBRANCH  13  14
BRANCH  13  20
ATOM     20  O   LIG    1        3.493   4.623  -4.506  0.00  0.00    -0.376 OA
ATOM     21  H   LIG    1        2.716   4.925  -3.999  0.00  0.00    +0.211 HD
ENDBRANCH  13  20
ENDBRANCH   1  13
TORSDOF 5
