REMARK  Name = *****
REMARK                            x       y       z     vdW  Elec       q    Type
REMARK                         _______ _______ _______ _____ _____    ______ ____
ROOT
ATOM      1  C   LIG    1        5.672   4.081  -1.999  0.00  0.00    +0.062 A 
ATOM      2  C   LIG    1        6.584   4.957  -1.358  0.00  0.00    +0.131 A 
ATOM      3  C   LIG    1        6.439   6.350  -1.554  0.00  0.00    +0.048 A 
ATOM      4  C   LIG    1        5.391   6.883  -2.294  0.00  0.00    +0.032 A 
ATOM      5  C   LIG    1        4.494   6.031  -2.909  0.00  0.00    +0.106 A 
ATOM      6  C   LIG    1        4.645   4.644  -2.799  0.00  0.00    +0.043 A 
ENDROOT
BRANCH   1  13
ATOM      7  C   LIG    1        3.848  -0.357  -2.946  0.00  0.00    +0.132 A 
ATOM      8  N   LIG    1        4.709   0.565  -2.382  0.00  0.00    -0.210 N 
ATOM      9  C   LIG    1        5.610  -0.131  -1.630  0.00  0.00    +0.152 A 
ATOM     10  C   LIG    1        6.622   0.569  -0.917  0.00  0.00    +0.278 C 
ATOM     11  N   LIG    1        6.584   1.936  -1.123  0.00  0.00    -0.304 N 
ATOM     12  H   LIG    1        7.291   2.475  -0.638  0.00  0.00    +0.171 HD
ATOM     13  C   LIG    1        5.631   2.568  -1.896  0.00  0.00    +0.165 C 
ATOM     14  O   LIG    1        7.454   0.052  -0.182  0.00  0.00    -0.266 OA
ATOM     15  C   LIG    1        5.281  -1.462  -1.777  0.00  0.00    +0.071 A 
ATOM     16  C   LIG    1        5.899  -2.681  -1.211  0.00  0.00    +0.068 C 
ATOM     17  N   LIG    1        4.692   1.915  -2.524  0.00  0.00    -0.146 NA
ATOM     18  N   LIG    1        4.202  -1.585  -2.614  0.00  0.00    -0.235 NA
BRANCH   7  19
ATOM     19  C   LIG    1        2.682   0.019  -3.804  0.00  0.00    +0.076 C 
BRANCH  19  21
ATOM     20  C   LIG    1        1.238  -2.014  -3.188  0.00  0.00    +0.004 C 
ATOM     21  C   LIG    1        1.875  -1.190  -4.303  0.00  0.00    +0.004 C 
ENDBRANCH  19  21
ENDBRANCH   7  19
ENDBRANCH   1  13
BRANCH   5  22
ATOM     22  S   LIG    1        3.140   6.747  -3.819  0.00  0.00    +0.061 S 
ATOM     23  O   LIG    1        2.286   5.657  -4.240  0.00  0.00    -0.153 OA
ATOM     24  O   LIG    1        3.695   7.670  -4.758  0.00  0.00    -0.153 OA
BRANCH  22  25
ATOM     25  N   LIG    1        2.300   7.607  -2.608  0.00  0.00    -0.174 NA
ATOM     26  C   LIG    1        1.230   8.517  -3.148  0.00  0.00    +0.124 C 
ATOM     27  C   LIG    1       -0.132   7.811  -3.304  0.00  0.00    +0.101 C 
ATOM     28  N   LIG    1       -0.622   7.125  -2.088  0.00  0.00    -0.300 NA
ATOM     29  C   LIG    1        0.435   6.194  -1.631  0.00  0.00    +0.101 C 
ATOM     30  C   LIG    1        1.809   6.859  -1.408  0.00  0.00    +0.124 C 
BRANCH  28  31
ATOM     31  C   LIG    1       -1.032   8.027  -1.001  0.00  0.00    +0.081 C 
ATOM     32  C   LIG    1       -2.141   9.001  -1.380  0.00  0.00    +0.020 C 
ENDBRANCH  28  31
ENDBRANCH  22  25
ENDBRANCH   5  22
BRANCH   2  33
ATOM     33  O   LIG    1        7.562   4.439  -0.533  0.00  0.00    -0.491 OA
BRANCH  33  34
ATOM     34  C   LIG    1        8.488   5.384   0.041  0.00  0.00    +0.226 C 
ATOM     35  C   LIG    1        9.153   4.796   1.268  0.00  0.00    +0.048 C 
ENDBRANCH  33  34
ENDBRANCH   2  33
TORSDOF 8
