REMARK  Name = *****
REMARK                            x       y       z     vdW  Elec       q    Type
REMARK                         _______ _______ _______ _____ _____    ______ ____
ROOT
ATOM      1  C   LIG    1        0.395  -1.885   1.656  0.00  0.00    +0.029 C 
ATOM      2  C   LIG    1        1.193  -0.901   0.809  0.00  0.00    +0.137 C 
ENDROOT
BRANCH   2   3
ATOM      3  C   LIG    1        1.038   0.584   1.170  0.00  0.00    +0.227 C 
ATOM      4  N   LIG    1       -0.191   0.981   1.645  0.00  0.00    -0.304 N 
ATOM      5  H   LIG    1       -0.906   0.281   1.814  0.00  0.00    +0.149 HD
ATOM      6  O   LIG    1        1.958   1.382   0.994  0.00  0.00    -0.275 OA
BRANCH   4   7
ATOM      7  C   LIG    1       -0.487   2.365   1.997  0.00  0.00    +0.224 C 
BRANCH   7   8
ATOM      8  C   LIG    1       -1.633   3.006   1.217  0.00  0.00    +0.322 C 
ATOM      9  O   LIG    1       -2.006   4.157   1.408  0.00  0.00    -0.249 OA
BRANCH   8  10
ATOM     10  O   LIG    1       -2.240   2.201   0.318  0.00  0.00    -0.479 OA
ATOM     11  H   LIG    1       -1.827   1.312   0.240  0.00  0.00    +0.295 HD
ENDBRANCH   8  10
ENDBRANCH   7   8
ENDBRANCH   4   7
ENDBRANCH   2   3
BRANCH   2  12
ATOM     12  S   LIG    1        0.925  -1.159  -0.976  0.00  0.00    -0.070 S 
BRANCH  12  13
ATOM     13  C   LIG    1       -0.804  -0.838  -1.133  0.00  0.00    +0.227 C 
ATOM     14  O   LIG    1       -1.461  -0.420  -0.195  0.00  0.00    -0.279 OA
BRANCH  13  15
ATOM     15  C   LIG    1       -1.321  -1.056  -2.471  0.00  0.00    +0.066 A 
ATOM     16  S   LIG    1       -2.752  -0.219  -2.923  0.00  0.00    -0.093 S 
ATOM     17  C   LIG    1       -2.714  -0.863  -4.503  0.00  0.00    +0.046 A 
ATOM     18  C   LIG    1       -1.668  -1.739  -4.678  0.00  0.00    +0.008 A 
ATOM     19  C   LIG    1       -0.866  -1.855  -3.505  0.00  0.00    +0.020 A 
ENDBRANCH  13  15
ENDBRANCH  12  13
ENDBRANCH   2  12
TORSDOF 7
