REMARK  Name = *****
REMARK                            x       y       z     vdW  Elec       q    Type
REMARK                         _______ _______ _______ _____ _____    ______ ____
ROOT
ATOM      1  O   LIG    1        1.140   0.214   0.294  0.00  0.00    -0.251 OA
ATOM      2  C   LIG    1        2.303   0.093  -0.004  0.00  0.00    +0.310 C 
ATOM      3  O   LIG    1        3.190   1.054  -0.377  0.00  0.00    -0.464 OA
ATOM      4  C   LIG    1        4.204   0.067  -0.707  0.00  0.00    +0.243 C 
ATOM      5  C   LIG    1        3.338  -1.042  -0.117  0.00  0.00    +0.161 C 
ENDROOT
TORSDOF 0
