REMARK  Name = *****
REMARK                            x       y       z     vdW  Elec       q    Type
REMARK                         _______ _______ _______ _____ _____    ______ ____
ROOT
ATOM      1  C   LIG    1        7.350  -1.882   0.154  0.00  0.00    +0.164 C 
ENDROOT
BRANCH   1   2
ATOM      2  C   LIG    1        7.474  -0.522   0.901  0.00  0.00    +0.160 C 
BRANCH   2   7
ATOM      3  C   LIG    1        9.140   2.366  -1.560  0.00  0.00    +0.123 C 
ATOM      4  N   LIG    1        9.928   1.670  -0.849  0.00  0.00    -0.178 NA
ATOM      5  C   LIG    1        9.417   0.819   0.086  0.00  0.00    +0.350 C 
ATOM      6  O   LIG    1       10.190   0.243   0.875  0.00  0.00    -0.244 OA
ATOM      7  N   LIG    1        8.036   0.560   0.079  0.00  0.00    -0.296 N 
ATOM      8  C   LIG    1        7.174   1.357  -0.668  0.00  0.00    +0.094 C 
ATOM      9  C   LIG    1        7.648   2.317  -1.445  0.00  0.00    +0.061 C 
BRANCH   3  10
ATOM     10  N   LIG    1        9.682   3.229  -2.490  0.00  0.00    -0.343 N 
ATOM     11  H   LIG    1       10.662   3.003  -2.636  0.00  0.00    +0.144 HD
ATOM     12  H   LIG    1        9.177   3.345  -3.362  0.00  0.00    +0.144 HD
ENDBRANCH   3  10
ENDBRANCH   2   7
ENDBRANCH   1   2
BRANCH   1  13
ATOM     13  O   LIG    1        6.865  -2.879   1.088  0.00  0.00    -0.360 OA
BRANCH  13  14
ATOM     14  C   LIG    1        6.476  -4.177   0.563  0.00  0.00    +0.286 C 
BRANCH  14  15
ATOM     15  P   LIG    1        7.872  -5.172   0.032  0.00  0.00    +0.353 P 
ATOM     16  O   LIG    1        8.239  -5.137  -1.416  0.00  0.00    -0.256 OA
BRANCH  15  17
ATOM     17  O   LIG    1        7.704  -6.699   0.470  0.00  0.00    -0.323 OA
ATOM     18  H   LIG    1        8.439  -7.204   0.067  0.00  0.00    +0.220 HD
ENDBRANCH  15  17
BRANCH  15  19
ATOM     19  O   LIG    1        9.098  -4.783   0.996  0.00  0.00    -0.323 OA
ATOM     20  H   LIG    1        9.975  -4.848   0.562  0.00  0.00    +0.220 HD
ENDBRANCH  15  19
ENDBRANCH  14  15
ENDBRANCH  13  14
ENDBRANCH   1  13
BRANCH   1  21
ATOM     21  C   LIG    1        8.730  -2.228  -0.413  0.00  0.00    +0.189 C 
BRANCH  21  22
ATOM     22  O   LIG    1        9.692  -2.454   0.610  0.00  0.00    -0.392 OA
ATOM     23  H   LIG    1        9.299  -3.082   1.261  0.00  0.00    +0.209 HD
ENDBRANCH  21  22
ENDBRANCH   1  21
TORSDOF 10
