REMARK  Name = *****
REMARK                            x       y       z     vdW  Elec       q    Type
REMARK                         _______ _______ _______ _____ _____    ______ ____
ROOT
ATOM      1  C   LIG    1        2.492  -0.073  -1.184  0.00  0.00    +0.175 C 
ENDROOT
BRANCH   1   3
ATOM      2  O   LIG    1        0.549   1.261  -0.583  0.00  0.00    -0.250 OA
ATOM      3  C   LIG    1        1.003   0.260  -1.121  0.00  0.00    +0.319 C 
BRANCH   3   4
ATOM      4  O   LIG    1        0.205  -0.588  -1.815  0.00  0.00    -0.480 OA
ATOM      5  H   LIG    1        0.701  -1.357  -2.170  0.00  0.00    +0.295 HD
ENDBRANCH   3   4
ENDBRANCH   1   3
BRANCH   1   6
ATOM      6  S   LIG    1        2.731  -1.893  -1.435  0.00  0.00    -0.162 S 
ATOM      7  H   LIG    1        2.164  -2.267  -0.265  0.00  0.00    +0.102 HD
ENDBRANCH   1   6
BRANCH   1   8
ATOM      8  C   LIG    1        3.309   0.452   0.010  0.00  0.00    +0.175 C 
BRANCH   8   9
ATOM      9  C   LIG    1        2.887  -0.144   1.347  0.00  0.00    +0.319 C 
ATOM     10  O   LIG    1        2.045  -1.016   1.478  0.00  0.00    -0.250 OA
BRANCH   9  11
ATOM     11  O   LIG    1        3.617   0.313   2.396  0.00  0.00    -0.480 OA
ATOM     12  H   LIG    1        4.221   1.046   2.152  0.00  0.00    +0.295 HD
ENDBRANCH   9  11
ENDBRANCH   8   9
BRANCH   8  13
ATOM     13  S   LIG    1        3.337   2.287   0.153  0.00  0.00    -0.162 S 
ATOM     14  H   LIG    1        2.003   2.429   0.331  0.00  0.00    +0.102 HD
ENDBRANCH   8  13
ENDBRANCH   1   8
TORSDOF 7
