REMARK  Name = *****
REMARK                            x       y       z     vdW  Elec       q    Type
REMARK                         _______ _______ _______ _____ _____    ______ ____
ROOT
ATOM      1  C   LIG    1        6.590  -0.028  -0.515  0.00  0.00    +0.015 C 
ATOM      2  C   LIG    1        7.354  -1.124  -0.511  0.00  0.00    -0.000 C 
ATOM      3  C   LIG    1        7.091  -2.574  -0.150  0.00  0.00    +0.029 C 
ATOM      4  C   LIG    1        8.423  -2.989   0.542  0.00  0.00    -0.016 C 
ATOM      5  C   LIG    1        9.291  -2.575  -0.685  0.00  0.00    +0.036 C 
ATOM      6  C   LIG    1        8.641  -3.347  -1.862  0.00  0.00    +0.015 C 
ATOM      7  C   LIG    1       10.789  -2.722  -0.572  0.00  0.00    +0.020 C 
ATOM      8  C   LIG    1        8.726  -2.211   1.842  0.00  0.00    +0.012 C 
ATOM      9  C   LIG    1        8.491  -4.486   0.904  0.00  0.00    +0.012 C 
ATOM     10  C   LIG    1        7.136  -3.358  -1.485  0.00  0.00    +0.010 C 
ATOM     11  C   LIG    1        8.809  -1.139  -0.883  0.00  0.00    +0.166 C 
ATOM     12  O   LIG    1        9.444  -0.189  -1.302  0.00  0.00    -0.292 OA
ENDROOT
BRANCH   1  17
ATOM     13  C   LIG    1        0.992  -0.027   0.900  0.00  0.00    +0.044 C 
ATOM     14  C   LIG    1        2.450  -0.001   0.545  0.00  0.00    -0.050 A 
ATOM     15  C   LIG    1        3.421  -0.280   1.512  0.00  0.00    +0.004 A 
ATOM     16  C   LIG    1        4.777  -0.286   1.173  0.00  0.00    +0.008 A 
ATOM     17  C   LIG    1        5.177  -0.030  -0.142  0.00  0.00    -0.025 A 
ATOM     18  C   LIG    1        4.208   0.243  -1.111  0.00  0.00    +0.008 A 
ATOM     19  C   LIG    1        2.853   0.249  -0.772  0.00  0.00    +0.004 A 
ENDBRANCH   1  17
TORSDOF 1
