REMARK  Name = *****
REMARK                            x       y       z     vdW  Elec       q    Type
REMARK                         _______ _______ _______ _____ _____    ______ ____
ROOT
ATOM      1  CA  SER A  1        2.686  -0.032   0.149  0.00  0.00    +0.186 C 
ENDROOT
BRANCH   1   2
ATOM      2  N   SER A  1        1.232  -0.123  -0.215  0.00  0.00    -0.317 NA
ATOM      3  H1  SER A  1        0.739   0.295   0.594  0.00  0.00    +0.119 HD
ATOM      4  H2  SER A  1        1.063   0.570  -0.950  0.00  0.00    +0.119 HD
ENDBRANCH   1   2
BRANCH   1   5
ATOM      5  C   SER A  1        3.070  -1.282   0.950  0.00  0.00    +0.324 C 
ATOM      6  O   SER A  1        4.160  -1.476   1.473  0.00  0.00    -0.249 OA
BRANCH   5   7
ATOM      7  OXT SER A  1        2.055  -2.184   0.982  0.00  0.00    -0.479 OA
ATOM      8  HXT SER A  1        1.320  -1.765   0.466  0.00  0.00    +0.295 HD
ENDBRANCH   5   7
ENDBRANCH   1   5
BRANCH   1   9
ATOM      9  CB  SER A  1        2.967   1.224   0.983  0.00  0.00    +0.185 C 
BRANCH   9  10
ATOM     10  OG  SER A  1        1.890   1.432   1.906  0.00  0.00    -0.393 OA
ATOM     11  H   SER A  1        2.206   2.073   2.569  0.00  0.00    +0.209 HD
ENDBRANCH   9  10
ENDBRANCH   1   9
TORSDOF 5
