REMARK  Name = *****
REMARK                            x       y       z     vdW  Elec       q    Type
REMARK                         _______ _______ _______ _____ _____    ______ ____
ROOT
ATOM      1  C   LIG    1        4.017   1.294   0.586  0.00  0.00    +0.065 C 
ENDROOT
BRANCH   1   2
ATOM      2  C   LIG    1        2.500   1.519   0.709  0.00  0.00    -0.040 A 
ATOM      3  C   LIG    1        1.765   0.811   1.674  0.00  0.00    +0.007 A 
ATOM      4  C   LIG    1        0.397   1.038   1.849  0.00  0.00    +0.045 A 
ATOM      5  C   LIG    1       -0.247   1.986   1.060  0.00  0.00    +0.117 A 
ATOM      6  C   LIG    1        0.450   2.686   0.088  0.00  0.00    +0.045 A 
ATOM      7  C   LIG    1        1.815   2.444  -0.098  0.00  0.00    +0.007 A 
BRANCH   5   8
ATOM      8  O   LIG    1       -1.575   2.200   1.280  0.00  0.00    -0.507 OA
ATOM      9  H   LIG    1       -1.884   2.881   0.659  0.00  0.00    +0.292 HD
ENDBRANCH   5   8
ENDBRANCH   1   2
BRANCH   1  10
ATOM     10  C   LIG    1        4.851   2.349   1.432  0.00  0.00    +0.074 C 
ATOM     11  C   LIG    1        6.378   2.074   1.444  0.00  0.00    +0.035 C 
ATOM     12  C   LIG    1        7.195   2.713   0.321  0.00  0.00    +0.003 C 
ATOM     13  C   LIG    1        6.864   4.183   0.105  0.00  0.00    +0.000 C 
ATOM     14  C   LIG    1        5.369   4.420  -0.044  0.00  0.00    +0.003 C 
ATOM     15  C   LIG    1        4.594   3.844   1.133  0.00  0.00    +0.035 C 
BRANCH  10  16
ATOM     16  O   LIG    1        4.460   2.148   2.818  0.00  0.00    -0.388 OA
ATOM     17  H   LIG    1        3.576   2.541   2.932  0.00  0.00    +0.210 HD
ENDBRANCH  10  16
ENDBRANCH   1  10
BRANCH   1  18
ATOM     18  C   LIG    1        4.501   1.110  -0.882  0.00  0.00    +0.094 C 
BRANCH  18  20
ATOM     19  C   LIG    1        4.369   0.157  -3.089  0.00  0.00    +0.104 C 
ATOM     20  N   LIG    1        3.774   0.154  -1.746  0.00  0.00    -0.308 NA
ATOM     21  C   LIG    1        3.783  -1.208  -1.211  0.00  0.00    +0.104 C 
ENDBRANCH  18  20
ENDBRANCH   1  18
TORSDOF 6
