REMARK  Name = *****
REMARK                            x       y       z     vdW  Elec       q    Type
REMARK                         _______ _______ _______ _____ _____    ______ ____
ROOT
ATOM      1  N   LIG    1       -7.213   5.300  -5.405  0.00  0.00    -0.311 NA
ATOM      2  H   LIG    1       -6.706   5.821  -6.133  0.00  0.00    +0.122 HD
ENDROOT
BRANCH   1   3
ATOM      3  C   LIG    1       -6.328   5.095  -4.246  0.00  0.00    +0.115 C 
BRANCH   3   4
ATOM      4  C   LIG    1       -5.076   4.237  -4.565  0.00  0.00    +0.169 C 
BRANCH   4   5
ATOM      5  C   LIG    1       -4.066   4.926  -5.523  0.00  0.00    +0.203 C 
ATOM      6  O   LIG    1       -4.690   5.375  -6.736  0.00  0.00    -0.486 OA
ATOM      7  C   LIG    1       -4.728   4.487  -7.778  0.00  0.00    +0.124 A 
ATOM      8  C   LIG    1       -3.959   3.321  -7.838  0.00  0.00    -0.003 A 
ATOM      9  C   LIG    1       -4.086   2.480  -8.956  0.00  0.00    +0.045 A 
ATOM     10  C   LIG    1       -4.952   2.829  -9.984  0.00  0.00    +0.124 A 
ATOM     11  C   LIG    1       -5.708   3.989  -9.931  0.00  0.00    +0.042 A 
ATOM     12  F   LIG    1       -5.058   2.022 -11.054  0.00  0.00    -0.205 F 
ATOM     13  C   LIG    1       -3.040   2.939  -6.716  0.00  0.00    +0.042 C 
ATOM     14  C   LIG    1       -5.596   4.825  -8.817  0.00  0.00    +0.049 A 
ATOM     15  C   LIG    1       -2.787   4.131  -5.808  0.00  0.00    +0.052 C 
ENDBRANCH   4   5
BRANCH   4  16
ATOM     16  O   LIG    1       -5.515   2.970  -5.063  0.00  0.00    -0.387 OA
ATOM     17  H   LIG    1       -6.124   3.187  -5.798  0.00  0.00    +0.210 HD
ENDBRANCH   4  16
ENDBRANCH   3   4
ENDBRANCH   1   3
BRANCH   1  18
ATOM     18  C   LIG    1       -8.412   6.071  -5.036  0.00  0.00    +0.115 C 
BRANCH  18  19
ATOM     19  C   LIG    1       -9.330   6.335  -6.257  0.00  0.00    +0.169 C 
BRANCH  19  20
ATOM     20  C   LIG    1      -10.625   7.077  -5.835  0.00  0.00    +0.203 C 
ATOM     21  O   LIG    1      -10.219   8.324  -5.236  0.00  0.00    -0.486 OA
ATOM     22  C   LIG    1      -11.207   9.253  -5.048  0.00  0.00    +0.124 A 
ATOM     23  C   LIG    1      -12.461   9.190  -5.667  0.00  0.00    -0.003 A 
ATOM     24  C   LIG    1      -13.389  10.214  -5.429  0.00  0.00    +0.045 A 
ATOM     25  C   LIG    1      -13.048  11.280  -4.605  0.00  0.00    +0.124 A 
ATOM     26  C   LIG    1      -11.801  11.350  -3.998  0.00  0.00    +0.042 A 
ATOM     27  F   LIG    1      -13.937  12.263  -4.396  0.00  0.00    -0.205 F 
ATOM     28  C   LIG    1      -12.818   8.031  -6.550  0.00  0.00    +0.042 C 
ATOM     29  C   LIG    1      -10.874  10.330  -4.223  0.00  0.00    +0.049 A 
ATOM     30  C   LIG    1      -11.558   7.315  -7.027  0.00  0.00    +0.052 C 
ENDBRANCH  19  20
BRANCH  19  31
ATOM     31  O   LIG    1       -8.611   7.117  -7.228  0.00  0.00    -0.387 OA
ATOM     32  H   LIG    1       -8.621   8.036  -6.898  0.00  0.00    +0.210 HD
ENDBRANCH  19  31
ENDBRANCH  18  19
ENDBRANCH   1  18
TORSDOF 8
