REMARK  Name = *****
REMARK                            x       y       z     vdW  Elec       q    Type
REMARK                         _______ _______ _______ _____ _____    ______ ____
ROOT
ATOM      1  C   LIG    1       18.915  -7.066 -10.745  0.00  0.00    +0.030 A 
ATOM      2  C   LIG    1       19.799  -6.175 -10.111  0.00  0.00    +0.027 A 
ATOM      3  C   LIG    1       20.505  -6.527  -8.943  0.00  0.00    +0.047 A 
ATOM      4  C   LIG    1       20.289  -7.762  -8.334  0.00  0.00    +0.121 A 
ATOM      5  C   LIG    1       19.450  -8.673  -8.973  0.00  0.00    +0.047 A 
ATOM      6  C   LIG    1       18.795  -8.338 -10.171  0.00  0.00    +0.027 A 
ENDROOT
BRANCH   1  10
ATOM      7  N   LIG    1       17.504  -5.558 -14.482  0.00  0.00    -0.327 N 
ATOM      8  C   LIG    1       17.624  -7.030 -14.322  0.00  0.00    +0.124 C 
ATOM      9  C   LIG    1       18.549  -7.392 -13.127  0.00  0.00    +0.124 C 
ATOM     10  N   LIG    1       18.113  -6.736 -11.861  0.00  0.00    -0.327 N 
ATOM     11  C   LIG    1       17.778  -5.296 -11.997  0.00  0.00    +0.124 C 
ATOM     12  C   LIG    1       16.928  -4.970 -13.248  0.00  0.00    +0.124 C 
BRANCH   7  16
ATOM     13  C   LIG    1       20.677  -3.612 -16.582  0.00  0.00    +0.052 A 
ATOM     14  C   LIG    1       20.080  -4.768 -17.081  0.00  0.00    +0.028 A 
ATOM     15  C   LIG    1       19.041  -5.401 -16.373  0.00  0.00    +0.025 A 
ATOM     16  C   LIG    1       18.549  -4.912 -15.151  0.00  0.00    +0.030 A 
ATOM     17  C   LIG    1       19.132  -3.728 -14.694  0.00  0.00    +0.025 A 
ATOM     18  C   LIG    1       20.183  -3.102 -15.378  0.00  0.00    +0.028 A 
BRANCH  13  22
ATOM     19  N   LIG    1       23.283  -1.495 -17.847  0.00  0.00    -0.210 N 
ATOM     20  C   LIG    1       22.572  -2.004 -16.762  0.00  0.00    +0.351 C 
ATOM     21  O   LIG    1       22.714  -1.665 -15.578  0.00  0.00    -0.244 OA
ATOM     22  N   LIG    1       21.711  -2.946 -17.271  0.00  0.00    -0.250 N 
ATOM     23  C   LIG    1       22.026  -3.016 -18.584  0.00  0.00    +0.230 C 
ATOM     24  N   LIG    1       22.942  -2.195 -18.987  0.00  0.00    -0.157 NA
BRANCH  19  25
ATOM     25  C   LIG    1       24.254  -0.407 -17.873  0.00  0.00    +0.109 C 
ATOM     26  C   LIG    1       25.692  -0.923 -17.786  0.00  0.00    +0.033 C 
BRANCH  25  28
ATOM     27  C   LIG    1       22.660   1.334 -16.827  0.00  0.00    +0.006 C 
ATOM     28  C   LIG    1       24.027   0.662 -16.782  0.00  0.00    +0.023 C 
ENDBRANCH  25  28
ENDBRANCH  19  25
ENDBRANCH  13  22
ENDBRANCH   7  16
ENDBRANCH   1  10
BRANCH   4  29
ATOM     29  O   LIG    1       20.912  -7.992  -7.128  0.00  0.00    -0.489 OA
BRANCH  29  30
ATOM     30  C   LIG    1       20.221  -8.911  -6.255  0.00  0.00    +0.263 C 
BRANCH  30  31
ATOM     31  C   LIG    1       20.571  -8.657  -4.777  0.00  0.00    +0.185 C 
ATOM     32  O   LIG    1       19.798  -9.462  -3.864  0.00  0.00    -0.334 OA
ATOM     33  C   LIG    1       19.455  -8.630  -2.730  0.00  0.00    +0.219 C 
ATOM     34  O   LIG    1       19.652  -7.255  -3.138  0.00  0.00    -0.341 OA
ATOM     35  C   LIG    1       20.305  -7.225  -4.396  0.00  0.00    +0.198 C 
BRANCH  33  36
ATOM     36  C   LIG    1       20.385  -8.901  -1.517  0.00  0.00    +0.031 A 
ATOM     37  C   LIG    1       20.141  -9.806  -0.459  0.00  0.00    +0.051 A 
ATOM     38 CL   LIG    1       18.877 -10.980  -0.435  0.00  0.00    -0.083 Cl
ATOM     39  C   LIG    1       20.964  -9.839   0.684  0.00  0.00    +0.040 A 
ATOM     40  C   LIG    1       22.085  -9.028   0.773  0.00  0.00    +0.042 A 
ATOM     41 CL   LIG    1       23.081  -9.084   2.173  0.00  0.00    -0.084 Cl
ATOM     42  C   LIG    1       22.404  -8.184  -0.275  0.00  0.00    +0.020 A 
ATOM     43  C   LIG    1       21.567  -8.123  -1.396  0.00  0.00    +0.012 A 
ENDBRANCH  33  36
BRANCH  33  44
ATOM     44  C   LIG    1       17.932  -8.759  -2.458  0.00  0.00    +0.215 C 
BRANCH  44  45
ATOM     45  N   LIG    1       17.422  -7.921  -1.389  0.00  0.00    -0.246 N 
ATOM     46  N   LIG    1       16.360  -8.317  -0.655  0.00  0.00    -0.158 NA
ATOM     47  C   LIG    1       16.202  -7.278   0.170  0.00  0.00    +0.244 A 
ATOM     48  N   LIG    1       17.080  -6.253  -0.009  0.00  0.00    -0.223 NA
ATOM     49  C   LIG    1       17.823  -6.677  -1.002  0.00  0.00    +0.219 A 
ENDBRANCH  44  45
ENDBRANCH  33  44
ENDBRANCH  30  31
ENDBRANCH  29  30
ENDBRANCH   4  29
TORSDOF 11
