REMARK  Name = *****
REMARK                            x       y       z     vdW  Elec       q    Type
REMARK                         _______ _______ _______ _____ _____    ______ ____
ROOT
ATOM      1  C   LIG    1        0.114   0.610  -0.520  0.00  0.00    +0.039 C 
ENDROOT
BRANCH   1   2
ATOM      2  C   LIG    1       -1.260   0.806  -1.119  0.00  0.00    -0.047 A 
ATOM      3  C   LIG    1       -1.738   2.079  -1.450  0.00  0.00    +0.004 A 
ATOM      4  C   LIG    1       -3.022   2.239  -1.992  0.00  0.00    +0.004 A 
ATOM      5  C   LIG    1       -3.860   1.141  -2.248  0.00  0.00    -0.042 A 
ATOM      6  C   LIG    1       -3.368  -0.129  -1.893  0.00  0.00    +0.004 A 
ATOM      7  C   LIG    1       -2.091  -0.290  -1.348  0.00  0.00    +0.004 A 
BRANCH   5   8
ATOM      8  C   LIG    1       -5.268   1.304  -2.853  0.00  0.00    -0.013 C 
ATOM      9  C   LIG    1       -5.674   0.082  -3.711  0.00  0.00    +0.015 C 
ATOM     10  C   LIG    1       -5.376   2.538  -3.778  0.00  0.00    +0.015 C 
ATOM     11  C   LIG    1       -6.290   1.463  -1.710  0.00  0.00    +0.015 C 
ENDBRANCH   5   8
ENDBRANCH   1   2
BRANCH   1  13
ATOM     12  C   LIG    1        2.600   0.340  -0.818  0.00  0.00    +0.009 C 
ATOM     13  C   LIG    1        1.250   0.398  -1.549  0.00  0.00    +0.004 C 
BRANCH  13  14
ATOM     14  C   LIG    1        1.024  -0.881  -2.395  0.00  0.00    +0.088 C 
BRANCH  14  15
ATOM     15  N   LIG    1        2.077  -1.206  -3.374  0.00  0.00    -0.302 NA
ATOM     16  C   LIG    1        1.812  -2.499  -4.031  0.00  0.00    +0.084 C 
ATOM     17  C   LIG    1        0.656  -2.471  -5.039  0.00  0.00    +0.015 C 
ATOM     18  C   LIG    1        0.834  -1.360  -6.068  0.00  0.00    +0.002 C 
ATOM     19  C   LIG    1        1.151  -0.026  -5.400  0.00  0.00    +0.015 C 
ATOM     20  C   LIG    1        2.292  -0.164  -4.390  0.00  0.00    +0.084 C 
ENDBRANCH  14  15
ENDBRANCH  13  14
ENDBRANCH   1  13
TORSDOF 5
