REMARK  Name = *****
REMARK                            x       y       z     vdW  Elec       q    Type
REMARK                         _______ _______ _______ _____ _____    ______ ____
ROOT
ATOM      1  C   LIG    1        4.027  -0.025  -3.710  0.00  0.00    +0.341 C 
ATOM      2  O   LIG    1        3.903   0.340  -2.544  0.00  0.00    -0.247 OA
ENDROOT
BRANCH   1   3
ATOM      3  O   LIG    1        3.862   0.763  -4.811  0.00  0.00    -0.459 OA
BRANCH   3  11
ATOM      4  C   LIG    1        6.575   2.216  -5.663  0.00  0.00    +0.007 C 
ATOM      5  C   LIG    1        5.592   3.341  -5.338  0.00  0.00    -0.010 C 
ATOM      6  C   LIG    1        4.818   3.858  -6.559  0.00  0.00    +0.010 C 
ATOM      7  C   LIG    1        3.587   3.033  -7.000  0.00  0.00    -0.031 C 
ATOM      8  C   LIG    1        2.751   3.909  -7.965  0.00  0.00    +0.011 C 
ATOM      9  C   LIG    1        3.990   1.778  -7.794  0.00  0.00    +0.011 C 
ATOM     10  C   LIG    1        2.707   2.673  -5.780  0.00  0.00    +0.051 C 
ATOM     11  C   LIG    1        3.455   2.120  -4.557  0.00  0.00    +0.177 C 
ATOM     12  C   LIG    1        4.651   2.999  -4.176  0.00  0.00    +0.048 C 
ENDBRANCH   3  11
ENDBRANCH   1   3
BRANCH   1  13
ATOM     13  C   LIG    1        4.363  -1.472  -4.098  0.00  0.00    +0.253 C 
BRANCH  13  14
ATOM     14  C   LIG    1        5.828  -1.689  -4.395  0.00  0.00    -0.008 A 
ATOM     15  C   LIG    1        6.238  -2.100  -5.672  0.00  0.00    +0.007 A 
ATOM     16  C   LIG    1        7.586  -2.343  -5.942  0.00  0.00    +0.000 A 
ATOM     17  C   LIG    1        8.541  -2.179  -4.940  0.00  0.00    +0.000 A 
ATOM     18  C   LIG    1        8.150  -1.768  -3.669  0.00  0.00    +0.000 A 
ATOM     19  C   LIG    1        6.803  -1.522  -3.397  0.00  0.00    +0.007 A 
ENDBRANCH  13  14
BRANCH  13  20
ATOM     20  O   LIG    1        3.984  -2.380  -3.060  0.00  0.00    -0.376 OA
ATOM     21  H   LIG    1        4.113  -1.900  -2.220  0.00  0.00    +0.211 HD
ENDBRANCH  13  20
ENDBRANCH   1  13
TORSDOF 5
