REMARK  Name = *****
REMARK                            x       y       z     vdW  Elec       q    Type
REMARK                         _______ _______ _______ _____ _____    ______ ____
ROOT
ATOM      1  C   LIG    1       -1.928  -2.823   4.218  0.00  0.00    +0.127 C 
ATOM      2  C   LIG    1       -2.584  -4.003   4.954  0.00  0.00    +0.067 C 
ATOM      3  C   LIG    1       -2.689  -5.295   4.144  0.00  0.00    +0.079 C 
ATOM      4  C   LIG    1       -3.087  -5.051   2.660  0.00  0.00    +0.054 C 
ATOM      5  C   LIG    1       -3.550  -6.425   1.951  0.00  0.00    +0.037 C 
ATOM      6  C   LIG    1       -3.655  -7.746   2.791  0.00  0.00    +0.028 C 
ATOM      7  C   LIG    1       -3.368  -7.678   4.293  0.00  0.00    +0.009 C 
ATOM      8  C   LIG    1       -2.989  -8.979   2.131  0.00  0.00    +0.075 C 
ATOM      9  C   LIG    1       -3.509  -9.247   0.686  0.00  0.00    +0.006 C 
ATOM     10  C   LIG    1       -4.833 -10.044   0.674  0.00  0.00    +0.014 C 
ATOM     11  C   LIG    1       -2.351 -10.131   0.121  0.00  0.00    +0.027 C 
ATOM     12  C   LIG    1       -1.087  -9.426   0.622  0.00  0.00    +0.011 C 
ATOM     13  C   LIG    1       -3.751  -7.918  -0.090  0.00  0.00    +0.041 C 
ATOM     14  C   LIG    1       -1.449  -8.892   2.012  0.00  0.00    +0.036 C 
ATOM     15  C   LIG    1       -3.086  -6.664   0.497  0.00  0.00    +0.119 C 
ATOM     16  C   LIG    1       -1.856  -4.300   2.027  0.00  0.00    +0.128 C 
ATOM     17  C   LIG    1       -3.582  -6.295   4.871  0.00  0.00    +0.036 C 
ATOM     18  C   LIG    1       -1.171  -3.244   2.949  0.00  0.00    +0.063 C 
ENDROOT
BRANCH  11  19
ATOM     19  C   LIG    1       -2.379 -10.459  -1.343  0.00  0.00    -0.022 C 
ATOM     20  C   LIG    1       -3.011 -11.711  -1.830  0.00  0.00    +0.264 C 
ATOM     21  O   LIG    1       -2.830 -11.678  -3.245  0.00  0.00    -0.457 OA
ATOM     22  C   LIG    1       -2.149 -10.552  -3.578  0.00  0.00    +0.332 C 
ATOM     23  O   LIG    1       -1.844 -10.206  -4.708  0.00  0.00    -0.246 OA
ATOM     24  C   LIG    1       -1.841  -9.797  -2.367  0.00  0.00    +0.094 C 
ENDBRANCH  11  19
BRANCH   3  25
ATOM     25  O   LIG    1       -1.349  -5.868   4.153  0.00  0.00    -0.388 OA
ATOM     26  H   LIG    1       -1.118  -6.072   5.079  0.00  0.00    +0.210 HD
ENDBRANCH   3  25
BRANCH   8  27
ATOM     27  O   LIG    1       -3.236 -10.142   2.942  0.00  0.00    -0.388 OA
ATOM     28  H   LIG    1       -4.165 -10.127   3.230  0.00  0.00    +0.210 HD
ENDBRANCH   8  27
BRANCH  15  29
ATOM     29  O   LIG    1       -3.485  -5.548  -0.301  0.00  0.00    -0.392 OA
ATOM     30  H   LIG    1       -3.003  -5.616  -1.145  0.00  0.00    +0.210 HD
ENDBRANCH  15  29
BRANCH  16  31
ATOM     31  O   LIG    1       -0.822  -5.231   1.675  0.00  0.00    -0.391 OA
ATOM     32  H   LIG    1       -0.608  -5.691   2.517  0.00  0.00    +0.210 HD
ENDBRANCH  16  31
BRANCH   1  33
ATOM     33  O   LIG    1       -1.021  -2.100   5.080  0.00  0.00    -0.345 OA
BRANCH  33  39
ATOM     34  C   LIG    1       -4.198  -1.508   7.879  0.00  0.00    +0.040 C 
ATOM     35  C   LIG    1       -3.398  -0.361   7.263  0.00  0.00    +0.149 C 
ATOM     36  C   LIG    1       -2.418   0.342   8.226  0.00  0.00    +0.174 C 
ATOM     37  C   LIG    1       -1.131  -0.463   8.464  0.00  0.00    +0.179 C 
ATOM     38  C   LIG    1       -0.530  -0.950   7.141  0.00  0.00    +0.201 C 
ATOM     39  C   LIG    1       -1.620  -1.646   6.308  0.00  0.00    +0.282 C 
ATOM     40  O   LIG    1       -2.715  -0.766   6.062  0.00  0.00    -0.343 OA
BRANCH  36  41
ATOM     41  O   LIG    1       -2.053   1.611   7.655  0.00  0.00    -0.387 OA
ATOM     42  H   LIG    1       -2.054   1.511   6.684  0.00  0.00    +0.210 HD
ENDBRANCH  36  41
BRANCH  37  43
ATOM     43  O   LIG    1       -1.390  -1.591   9.312  0.00  0.00    -0.386 OA
ATOM     44  H   LIG    1       -0.550  -2.096   9.315  0.00  0.00    +0.210 HD
ENDBRANCH  37  43
BRANCH  38  45
ATOM     45  O   LIG    1        0.546  -1.865   7.427  0.00  0.00    -0.384 OA
ATOM     46  H   LIG    1        0.810  -2.223   6.555  0.00  0.00    +0.210 HD
ENDBRANCH  38  45
ENDBRANCH  33  39
ENDBRANCH   1  33
BRANCH   4  47
ATOM     47  C   LIG    1       -4.306  -4.069   2.494  0.00  0.00    +0.168 C 
BRANCH  47  48
ATOM     48  O   LIG    1       -5.502  -4.576   3.075  0.00  0.00    -0.394 OA
ATOM     49  H   LIG    1       -6.229  -4.326   2.474  0.00  0.00    +0.209 HD
ENDBRANCH  47  48
ENDBRANCH   4  47
TORSDOF 12
