REMARK  Name = *****
REMARK                            x       y       z     vdW  Elec       q    Type
REMARK                         _______ _______ _______ _____ _____    ______ ____
ROOT
ATOM      1  N   LIG    1        2.529  -8.962   0.444  0.00  0.00    -0.302 NA
ATOM      2  C   LIG    1        3.919  -8.812   0.872  0.00  0.00    +0.085 C 
ATOM      3  C   LIG    1        4.280  -9.664   2.086  0.00  0.00    +0.022 C 
ATOM      4  C   LIG    1        4.028 -11.181   1.920  0.00  0.00    +0.032 C 
ATOM      5  C   LIG    1        2.615 -11.369   1.305  0.00  0.00    +0.022 C 
ATOM      6  C   LIG    1        2.202 -10.375   0.208  0.00  0.00    +0.085 C 
ENDROOT
BRANCH   1   7
ATOM      7  C   LIG    1        1.593  -8.249   1.330  0.00  0.00    +0.084 C 
BRANCH   7   8
ATOM      8  C   LIG    1        0.197  -8.072   0.707  0.00  0.00    +0.018 C 
BRANCH   8   9
ATOM      9  C   LIG    1        0.189  -7.429  -0.692  0.00  0.00    +0.037 C 
BRANCH   9  10
ATOM     10  C   LIG    1        0.710  -5.977  -0.718  0.00  0.00    +0.144 C 
BRANCH  10  14
ATOM     11  C   LIG    1        0.698  -4.404  -4.779  0.00  0.00    -0.031 A 
ATOM     12  C   LIG    1       -0.497  -4.761  -4.128  0.00  0.00    +0.005 A 
ATOM     13  C   LIG    1       -0.498  -5.247  -2.816  0.00  0.00    +0.006 A 
ATOM     14  C   LIG    1        0.697  -5.383  -2.109  0.00  0.00    -0.019 A 
ATOM     15  C   LIG    1        1.877  -4.943  -2.720  0.00  0.00    +0.006 A 
ATOM     16  C   LIG    1        1.878  -4.460  -4.026  0.00  0.00    +0.005 A 
BRANCH  11  18
ATOM     17  C   LIG    1       -0.430  -4.584  -7.050  0.00  0.00    +0.027 C 
ATOM     18  C   LIG    1        0.723  -3.931  -6.253  0.00  0.00    +0.087 C 
ATOM     19  C   LIG    1        2.047  -4.360  -6.935  0.00  0.00    +0.027 C 
BRANCH  18  20
ATOM     20  C   LIG    1        0.586  -2.408  -6.354  0.00  0.00    +0.315 C 
ATOM     21  O   LIG    1        0.456  -1.636  -5.379  0.00  0.00    -0.250 OA
BRANCH  20  22
ATOM     22  O   LIG    1        0.604  -1.896  -7.616  0.00  0.00    -0.480 OA
ATOM     23  H   LIG    1        0.703  -2.567  -8.319  0.00  0.00    +0.295 HD
ENDBRANCH  20  22
ENDBRANCH  18  20
ENDBRANCH  11  18
ENDBRANCH  10  14
BRANCH  10  24
ATOM     24  O   LIG    1        2.046  -5.907  -0.225  0.00  0.00    -0.387 OA
ATOM     25  H   LIG    1        2.520  -6.660  -0.629  0.00  0.00    +0.210 HD
ENDBRANCH  10  24
ENDBRANCH   9  10
ENDBRANCH   8   9
ENDBRANCH   7   8
ENDBRANCH   1   7
BRANCH   4  26
ATOM     26  C   LIG    1        5.186 -11.985   1.189  0.00  0.00    +0.119 C 
BRANCH  26  27
ATOM     27  C   LIG    1        4.949 -13.524   1.243  0.00  0.00    -0.011 A 
ATOM     28  C   LIG    1        4.737 -14.218   2.452  0.00  0.00    +0.007 A 
ATOM     29  C   LIG    1        4.552 -15.611   2.479  0.00  0.00    +0.000 A 
ATOM     30  C   LIG    1        4.579 -16.348   1.300  0.00  0.00    +0.000 A 
ATOM     31  C   LIG    1        4.764 -15.690   0.091  0.00  0.00    +0.000 A 
ATOM     32  C   LIG    1        4.938 -14.299   0.064  0.00  0.00    +0.007 A 
ENDBRANCH  26  27
BRANCH  26  33
ATOM     33  C   LIG    1        6.606 -11.616   1.729  0.00  0.00    -0.011 A 
ATOM     34  C   LIG    1        6.907 -11.625   3.108  0.00  0.00    +0.007 A 
ATOM     35  C   LIG    1        8.170 -11.240   3.589  0.00  0.00    +0.000 A 
ATOM     36  C   LIG    1        9.167 -10.835   2.707  0.00  0.00    +0.000 A 
ATOM     37  C   LIG    1        8.904 -10.819   1.344  0.00  0.00    +0.000 A 
ATOM     38  C   LIG    1        7.649 -11.218   0.863  0.00  0.00    +0.007 A 
ENDBRANCH  26  33
BRANCH  26  39
ATOM     39  O   LIG    1        5.098 -11.599  -0.195  0.00  0.00    -0.379 OA
ATOM     40  H   LIG    1        5.546 -10.746  -0.286  0.00  0.00    +0.211 HD
ENDBRANCH  26  39
ENDBRANCH   4  26
TORSDOF 13
