REMARK  Name = *****
REMARK                            x       y       z     vdW  Elec       q    Type
REMARK                         _______ _______ _______ _____ _____    ______ ____
ROOT
ATOM      1  C   LIG    1       -2.474  -0.037  -0.038  0.00  0.00    +0.171 C 
ATOM      2  C   LIG    1       -2.995  -0.447   1.325  0.00  0.00    +0.180 C 
ATOM      3  O   LIG    1       -4.354  -0.038   1.557  0.00  0.00    -0.369 OA
ATOM      4  C   LIG    1       -5.067  -1.139   2.143  0.00  0.00    +0.194 C 
ATOM      5  C   LIG    1       -4.173  -2.375   2.093  0.00  0.00    +0.171 C 
ATOM      6  C   LIG    1       -3.014  -1.958   1.212  0.00  0.00    +0.180 C 
ATOM      7  O   LIG    1       -3.264  -2.276  -0.174  0.00  0.00    -0.369 OA
ATOM      8  C   LIG    1       -3.128  -1.069  -0.943  0.00  0.00    +0.194 C 
ENDROOT
BRANCH   1   9
ATOM      9  O   LIG    1       -2.761   1.307  -0.391  0.00  0.00    -0.387 OA
ATOM     10  H   LIG    1       -2.604   1.413  -1.339  0.00  0.00    +0.210 HD
ENDBRANCH   1   9
BRANCH   5  11
ATOM     11  O   LIG    1       -3.708  -2.722   3.402  0.00  0.00    -0.387 OA
ATOM     12  H   LIG    1       -3.368  -1.920   3.835  0.00  0.00    +0.210 HD
ENDBRANCH   5  11
TORSDOF 2
