REMARK  Name = *****
REMARK                            x       y       z     vdW  Elec       q    Type
REMARK                         _______ _______ _______ _____ _____    ______ ____
ROOT
ATOM      1  C   LIG    1        6.307  -2.706   0.257  0.00  0.00    +0.341 C 
ATOM      2  O   LIG    1        5.404  -3.191   0.905  0.00  0.00    -0.245 OA
ENDROOT
BRANCH   1   3
ATOM      3  C   LIG    1        7.710  -2.536   0.719  0.00  0.00    +0.077 A 
ATOM      4  C   LIG    1        8.297  -3.399   1.651  0.00  0.00    +0.057 A 
ATOM      5 CL   LIG    1        7.494  -4.773   2.329  0.00  0.00    -0.083 Cl
ATOM      6  C   LIG    1        9.622  -3.183   2.067  0.00  0.00    +0.043 A 
ATOM      7  C   LIG    1       10.385  -2.140   1.537  0.00  0.00    +0.026 A 
ATOM      8  C   LIG    1        9.774  -1.247   0.657  0.00  0.00    +0.023 A 
ATOM      9  C   LIG    1        8.456  -1.452   0.237  0.00  0.00    +0.018 A 
BRANCH   7  10
ATOM     10  N   LIG    1       11.652  -1.856   2.055  0.00  0.00    -0.358 N 
ATOM     11  H   LIG    1       12.141  -2.662   2.434  0.00  0.00    +0.142 HD
ATOM     12  H   LIG    1       12.242  -1.308   1.436  0.00  0.00    +0.142 HD
ENDBRANCH   7  10
ENDBRANCH   1   3
BRANCH   1  13
ATOM     13  O   LIG    1        6.200  -2.226  -1.013  0.00  0.00    -0.460 OA
BRANCH  13  14
ATOM     14  C   LIG    1        4.880  -2.269  -1.579  0.00  0.00    +0.247 C 
BRANCH  14  15
ATOM     15  C   LIG    1        3.993  -1.117  -1.061  0.00  0.00    +0.125 C 
BRANCH  15  16
ATOM     16  N   LIG    1        4.504   0.243  -1.356  0.00  0.00    -0.300 NA
BRANCH  16  18
ATOM     17  C   LIG    1        3.309   0.535  -3.586  0.00  0.00    +0.020 C 
ATOM     18  C   LIG    1        4.614   0.525  -2.795  0.00  0.00    +0.081 C 
ENDBRANCH  16  18
BRANCH  16  19
ATOM     19  C   LIG    1        3.731   1.250  -0.606  0.00  0.00    +0.081 C 
ATOM     20  C   LIG    1        4.284   2.669  -0.724  0.00  0.00    +0.020 C 
ENDBRANCH  16  19
ENDBRANCH  15  16
ENDBRANCH  14  15
ENDBRANCH  13  14
ENDBRANCH   1  13
TORSDOF 8
