REMARK  Name = *****
REMARK                            x       y       z     vdW  Elec       q    Type
REMARK                         _______ _______ _______ _____ _____    ______ ____
ROOT
ATOM      1  C   LIG    1        1.129   0.760  -0.170  0.00  0.00    +0.080 A 
ATOM      2  C   LIG    1        0.426  -0.321  -0.749  0.00  0.00    +0.045 A 
ATOM      3  C   LIG    1       -0.526  -0.015  -1.738  0.00  0.00    +0.024 A 
ATOM      4  C   LIG    1       -0.712   1.291  -2.202  0.00  0.00    +0.002 A 
ATOM      5  C   LIG    1        0.013   2.337  -1.646  0.00  0.00    +0.001 A 
ATOM      6  C   LIG    1        0.918   2.076  -0.622  0.00  0.00    +0.017 A 
ENDROOT
BRANCH   1   8
ATOM      7  O   LIG    1        2.433   1.488   1.696  0.00  0.00    -0.245 OA
ATOM      8  C   LIG    1        2.158   0.614   0.891  0.00  0.00    +0.341 C 
BRANCH   8   9
ATOM      9  O   LIG    1        2.831  -0.550   0.714  0.00  0.00    -0.460 OA
BRANCH   9  10
ATOM     10  C   LIG    1        4.093  -0.647   1.403  0.00  0.00    +0.247 C 
BRANCH  10  11
ATOM     11  C   LIG    1        5.199  -0.066   0.501  0.00  0.00    +0.125 C 
BRANCH  11  12
ATOM     12  N   LIG    1        6.564  -0.119   1.049  0.00  0.00    -0.296 NA
ATOM     13  C   LIG    1        7.028  -1.479   1.375  0.00  0.00    +0.103 C 
ATOM     14  C   LIG    1        7.256  -2.406   0.164  0.00  0.00    +0.120 C 
ATOM     15  N   LIG    1        8.166  -1.804  -0.838  0.00  0.00    -0.327 N 
ATOM     16  C   LIG    1        7.842  -0.395  -1.172  0.00  0.00    +0.120 C 
ATOM     17  C   LIG    1        7.542   0.456   0.094  0.00  0.00    +0.103 C 
BRANCH  15  18
ATOM     18  C   LIG    1        8.664  -2.641  -1.851  0.00  0.00    +0.030 A 
ATOM     19  C   LIG    1        9.427  -2.147  -2.924  0.00  0.00    +0.035 A 
ATOM     20  C   LIG    1        9.982  -2.983  -3.919  0.00  0.00    +0.057 A 
ATOM     21  C   LIG    1        9.780  -4.365  -3.841  0.00  0.00    +0.012 A 
ATOM     22  C   LIG    1        9.040  -4.889  -2.792  0.00  0.00    +0.002 A 
ATOM     23  C   LIG    1        8.493  -4.037  -1.826  0.00  0.00    +0.023 A 
BRANCH  20  24
ATOM     24  C   LIG    1       10.784  -2.382  -5.043  0.00  0.00    +0.417 C 
ATOM     25  F   LIG    1       11.867  -1.686  -4.601  0.00  0.00    -0.166 F 
ATOM     26  F   LIG    1       10.056  -1.504  -5.789  0.00  0.00    -0.166 F 
ATOM     27  F   LIG    1       11.268  -3.303  -5.925  0.00  0.00    -0.166 F 
ENDBRANCH  20  24
ENDBRANCH  15  18
ENDBRANCH  11  12
ENDBRANCH  10  11
ENDBRANCH   9  10
ENDBRANCH   8   9
ENDBRANCH   1   8
BRANCH   2  28
ATOM     28  N   LIG    1        0.549  -1.651  -0.261  0.00  0.00    -0.313 N 
ATOM     29  H   LIG    1        1.398  -1.752   0.302  0.00  0.00    +0.152 HD
BRANCH  28  30
ATOM     30  C   LIG    1        0.312  -2.877  -0.949  0.00  0.00    +0.042 A 
ATOM     31  C   LIG    1       -0.054  -4.040  -0.221  0.00  0.00    +0.021 A 
ATOM     32  C   LIG    1       -0.218  -5.241  -0.945  0.00  0.00    +0.073 A 
ATOM     33  C   LIG    1       -0.570  -6.398  -0.264  0.00  0.00    +0.040 A 
ATOM     34  C   LIG    1       -0.764  -6.422   1.125  0.00  0.00    +0.057 A 
ATOM     35  C   LIG    1       -0.618  -5.231   1.841  0.00  0.00    +0.013 A 
ATOM     36  N   LIG    1       -0.037  -5.324  -2.271  0.00  0.00    -0.255 NA
ATOM     37  C   LIG    1        0.339  -4.211  -2.930  0.00  0.00    +0.113 A 
ATOM     38  C   LIG    1       -0.271  -4.053   1.176  0.00  0.00    +0.012 A 
ATOM     39  C   LIG    1        0.542  -2.989  -2.321  0.00  0.00    +0.043 A 
BRANCH  34  40
ATOM     40  C   LIG    1       -1.114  -7.704   1.838  0.00  0.00    +0.417 C 
ATOM     41  F   LIG    1       -2.302  -7.627   2.498  0.00  0.00    -0.166 F 
ATOM     42  F   LIG    1       -0.187  -8.040   2.778  0.00  0.00    -0.166 F 
ATOM     43  F   LIG    1       -1.213  -8.782   1.012  0.00  0.00    -0.166 F 
ENDBRANCH  34  40
ENDBRANCH  28  30
ENDBRANCH   2  28
TORSDOF 10
