REMARK  Name = *****
REMARK                            x       y       z     vdW  Elec       q    Type
REMARK                         _______ _______ _______ _____ _____    ______ ____
ROOT
ATOM      1  O   LIG    1       14.784   3.120   1.272  0.00  0.00    -0.339 OA
ENDROOT
BRANCH   1   7
ATOM      2  C   LIG    1       13.809   3.966  -1.109  0.00  0.00    +0.218 C 
ATOM      3  C   LIG    1       15.083   4.747  -1.380  0.00  0.00    +0.177 C 
ATOM      4  C   LIG    1       16.127   3.649  -1.317  0.00  0.00    +0.160 C 
ATOM      5  C   LIG    1       17.217   3.450  -2.337  0.00  0.00    +0.041 C 
ATOM      6  O   LIG    1       15.511   2.424  -0.868  0.00  0.00    -0.342 OA
ATOM      7  C   LIG    1       14.383   2.843  -0.118  0.00  0.00    +0.283 C 
BRANCH   3   8
ATOM      8  O   LIG    1       15.232   5.573  -2.519  0.00  0.00    -0.376 OA
ATOM      9  H   LIG    1       16.096   6.024  -2.372  0.00  0.00    +0.211 HD
ENDBRANCH   3   8
BRANCH   3  10
ATOM     10  C   LIG    1       15.293   5.773  -0.263  0.00  0.00    +0.263 C 
ATOM     11  O   LIG    1       16.249   6.553  -0.298  0.00  0.00    -0.298 OA
ENDBRANCH   3  10
BRANCH   2  12
ATOM     12  O   LIG    1       13.118   3.542  -2.363  0.00  0.00    -0.338 OA
BRANCH  12  14
ATOM     13  C   LIG    1       12.744   2.200  -4.595  0.00  0.00    +0.141 C 
ATOM     14  C   LIG    1       13.678   2.601  -3.336  0.00  0.00    +0.271 C 
ATOM     15  O   LIG    1       14.918   3.039  -3.903  0.00  0.00    -0.342 OA
ATOM     16  C   LIG    1       15.010   3.664  -5.203  0.00  0.00    +0.178 C 
ATOM     17  C   LIG    1       13.726   4.280  -5.773  0.00  0.00    +0.175 C 
ATOM     18  C   LIG    1       12.441   3.542  -5.322  0.00  0.00    +0.167 C 
BRANCH  13  20
ATOM     19  C   LIG    1       11.135   0.564  -5.668  0.00  0.00    +0.101 C 
ATOM     20  N   LIG    1       11.635   1.191  -4.410  0.00  0.00    -0.310 NA
ATOM     21  H   LIG    1       12.064   0.406  -3.914  0.00  0.00    +0.122 HD
ENDBRANCH  13  20
BRANCH  17  22
ATOM     22  O   LIG    1       13.626   5.694  -5.535  0.00  0.00    -0.387 OA
ATOM     23  H   LIG    1       14.316   5.968  -4.903  0.00  0.00    +0.210 HD
ENDBRANCH  17  22
BRANCH  18  24
ATOM     24  O   LIG    1       11.663   3.313  -6.507  0.00  0.00    -0.387 OA
ATOM     25  H   LIG    1       10.813   3.761  -6.357  0.00  0.00    +0.210 HD
ENDBRANCH  18  24
BRANCH  16  26
ATOM     26  C   LIG    1       15.557   2.703  -6.296  0.00  0.00    +0.190 C 
BRANCH  26  27
ATOM     27  O   LIG    1       16.744   2.032  -5.912  0.00  0.00    -0.392 OA
ATOM     28  H   LIG    1       16.504   1.430  -5.187  0.00  0.00    +0.209 HD
ENDBRANCH  26  27
ENDBRANCH  16  26
ENDBRANCH  12  14
ENDBRANCH   2  12
ENDBRANCH   1   7
BRANCH   1  29
ATOM     29  C   LIG    1       16.116   3.587   1.692  0.00  0.00    +0.192 C 
ATOM     30  C   LIG    1       17.451   2.866   1.207  0.00  0.00    +0.208 C 
ATOM     31  C   LIG    1       17.517   1.430   1.732  0.00  0.00    +0.193 C 
ATOM     32  C   LIG    1       16.740   1.289   3.052  0.00  0.00    +0.207 C 
ATOM     33  C   LIG    1       16.646   2.579   3.860  0.00  0.00    +0.185 C 
ATOM     34  C   LIG    1       16.175   3.838   3.200  0.00  0.00    +0.178 C 
BRANCH  30  35
ATOM     35  N   LIG    1       18.729   3.643   1.285  0.00  0.00    -0.268 N 
ATOM     36  H   LIG    1       19.493   3.125   0.844  0.00  0.00    +0.258 HD
BRANCH  35  37
ATOM     37  C   LIG    1       19.008   4.971   1.100  0.00  0.00    +0.377 C 
ATOM     38  N   LIG    1       20.118   5.444   0.738  0.00  0.00    -0.130 NA
ATOM     39  H   LIG    1       20.029   6.477   0.753  0.00  0.00    +0.306 HD
BRANCH  37  40
ATOM     40  N   LIG    1       17.988   5.820   1.325  0.00  0.00    -0.289 N 
ATOM     41  H   LIG    1       18.092   6.752   0.926  0.00  0.00    +0.255 HD
ATOM     42  H   LIG    1       17.261   5.510   0.725  0.00  0.00    +0.255 HD
ENDBRANCH  37  40
ENDBRANCH  35  37
ENDBRANCH  30  35
BRANCH  31  43
ATOM     43  O   LIG    1       16.875   0.615   0.707  0.00  0.00    -0.385 OA
ATOM     44  H   LIG    1       16.873  -0.318   0.968  0.00  0.00    +0.210 HD
ENDBRANCH  31  43
BRANCH  32  45
ATOM     45  N   LIG    1       17.297   0.205   3.898  0.00  0.00    -0.268 N 
ATOM     46  H   LIG    1       16.539  -0.435   4.133  0.00  0.00    +0.258 HD
BRANCH  45  47
ATOM     47  C   LIG    1       18.107   0.307   4.962  0.00  0.00    +0.377 C 
ATOM     48  N   LIG    1       18.626   1.333   5.657  0.00  0.00    -0.130 NA
ATOM     49  H   LIG    1       18.282   2.237   5.447  0.00  0.00    +0.306 HD
BRANCH  47  50
ATOM     50  N   LIG    1       18.500  -0.837   5.463  0.00  0.00    -0.289 N 
ATOM     51  H   LIG    1       19.471  -0.805   5.748  0.00  0.00    +0.255 HD
ATOM     52  H   LIG    1       18.225  -1.705   4.993  0.00  0.00    +0.255 HD
ENDBRANCH  47  50
ENDBRANCH  45  47
ENDBRANCH  32  45
BRANCH  33  53
ATOM     53  O   LIG    1       15.839   2.343   5.012  0.00  0.00    -0.386 OA
ATOM     54  H   LIG    1       16.071   3.016   5.671  0.00  0.00    +0.210 HD
ENDBRANCH  33  53
BRANCH  34  55
ATOM     55  O   LIG    1       17.107   4.866   3.641  0.00  0.00    -0.386 OA
ATOM     56  H   LIG    1       17.590   5.267   2.886  0.00  0.00    +0.210 HD
ENDBRANCH  34  55
ENDBRANCH   1  29
TORSDOF 20
