REMARK  Name = *****
REMARK                            x       y       z     vdW  Elec       q    Type
REMARK                         _______ _______ _______ _____ _____    ______ ____
ROOT
ATOM      1  P   LIG    1       14.099  13.995  -5.143  0.00  0.00    +0.483 P 
ATOM      2  O   LIG    1       13.179  13.194  -6.007  0.00  0.00    -0.227 OA
ENDROOT
BRANCH   1   3
ATOM      3  O   LIG    1       15.597  13.590  -5.529  0.00  0.00    -0.302 OA
ATOM      4  H   LIG    1       15.561  12.827  -6.142  0.00  0.00    +0.222 HD
ENDBRANCH   1   3
BRANCH   1   5
ATOM      5  O   LIG    1       14.004  13.646  -3.596  0.00  0.00    -0.186 OA
BRANCH   5   6
ATOM      6  P   LIG    1       12.596  13.529  -2.861  0.00  0.00    +0.483 P 
ATOM      7  O   LIG    1       12.025  14.815  -2.368  0.00  0.00    -0.227 OA
BRANCH   6   8
ATOM      8  O   LIG    1       11.695  12.795  -3.956  0.00  0.00    -0.302 OA
ATOM      9  H   LIG    1       12.177  12.132  -4.494  0.00  0.00    +0.222 HD
ENDBRANCH   6   8
BRANCH   6  10
ATOM     10  O   LIG    1       12.768  12.346  -1.772  0.00  0.00    -0.284 OA
BRANCH  10  11
ATOM     11  C   LIG    1       11.556  11.660  -1.459  0.00  0.00    +0.206 C 
BRANCH  11  12
ATOM     12  C   LIG    1       11.741  10.591  -0.382  0.00  0.00    +0.178 C 
ATOM     13  C   LIG    1       12.772   9.517  -0.690  0.00  0.00    +0.178 C 
ATOM     14  C   LIG    1       11.994   8.510  -1.529  0.00  0.00    +0.195 C 
ATOM     15  C   LIG    1       10.583   8.601  -0.936  0.00  0.00    +0.253 C 
ATOM     16  O   LIG    1       10.525   9.841  -0.178  0.00  0.00    -0.346 OA
BRANCH  15  17
ATOM     17  N   LIG    1        9.536   8.565  -1.951  0.00  0.00    -0.285 N 
ATOM     18  C   LIG    1        8.648   9.559  -2.258  0.00  0.00    +0.167 A 
ATOM     19  N   LIG    1        8.546  10.771  -1.696  0.00  0.00    -0.216 NA
ATOM     20  C   LIG    1        7.559  11.494  -2.240  0.00  0.00    +0.225 A 
ATOM     21  N   LIG    1        6.726  11.135  -3.235  0.00  0.00    -0.219 NA
ATOM     22  C   LIG    1        6.879   9.911  -3.792  0.00  0.00    +0.147 A 
ATOM     23  C   LIG    1        7.877   9.058  -3.291  0.00  0.00    +0.147 A 
ATOM     24  N   LIG    1        8.268   7.773  -3.611  0.00  0.00    -0.231 NA
ATOM     25  C   LIG    1        9.265   7.508  -2.789  0.00  0.00    +0.203 A 
BRANCH  22  26
ATOM     26  N   LIG    1        6.016   9.557  -4.821  0.00  0.00    -0.341 N 
ATOM     27  H   LIG    1        5.942   8.553  -4.942  0.00  0.00    +0.144 HD
ATOM     28  H   LIG    1        5.154  10.085  -4.769  0.00  0.00    +0.144 HD
ENDBRANCH  22  26
ENDBRANCH  15  17
BRANCH  14  29
ATOM     29  O   LIG    1       12.553   7.199  -1.422  0.00  0.00    -0.385 OA
ATOM     30  H   LIG    1       13.150   7.226  -0.641  0.00  0.00    +0.210 HD
ENDBRANCH  14  29
BRANCH  13  31
ATOM     31  O   LIG    1       13.174   8.837   0.518  0.00  0.00    -0.386 OA
ATOM     32  H   LIG    1       12.749   9.283   1.277  0.00  0.00    +0.210 HD
ENDBRANCH  13  31
ENDBRANCH  11  12
ENDBRANCH  10  11
ENDBRANCH   6  10
ENDBRANCH   5   6
ENDBRANCH   1   5
BRANCH   1  33
ATOM     33  O   LIG    1       14.041  15.584  -5.341  0.00  0.00    -0.284 OA
BRANCH  33  34
ATOM     34  C   LIG    1       14.975  16.381  -4.636  0.00  0.00    +0.206 C 
BRANCH  34  35
ATOM     35  C   LIG    1       14.856  17.869  -4.973  0.00  0.00    +0.172 C 
BRANCH  35  36
ATOM     36  O   LIG    1       15.802  18.577  -4.152  0.00  0.00    -0.387 OA
ATOM     37  H   LIG    1       15.935  19.443  -4.592  0.00  0.00    +0.210 HD
ENDBRANCH  35  36
BRANCH  35  38
ATOM     38  C   LIG    1       15.141  18.251  -6.436  0.00  0.00    +0.175 C 
BRANCH  38  39
ATOM     39  O   LIG    1       15.025  19.689  -6.540  0.00  0.00    -0.387 OA
ATOM     40  H   LIG    1       14.204  19.903  -7.014  0.00  0.00    +0.210 HD
ENDBRANCH  38  39
BRANCH  38  41
ATOM     41  C   LIG    1       14.344  17.520  -7.528  0.00  0.00    +0.165 C 
BRANCH  41  42
ATOM     42  O   LIG    1       14.897  17.907  -8.791  0.00  0.00    -0.387 OA
ATOM     43  H   LIG    1       14.665  18.839  -8.963  0.00  0.00    +0.210 HD
ENDBRANCH  41  42
BRANCH  41  44
ATOM     44  C   LIG    1       12.792  17.627  -7.466  0.00  0.00    +0.158 C 
BRANCH  44  62
ATOM     45  C   LIG    1       10.229  21.880  -2.970  0.00  0.00    +0.044 C 
ATOM     46  C   LIG    1       10.690  21.081  -4.158  0.00  0.00    -0.045 A 
ATOM     47  C   LIG    1       10.969  19.711  -4.061  0.00  0.00    -0.045 A 
ATOM     48  C   LIG    1       10.923  18.993  -2.737  0.00  0.00    +0.044 C 
ATOM     49  C   LIG    1       11.395  19.004  -5.205  0.00  0.00    +0.031 A 
ATOM     50  C   LIG    1       11.659  19.641  -6.429  0.00  0.00    +0.069 A 
ATOM     51  C   LIG    1       11.332  21.017  -6.518  0.00  0.00    +0.089 A 
ATOM     52  N   LIG    1       11.464  21.761  -7.705  0.00  0.00    -0.237 NA
ATOM     53  C   LIG    1       11.906  21.168  -8.768  0.00  0.00    +0.171 A 
ATOM     54  C   LIG    1       12.352  19.723  -8.741  0.00  0.00    +0.171 A 
ATOM     55  N   LIG    1       12.856  19.224  -9.825  0.00  0.00    -0.173 NA
ATOM     56  C   LIG    1       12.955  19.924 -10.993  0.00  0.00    +0.350 C 
ATOM     57  O   LIG    1       13.665  19.554 -11.917  0.00  0.00    -0.245 OA
ATOM     58  N   LIG    1       12.266  21.088 -11.135  0.00  0.00    -0.272 N 
ATOM     59  H   LIG    1       12.452  21.560 -11.998  0.00  0.00    +0.173 HD
ATOM     60  C   LIG    1       12.019  21.896 -10.073  0.00  0.00    +0.282 C 
ATOM     61  O   LIG    1       11.955  23.121 -10.164  0.00  0.00    -0.265 OA
ATOM     62  N   LIG    1       12.264  19.011  -7.545  0.00  0.00    -0.320 N 
ATOM     63  C   LIG    1       10.854  21.710  -5.397  0.00  0.00    +0.033 A 
ENDBRANCH  44  62
ENDBRANCH  41  44
ENDBRANCH  38  41
ENDBRANCH  35  38
ENDBRANCH  34  35
ENDBRANCH  33  34
ENDBRANCH   1  33
TORSDOF 21
