REMARK  Name = *****
REMARK                            x       y       z     vdW  Elec       q    Type
REMARK                         _______ _______ _______ _____ _____    ______ ____
ROOT
ATOM      1  C   LIG    1        3.567  -4.504  -3.255  0.00  0.00    +0.130 A 
ATOM      2  C   LIG    1        3.566  -4.449  -4.658  0.00  0.00    +0.034 A 
ATOM      3  C   LIG    1        3.054  -3.256  -5.417  0.00  0.00    +0.051 C 
ATOM      4  C   LIG    1        4.063  -5.559  -5.361  0.00  0.00    +0.149 A 
ATOM      5  C   LIG    1        4.716  -6.614  -4.724  0.00  0.00    +0.061 A 
ATOM      6  C   LIG    1        5.431  -7.583  -5.551  0.00  0.00    +0.156 C 
ATOM      7  C   LIG    1        5.138  -7.682  -6.856  0.00  0.00    +0.162 C 
ATOM      8  C   LIG    1        4.111  -6.785  -7.451  0.00  0.00    +0.362 C 
ATOM      9  O   LIG    1        3.638  -7.017  -8.561  0.00  0.00    -0.243 OA
ATOM     10  C   LIG    1        4.672  -6.672  -3.334  0.00  0.00    +0.019 A 
ATOM     11  O   LIG    1        3.828  -5.622  -6.752  0.00  0.00    -0.420 OA
ATOM     12  C   LIG    1        4.049  -5.652  -2.612  0.00  0.00    +0.047 A 
ENDROOT
BRANCH   7  13
ATOM     13  N   LIG    1        5.784  -8.522  -7.745  0.00  0.00    -0.273 N 
ATOM     14  H   LIG    1        5.688  -8.256  -8.721  0.00  0.00    +0.155 HD
ATOM     15  C   LIG    1        6.002  -9.869  -7.518  0.00  0.00    +0.248 C 
ATOM     16  O   LIG    1        5.609 -10.508  -6.550  0.00  0.00    -0.270 OA
BRANCH  15  17
ATOM     17  C   LIG    1        6.663 -10.573  -8.649  0.00  0.00    +0.037 A 
ATOM     18  C   LIG    1        6.344 -11.915  -8.905  0.00  0.00    +0.020 A 
ATOM     19  C   LIG    1        6.923 -12.591  -9.993  0.00  0.00    -0.002 A 
ATOM     20  C   LIG    1        7.825 -11.885 -10.803  0.00  0.00    +0.120 A 
ATOM     21  C   LIG    1        8.169 -10.560 -10.535  0.00  0.00    +0.046 A 
ATOM     22  C   LIG    1        7.590  -9.903  -9.456  0.00  0.00    +0.016 A 
BRANCH  20  23
ATOM     23  O   LIG    1        8.365 -12.491 -11.900  0.00  0.00    -0.506 OA
ATOM     24  H   LIG    1        9.013 -11.894 -12.306  0.00  0.00    +0.292 HD
ENDBRANCH  20  23
BRANCH  19  25
ATOM     25  C   LIG    1        6.571 -14.040 -10.260  0.00  0.00    +0.066 C 
BRANCH  25  26
ATOM     26  C   LIG    1        7.484 -15.021  -9.568  0.00  0.00    -0.023 C 
ATOM     27  C   LIG    1        8.567 -15.644 -10.080  0.00  0.00    -0.079 C 
ATOM     28  C   LIG    1        9.385 -16.597  -9.251  0.00  0.00    +0.038 C 
ATOM     29  C   LIG    1        9.096 -15.441 -11.472  0.00  0.00    +0.038 C 
ENDBRANCH  25  26
ENDBRANCH  19  25
ENDBRANCH  15  17
ENDBRANCH   7  13
BRANCH   6  30
ATOM     30  O   LIG    1        6.523  -8.227  -4.996  0.00  0.00    -0.504 OA
ATOM     31  H   LIG    1        6.794  -7.770  -4.185  0.00  0.00    +0.292 HD
ENDBRANCH   6  30
BRANCH   1  32
ATOM     32  O   LIG    1        3.050  -3.436  -2.565  0.00  0.00    -0.460 OA
BRANCH  32  38
ATOM     33  C   LIG    1        3.283  -2.091   1.403  0.00  0.00    +0.193 C 
ATOM     34  C   LIG    1        3.468  -3.631   1.097  0.00  0.00    +0.098 C 
ATOM     35  C   LIG    1        2.600  -4.512   2.021  0.00  0.00    +0.044 C 
ATOM     36  C   LIG    1        4.912  -4.139   1.310  0.00  0.00    +0.044 C 
ATOM     37  O   LIG    1        3.048  -3.921  -0.250  0.00  0.00    -0.331 OA
ATOM     38  C   LIG    1        3.672  -3.152  -1.288  0.00  0.00    +0.341 C 
ATOM     39  C   LIG    1        3.574  -1.626  -1.038  0.00  0.00    +0.226 C 
ATOM     40  C   LIG    1        4.079  -1.262   0.366  0.00  0.00    +0.244 C 
BRANCH  33  42
ATOM     41  C   LIG    1        1.569  -0.373   1.599  0.00  0.00    +0.194 C 
ATOM     42  O   LIG    1        1.884  -1.737   1.313  0.00  0.00    -0.373 OA
ENDBRANCH  33  42
BRANCH  39  43
ATOM     43  O   LIG    1        4.352  -0.884  -1.996  0.00  0.00    -0.382 OA
ATOM     44  H   LIG    1        5.285  -0.995  -1.739  0.00  0.00    +0.210 HD
ENDBRANCH  39  43
BRANCH  40  45
ATOM     45  O   LIG    1        5.503  -1.500   0.418  0.00  0.00    -0.442 OA
BRANCH  45  46
ATOM     46  C   LIG    1        6.154  -1.069   1.511  0.00  0.00    +0.398 C 
ATOM     47  O   LIG    1        5.716  -0.281   2.356  0.00  0.00    -0.227 OA
ATOM     48  N   LIG    1        7.329  -1.711   1.611  0.00  0.00    -0.295 N 
ATOM     49  H   LIG    1        7.883  -1.626   2.451  0.00  0.00    +0.148 HD
ATOM     50  H   LIG    1        7.610  -2.358   0.884  0.00  0.00    +0.148 HD
ENDBRANCH  45  46
ENDBRANCH  40  45
ENDBRANCH  32  38
ENDBRANCH   1  32
TORSDOF 12
