REMARK  Name = *****
REMARK                            x       y       z     vdW  Elec       q    Type
REMARK                         _______ _______ _______ _____ _____    ______ ____
ROOT
ATOM      1  C   LIG    1       10.110  -2.226   9.769  0.00  0.00    +0.007 C 
ENDROOT
BRANCH   1   2
ATOM      2  C   LIG    1        9.507  -2.907  10.983  0.00  0.00    +0.041 C 
BRANCH   2   3
ATOM      3  C   LIG    1        8.724  -1.901  11.782  0.00  0.00    +0.232 C 
BRANCH   3   4
ATOM      4  O   LIG    1        8.353  -2.554  12.999  0.00  0.00    -0.465 OA
BRANCH   4   5
ATOM      5  C   LIG    1        8.502  -1.766  14.094  0.00  0.00    +0.312 C 
ATOM      6  O   LIG    1        8.385  -0.550  14.127  0.00  0.00    -0.251 OA
BRANCH   5   7
ATOM      7  C   LIG    1        8.881  -2.594  15.287  0.00  0.00    +0.171 C 
BRANCH   7   8
ATOM      8  C   LIG    1        7.642  -3.411  15.595  0.00  0.00    +0.145 C 
BRANCH   8   9
ATOM      9  N   LIG    1        7.620  -4.241  16.908  0.00  0.00    +0.247 N 
ATOM     10  C   LIG    1        8.809  -5.335  16.881  0.00  0.00    +0.102 C 
ATOM     11  C   LIG    1       10.072  -4.676  17.386  0.00  0.00    +0.008 A 
ATOM     12  C   LIG    1        9.985  -3.802  18.466  0.00  0.00    -0.030 A 
ATOM     13  C   LIG    1       11.101  -3.089  18.870  0.00  0.00    +0.053 A 
ATOM     14  C   LIG    1       12.349  -3.215  18.241  0.00  0.00    +0.162 A 
ATOM     15  C   LIG    1       12.450  -4.048  17.092  0.00  0.00    +0.162 A 
ATOM     16  C   LIG    1        8.685  -3.555  19.156  0.00  0.00    +0.086 C 
ATOM     17  C   LIG    1       11.298  -4.788  16.711  0.00  0.00    +0.059 A 
ATOM     18  C   LIG    1        7.621  -3.261  18.126  0.00  0.00    +0.138 C 
ATOM     19  C   LIG    1        6.252  -4.915  16.921  0.00  0.00    +0.193 C 
BRANCH  14  20
ATOM     20  O   LIG    1       13.223  -2.464  19.000  0.00  0.00    -0.491 OA
ATOM     21  C   LIG    1       14.299  -1.875  18.342  0.00  0.00    +0.277 C 
ENDBRANCH  14  20
BRANCH  15  22
ATOM     22  O   LIG    1       13.457  -4.317  16.177  0.00  0.00    -0.491 OA
ATOM     23  C   LIG    1       14.671  -3.624  16.285  0.00  0.00    +0.277 C 
ENDBRANCH  15  22
BRANCH  10  24
ATOM     24  C   LIG    1        8.446  -6.696  17.582  0.00  0.00    +0.095 C 
BRANCH  24  25
ATOM     25  C   LIG    1        9.413  -7.859  17.385  0.00  0.00    -0.038 A 
ATOM     26  C   LIG    1        9.363  -8.654  16.224  0.00  0.00    +0.053 A 
ATOM     27  C   LIG    1       10.261  -9.722  16.012  0.00  0.00    +0.162 A 
ATOM     28  C   LIG    1       11.165 -10.078  17.030  0.00  0.00    +0.162 A 
ATOM     29  C   LIG    1       11.207  -9.298  18.190  0.00  0.00    +0.050 A 
ATOM     30  C   LIG    1       10.344  -8.208  18.368  0.00  0.00    +0.007 A 
BRANCH  28  31
ATOM     31  O   LIG    1       12.006 -11.152  16.840  0.00  0.00    -0.491 OA
ATOM     32  C   LIG    1       12.469 -11.788  18.040  0.00  0.00    +0.277 C 
ENDBRANCH  28  31
BRANCH  27  33
ATOM     33  O   LIG    1       10.272 -10.455  14.848  0.00  0.00    -0.491 OA
ATOM     34  C   LIG    1        9.818  -9.776  13.677  0.00  0.00    +0.277 C 
ENDBRANCH  27  33
ENDBRANCH  24  25
ENDBRANCH  10  24
ENDBRANCH   8   9
ENDBRANCH   7   8
ENDBRANCH   5   7
ENDBRANCH   4   5
ENDBRANCH   3   4
ENDBRANCH   2   3
ENDBRANCH   1   2
BRANCH   1  35
ATOM     35  C   LIG    1       11.052  -3.157   9.120  0.00  0.00    +0.041 C 
BRANCH  35  36
ATOM     36  C   LIG    1       12.139  -3.586  10.158  0.00  0.00    +0.232 C 
BRANCH  36  37
ATOM     37  O   LIG    1       13.201  -2.698  10.208  0.00  0.00    -0.465 OA
BRANCH  37  38
ATOM     38  C   LIG    1       13.268  -2.069  11.301  0.00  0.00    +0.312 C 
ATOM     39  O   LIG    1       12.560  -0.926  11.373  0.00  0.00    -0.251 OA
BRANCH  38  40
ATOM     40  C   LIG    1       14.082  -2.556  12.364  0.00  0.00    +0.171 C 
BRANCH  40  41
ATOM     41  C   LIG    1       15.425  -1.875  12.492  0.00  0.00    +0.145 C 
BRANCH  41  43
ATOM     42  C   LIG    1       16.588  -1.782  10.005  0.00  0.00    +0.102 C 
ATOM     43  N   LIG    1       16.627  -2.284  11.593  0.00  0.00    +0.247 N 
ATOM     44  C   LIG    1       17.821  -1.750  12.400  0.00  0.00    +0.193 C 
ATOM     45  C   LIG    1       17.053  -3.746  11.508  0.00  0.00    +0.138 C 
ATOM     46  C   LIG    1       16.122  -4.643  10.755  0.00  0.00    +0.086 C 
ATOM     47  C   LIG    1       15.449  -4.047   9.541  0.00  0.00    -0.030 A 
ATOM     48  C   LIG    1       14.474  -4.915   8.921  0.00  0.00    +0.053 A 
ATOM     49  C   LIG    1       13.527  -4.467   7.972  0.00  0.00    +0.162 A 
ATOM     50  C   LIG    1       13.751  -3.090   7.476  0.00  0.00    +0.162 A 
ATOM     51  C   LIG    1       14.813  -2.252   8.053  0.00  0.00    +0.059 A 
ATOM     52  C   LIG    1       15.612  -2.682   9.161  0.00  0.00    +0.008 A 
BRANCH  50  53
ATOM     53  O   LIG    1       12.848  -2.546   6.569  0.00  0.00    -0.491 OA
ATOM     54  C   LIG    1       12.822  -1.127   6.295  0.00  0.00    +0.277 C 
ENDBRANCH  50  53
BRANCH  49  55
ATOM     55  O   LIG    1       12.215  -5.192   7.916  0.00  0.00    -0.491 OA
ATOM     56  C   LIG    1       11.434  -5.941   9.133  0.00  0.00    +0.277 C 
ENDBRANCH  49  55
BRANCH  42  57
ATOM     57  C   LIG    1       16.590  -0.205   9.811  0.00  0.00    +0.095 C 
BRANCH  57  61
ATOM     58  C   LIG    1       19.655   2.340  11.730  0.00  0.00    +0.162 A 
ATOM     59  C   LIG    1       19.706   0.970  11.857  0.00  0.00    +0.162 A 
ATOM     60  C   LIG    1       18.905   0.228  10.956  0.00  0.00    +0.053 A 
ATOM     61  C   LIG    1       17.741   0.686  10.331  0.00  0.00    -0.038 A 
ATOM     62  C   LIG    1       17.692   2.064  10.213  0.00  0.00    +0.007 A 
ATOM     63  C   LIG    1       18.651   2.868  10.880  0.00  0.00    +0.050 A 
BRANCH  58  65
ATOM     64  C   LIG    1       21.852   2.890  12.508  0.00  0.00    +0.277 C 
ATOM     65  O   LIG    1       20.494   3.268  12.287  0.00  0.00    -0.491 OA
ENDBRANCH  58  65
BRANCH  59  66
ATOM     66  O   LIG    1       20.386   0.158  12.736  0.00  0.00    -0.491 OA
ATOM     67  C   LIG    1       20.810   0.658  14.008  0.00  0.00    +0.277 C 
ENDBRANCH  59  66
ENDBRANCH  57  61
ENDBRANCH  42  57
ENDBRANCH  41  43
ENDBRANCH  40  41
ENDBRANCH  38  40
ENDBRANCH  37  38
ENDBRANCH  36  37
ENDBRANCH  35  36
ENDBRANCH   1  35
TORSDOF 26
