REMARK  Name = *****
REMARK                            x       y       z     vdW  Elec       q    Type
REMARK                         _______ _______ _______ _____ _____    ______ ____
ROOT
ATOM      1  C   LIG    1        3.869  -0.246  -6.038  0.00  0.00    +0.080 A 
ATOM      2  C   LIG    1        2.479  -0.373  -5.820  0.00  0.00    +0.045 A 
ATOM      3  C   LIG    1        1.637   0.570  -6.442  0.00  0.00    +0.024 A 
ATOM      4  C   LIG    1        2.127   1.558  -7.292  0.00  0.00    +0.002 A 
ATOM      5  C   LIG    1        3.487   1.633  -7.552  0.00  0.00    +0.001 A 
ATOM      6  C   LIG    1        4.356   0.743  -6.924  0.00  0.00    +0.017 A 
ENDROOT
BRANCH   1   8
ATOM      7  O   LIG    1        4.672  -2.172  -4.838  0.00  0.00    -0.245 OA
ATOM      8  C   LIG    1        4.868  -1.072  -5.292  0.00  0.00    +0.341 C 
BRANCH   8   9
ATOM      9  O   LIG    1        5.960  -0.282  -5.049  0.00  0.00    -0.458 OA
BRANCH   9  10
ATOM     10  C   LIG    1        6.775  -0.642  -3.922  0.00  0.00    +0.266 C 
BRANCH  10  11
ATOM     11  C   LIG    1        8.230  -0.893  -4.328  0.00  0.00    +0.177 C 
BRANCH  11  12
ATOM     12  O   LIG    1        8.350  -1.969  -5.272  0.00  0.00    -0.386 OA
ATOM     13  H   LIG    1        7.716  -2.667  -5.023  0.00  0.00    +0.210 HD
ENDBRANCH  11  12
BRANCH  11  14
ATOM     14  C   LIG    1        9.057  -1.254  -3.088  0.00  0.00    +0.190 C 
BRANCH  14  15
ATOM     15  O   LIG    1       10.418  -1.466  -3.448  0.00  0.00    -0.392 OA
ATOM     16  H   LIG    1       10.397  -1.993  -4.271  0.00  0.00    +0.209 HD
ENDBRANCH  14  15
ENDBRANCH  11  14
ENDBRANCH  10  11
ENDBRANCH   9  10
ENDBRANCH   8   9
ENDBRANCH   1   8
BRANCH   2  17
ATOM     17  N   LIG    1        1.862  -1.398  -5.061  0.00  0.00    -0.313 N 
ATOM     18  H   LIG    1        2.428  -1.771  -4.301  0.00  0.00    +0.152 HD
BRANCH  17  19
ATOM     19  C   LIG    1        0.693  -2.163  -5.367  0.00  0.00    +0.042 A 
ATOM     20  C   LIG    1       -0.021  -2.877  -4.358  0.00  0.00    +0.022 A 
ATOM     21  C   LIG    1        0.295  -2.815  -2.980  0.00  0.00    +0.012 A 
ATOM     22  C   LIG    1       -0.357  -3.616  -2.046  0.00  0.00    +0.001 A 
ATOM     23  C   LIG    1       -1.341  -4.492  -2.473  0.00  0.00    +0.014 A 
ATOM     24  C   LIG    1       -1.726  -4.532  -3.828  0.00  0.00    +0.081 A 
ATOM     25  C   LIG    1       -1.111  -3.699  -4.764  0.00  0.00    +0.084 A 
ATOM     26  N   LIG    1       -1.559  -3.695  -6.027  0.00  0.00    -0.254 NA
ATOM     27  C   LIG    1       -0.937  -2.936  -6.943  0.00  0.00    +0.113 A 
ATOM     28  C   LIG    1        0.189  -2.191  -6.673  0.00  0.00    +0.043 A 
BRANCH  24  29
ATOM     29  C   LIG    1       -2.784  -5.534  -4.217  0.00  0.00    +0.419 C 
ATOM     30  F   LIG    1       -3.951  -5.328  -3.535  0.00  0.00    -0.166 F 
ATOM     31  F   LIG    1       -2.405  -6.805  -3.880  0.00  0.00    -0.166 F 
ATOM     32  F   LIG    1       -3.140  -5.609  -5.527  0.00  0.00    -0.166 F 
ENDBRANCH  24  29
ENDBRANCH  17  19
ENDBRANCH   2  17
TORSDOF 10
