REMARK  Name = *****
REMARK                            x       y       z     vdW  Elec       q    Type
REMARK                         _______ _______ _______ _____ _____    ______ ____
ROOT
ATOM      1  CB  ALA A  1        3.122   0.068   1.417  0.00  0.00    +0.036 C 
ATOM      2  CA  ALA A  1        2.442  -0.096   0.065  0.00  0.00    +0.158 C 
ENDROOT
BRANCH   2   3
ATOM      3  N   ALA A  1        0.992  -0.288   0.249  0.00  0.00    -0.319 NA
ATOM      4  H1  ALA A  1        0.526  -0.572  -0.610  0.00  0.00    +0.119 HD
ATOM      5  H2  ALA A  1        0.733  -0.860   1.047  0.00  0.00    +0.119 HD
ENDBRANCH   2   3
BRANCH   2   6
ATOM      6  C   ALA A  1        3.091  -1.264  -0.694  0.00  0.00    +0.321 C 
ATOM      7  O   ALA A  1        4.115  -1.172  -1.350  0.00  0.00    -0.249 OA
BRANCH   6   8
ATOM      8  OXT ALA A  1        2.439  -2.441  -0.529  0.00  0.00    -0.479 OA
ATOM      9  HXT ALA A  1        1.658  -2.319   0.042  0.00  0.00    +0.295 HD
ENDBRANCH   6   8
ENDBRANCH   2   6
TORSDOF 3
