REMARK  Name = *****
REMARK                            x       y       z     vdW  Elec       q    Type
REMARK                         _______ _______ _______ _____ _____    ______ ____
ROOT
ATOM      1  C   LIG    1        3.287   0.317   1.427  0.00  0.00    +0.188 C 
ATOM      2  C   LIG    1        3.154   1.652   2.123  0.00  0.00    +0.268 C 
ATOM      3  O   LIG    1        3.392   2.745   1.632  0.00  0.00    -0.271 OA
ATOM      4  N   LIG    1        2.722   1.398   3.382  0.00  0.00    -0.207 N 
ATOM      5  C   LIG    1        2.434   2.410   4.365  0.00  0.00    +0.144 C 
ATOM      6  C   LIG    1        2.434   0.087   3.529  0.00  0.00    +0.410 C 
ATOM      7  O   LIG    1        1.937  -0.444   4.509  0.00  0.00    -0.226 OA
ATOM      8  O   LIG    1        2.750  -0.599   2.392  0.00  0.00    -0.434 OA
ATOM      9  C   LIG    1        4.761  -0.012   1.214  0.00  0.00    +0.066 C 
ENDROOT
BRANCH   1  11
ATOM     10  C   LIG    1        0.992   0.452   0.285  0.00  0.00    +0.008 C 
ATOM     11  C   LIG    1        2.495   0.251   0.117  0.00  0.00    +0.054 C 
ENDBRANCH   1  11
TORSDOF 1
