REMARK  Name = *****
REMARK                            x       y       z     vdW  Elec       q    Type
REMARK                         _______ _______ _______ _____ _____    ______ ____
ROOT
ATOM      1  O   LIG    1        2.296  -0.233  -0.094  0.00  0.00    -0.287 OA
ATOM      2  C   LIG    1        3.510  -0.061  -0.187  0.00  0.00    +0.193 C 
ENDROOT
BRANCH   2   3
ATOM      3  C   LIG    1        4.025   0.921  -1.177  0.00  0.00    +0.022 A 
ATOM      4  C   LIG    1        3.283   1.135  -2.346  0.00  0.00    +0.012 A 
ATOM      5  C   LIG    1        3.716   2.062  -3.294  0.00  0.00    +0.001 A 
ATOM      6  C   LIG    1        4.888   2.786  -3.075  0.00  0.00    +0.000 A 
ATOM      7  C   LIG    1        5.620   2.593  -1.904  0.00  0.00    +0.001 A 
ATOM      8  C   LIG    1        5.186   1.669  -0.950  0.00  0.00    +0.012 A 
ENDBRANCH   2   3
BRANCH   2   9
ATOM      9  C   LIG    1        4.415  -0.842   0.696  0.00  0.00    +0.022 A 
ATOM     10  C   LIG    1        5.674  -1.281   0.269  0.00  0.00    +0.012 A 
ATOM     11  C   LIG    1        6.482  -2.025   1.132  0.00  0.00    +0.001 A 
ATOM     12  C   LIG    1        6.030  -2.346   2.412  0.00  0.00    +0.000 A 
ATOM     13  C   LIG    1        4.766  -1.933   2.832  0.00  0.00    +0.001 A 
ATOM     14  C   LIG    1        3.957  -1.187   1.974  0.00  0.00    +0.012 A 
ENDBRANCH   2   9
TORSDOF 2
