REMARK  Name = *****
REMARK                            x       y       z     vdW  Elec       q    Type
REMARK                         _______ _______ _______ _____ _____    ______ ____
ROOT
ATOM      1  C   LIG    1        2.618  -2.353   0.210  0.00  0.00    +0.025 C 
ATOM      2  C   LIG    1        3.918  -1.580  -0.086  0.00  0.00    +0.042 C 
ATOM      3  CA  LIG    1        4.319  -1.750  -1.573  0.00  0.00    +0.201 C 
ATOM      4  N   LIG    1        3.725  -0.631  -2.323  0.00  0.00    -0.271 N 
ATOM      5  C   LIG    1        3.585   0.649  -1.602  0.00  0.00    +0.165 C 
ATOM      6  CA  LIG    1        2.214   0.832  -2.295  0.00  0.00    +0.190 C 
ATOM      7  C   LIG    1        2.408  -0.653  -2.705  0.00  0.00    +0.240 C 
ATOM      8  O   LIG    1        1.730  -1.586  -3.075  0.00  0.00    -0.273 OA
ATOM      9  S   LIG    1        3.566   0.223   0.177  0.00  0.00    -0.127 S 
ATOM     10  C   LIG    1        4.963  -2.005   0.951  0.00  0.00    +0.025 C 
ENDROOT
BRANCH   6  11
ATOM     11  N   LIG    1        1.051   1.153  -1.430  0.00  0.00    -0.299 N 
ATOM     12  H   LIG    1        1.002   0.827  -0.465  0.00  0.00    +0.150 HD
ATOM     13  C   LIG    1       -0.001   1.916  -1.886  0.00  0.00    +0.251 C 
ATOM     14  O   LIG    1       -0.023   2.392  -3.020  0.00  0.00    -0.272 OA
BRANCH  13  15
ATOM     15  C   LIG    1       -1.170   2.086  -0.921  0.00  0.00    +0.324 C 
BRANCH  15  16
ATOM     16  O   LIG    1       -0.853   1.691   0.411  0.00  0.00    -0.483 OA
BRANCH  16  17
ATOM     17  C   LIG    1       -1.925   1.311   1.177  0.00  0.00    +0.121 A 
ATOM     18  C   LIG    1       -3.264   1.632   0.922  0.00  0.00    +0.045 A 
ATOM     19  C   LIG    1       -4.276   1.103   1.714  0.00  0.00    +0.004 A 
ATOM     20  C   LIG    1       -3.964   0.273   2.790  0.00  0.00    +0.000 A 
ATOM     21  C   LIG    1       -2.634  -0.002   3.089  0.00  0.00    +0.004 A 
ATOM     22  C   LIG    1       -1.615   0.525   2.286  0.00  0.00    +0.045 A 
ENDBRANCH  16  17
ENDBRANCH  15  16
ENDBRANCH  13  15
ENDBRANCH   6  11
BRANCH   3  23
ATOM     23  C   LIG    1        5.822  -1.777  -1.903  0.00  0.00    +0.327 C 
ATOM     24  O   LIG    1        6.672  -2.404  -1.291  0.00  0.00    -0.249 OA
BRANCH  23  25
ATOM     25  OXT LIG    1        6.124  -1.127  -3.058  0.00  0.00    -0.479 OA
ATOM     26  HXT LIG    1        5.306  -0.784  -3.478  0.00  0.00    +0.295 HD
ENDBRANCH  23  25
ENDBRANCH   3  23
TORSDOF 6
