REMARK  Name = *****
REMARK                            x       y       z     vdW  Elec       q    Type
REMARK                         _______ _______ _______ _____ _____    ______ ____
ROOT
ATOM      1  C   LIG    1        4.939  -0.090  -2.131  0.00  0.00    +0.161 C 
ENDROOT
BRANCH   1   2
ATOM      2  C   LIG    1        4.399   0.031  -3.543  0.00  0.00    -0.018 A 
ATOM      3  C   LIG    1        3.397  -0.831  -4.016  0.00  0.00    +0.006 A 
ATOM      4  C   LIG    1        2.931  -0.724  -5.327  0.00  0.00    +0.000 A 
ATOM      5  C   LIG    1        3.452   0.248  -6.177  0.00  0.00    +0.000 A 
ATOM      6  C   LIG    1        4.437   1.119  -5.717  0.00  0.00    +0.000 A 
ATOM      7  C   LIG    1        4.907   1.013  -4.407  0.00  0.00    +0.006 A 
ENDBRANCH   1   2
BRANCH   1   8
ATOM      8  C   LIG    1        5.632  -1.455  -1.819  0.00  0.00    +0.083 C 
ATOM      9  C   LIG    1        6.774  -1.779  -2.788  0.00  0.00    +0.027 C 
BRANCH   8  11
ATOM     10  C   LIG    1        7.154  -0.702  -0.015  0.00  0.00    +0.101 C 
ATOM     11  N   LIG    1        6.056  -1.578  -0.400  0.00  0.00    -0.314 NA
ATOM     12  H   LIG    1        5.237  -1.325   0.163  0.00  0.00    +0.122 HD
ENDBRANCH   8  11
ENDBRANCH   1   8
BRANCH   1  13
ATOM     13  O   LIG    1        3.865   0.113  -1.198  0.00  0.00    -0.386 OA
ATOM     14  H   LIG    1        3.217   0.695  -1.632  0.00  0.00    +0.210 HD
ENDBRANCH   1  13
TORSDOF 4
