REMARK  Name = *****
REMARK                            x       y       z     vdW  Elec       q    Type
REMARK                         _______ _______ _______ _____ _____    ______ ____
ROOT
ATOM      1  C   LIG    1      -15.131   4.363  10.200  0.00  0.00    +0.163 C 
ATOM      2  C   LIG    1      -14.300   5.165  11.204  0.00  0.00    +0.209 C 
ATOM      3  N   LIG    1      -15.315   5.855  12.014  0.00  0.00    -0.281 N 
ATOM      4  C   LIG    1      -14.996   6.384  13.261  0.00  0.00    +0.269 C 
ATOM      5  O   LIG    1      -13.828   6.458  13.628  0.00  0.00    -0.268 OA
ATOM      6  C   LIG    1      -16.098   6.859  14.102  0.00  0.00    +0.164 A 
ATOM      7  N   LIG    1      -16.105   8.083  14.757  0.00  0.00    -0.208 NA
ATOM      8  C   LIG    1      -17.313   8.162  15.287  0.00  0.00    +0.203 A 
ATOM      9  C   LIG    1      -17.975   9.337  15.903  0.00  0.00    +0.170 C 
ATOM     10  C   LIG    1      -18.594  10.174  14.797  0.00  0.00    +0.145 C 
ATOM     11  O   LIG    1      -19.746   9.949  14.408  0.00  0.00    -0.297 OA
ATOM     12  C   LIG    1      -17.797  11.320  14.179  0.00  0.00    +0.110 C 
ATOM     13  C   LIG    1      -16.449  10.837  13.656  0.00  0.00    +0.145 C 
ATOM     14  C   LIG    1      -15.859  11.606  12.506  0.00  0.00    +0.007 C 
ATOM     15  C   LIG    1      -14.729  11.253  11.849  0.00  0.00    -0.052 C 
ATOM     16  C   LIG    1      -13.843  10.106  12.283  0.00  0.00    +0.043 C 
ATOM     17  C   LIG    1      -14.378  11.924  10.596  0.00  0.00    +0.000 C 
ATOM     18  C   LIG    1      -13.260  11.694   9.887  0.00  0.00    -0.008 C 
ATOM     19  C   LIG    1      -12.986  12.211   8.507  0.00  0.00    +0.132 C 
ATOM     20  N   LIG    1      -12.830  11.034   7.680  0.00  0.00    -0.308 N 
ATOM     21  H   LIG    1      -13.606  10.391   7.674  0.00  0.00    +0.149 HD
ATOM     22  C   LIG    1      -11.586  10.585   7.326  0.00  0.00    +0.237 C 
ATOM     23  O   LIG    1      -10.586  11.290   7.259  0.00  0.00    -0.271 OA
ATOM     24  C   LIG    1      -11.457   9.123   7.081  0.00  0.00    +0.063 C 
ATOM     25  C   LIG    1      -12.251   8.193   7.641  0.00  0.00    -0.015 C 
ATOM     26  C   LIG    1      -11.882   6.724   7.716  0.00  0.00    +0.050 C 
ATOM     27  C   LIG    1      -13.032   5.844   7.217  0.00  0.00    +0.015 C 
ATOM     28  C   LIG    1      -11.396   6.394   9.177  0.00  0.00    +0.186 C 
ATOM     29  O   LIG    1      -12.328   5.561   9.916  0.00  0.00    -0.459 OA
ATOM     30  O   LIG    1      -18.058   7.025  15.146  0.00  0.00    -0.447 OA
ATOM     31  C   LIG    1      -17.265   6.196  14.412  0.00  0.00    +0.230 A 
ATOM     32  C   LIG    1      -16.584   5.949  11.316  0.00  0.00    +0.111 C 
ATOM     33  C   LIG    1      -13.441   6.169  10.437  0.00  0.00    +0.330 C 
ATOM     34  O   LIG    1      -13.759   7.331  10.211  0.00  0.00    -0.249 OA
ATOM     35  C   LIG    1      -16.364   5.246   9.982  0.00  0.00    +0.047 C 
ENDROOT
BRANCH   1  36
ATOM     36  S   LIG    1      -15.509   2.748  10.877  0.00  0.00    -0.025 S 
ATOM     37  O   LIG    1      -14.270   2.007  10.932  0.00  0.00    -0.174 OA
ATOM     38  O   LIG    1      -16.323   2.933  12.063  0.00  0.00    -0.174 OA
BRANCH  36  39
ATOM     39  C   LIG    1      -16.541   1.986   9.637  0.00  0.00    +0.181 C 
BRANCH  39  40
ATOM     40  C   LIG    1      -17.088   0.631  10.089  0.00  0.00    +0.107 C 
BRANCH  40  41
ATOM     41  N   LIG    1      -17.975  -0.043   9.101  0.00  0.00    -0.301 NA
BRANCH  41  43
ATOM     42  C   LIG    1      -20.034   1.184   9.922  0.00  0.00    +0.020 C 
ATOM     43  C   LIG    1      -19.168   0.744   8.742  0.00  0.00    +0.081 C 
ENDBRANCH  41  43
BRANCH  41  44
ATOM     44  C   LIG    1      -17.199  -0.462   7.914  0.00  0.00    +0.081 C 
ATOM     45  C   LIG    1      -17.964  -1.283   6.880  0.00  0.00    +0.020 C 
ENDBRANCH  41  44
ENDBRANCH  40  41
ENDBRANCH  39  40
ENDBRANCH  36  39
ENDBRANCH   1  36
BRANCH  28  46
ATOM     46  C   LIG    1      -10.007   5.689   9.159  0.00  0.00    +0.024 C 
ATOM     47  C   LIG    1       -9.458   5.449  10.572  0.00  0.00    +0.011 C 
ATOM     48  C   LIG    1      -10.041   4.352   8.416  0.00  0.00    +0.011 C 
ENDBRANCH  28  46
BRANCH  13  49
ATOM     49  O   LIG    1      -15.540  10.872  14.750  0.00  0.00    -0.387 OA
ATOM     50  H   LIG    1      -15.215   9.955  14.866  0.00  0.00    +0.210 HD
ENDBRANCH  13  49
TORSDOF 8
