REMARK  Name = *****
REMARK                            x       y       z     vdW  Elec       q    Type
REMARK                         _______ _______ _______ _____ _____    ______ ____
ROOT
ATOM      1  C   LIG    1        2.588  -0.136   2.260  0.00  0.00    +0.158 C 
ATOM      2  N   LIG    1        2.651   0.000   0.778  0.00  0.00    -0.198 N 
ATOM      3  S   LIG    1        3.123   1.549   0.217  0.00  0.00    +0.076 S 
ATOM      4  O   LIG    1        2.812   2.554   1.201  0.00  0.00    -0.150 OA
ATOM      5  O   LIG    1        2.750   1.667  -1.177  0.00  0.00    -0.150 OA
ATOM      6  C   LIG    1        4.834   1.483   0.176  0.00  0.00    +0.128 A 
ATOM      7  C   LIG    1        5.416   0.241   0.035  0.00  0.00    +0.084 A 
ATOM      8  S   LIG    1        7.128   0.414   0.022  0.00  0.00    -0.072 S 
ATOM      9  C   LIG    1        7.021   2.105   0.129  0.00  0.00    +0.081 A 
ATOM     10 CL   LIG    1        8.451   3.055   0.110  0.00  0.00    -0.076 Cl
ATOM     11  C   LIG    1        4.709  -0.993  -0.137  0.00  0.00    +0.160 C 
ATOM     12  C   LIG    1        5.736   2.574   0.217  0.00  0.00    +0.057 A 
ATOM     13  C   LIG    1        3.380  -1.087   0.122  0.00  0.00    +0.155 C 
ENDROOT
BRANCH  13  14
ATOM     14  C   LIG    1        2.615  -2.347  -0.191  0.00  0.00    +0.269 C 
ATOM     15  N   LIG    1        1.254  -2.176  -0.053  0.00  0.00    -0.265 N 
ATOM     16  H   LIG    1        0.937  -1.243   0.176  0.00  0.00    +0.157 HD
ATOM     17  O   LIG    1        3.226  -3.341  -0.571  0.00  0.00    -0.268 OA
BRANCH  15  18
ATOM     18  C   LIG    1        0.281  -3.143  -0.327  0.00  0.00    +0.125 A 
ATOM     19  N   LIG    1        0.638  -4.414  -0.573  0.00  0.00    -0.240 NA
ATOM     20  C   LIG    1       -0.337  -5.298  -0.879  0.00  0.00    +0.113 A 
ATOM     21  C   LIG    1       -1.678  -4.970  -0.954  0.00  0.00    +0.020 A 
ATOM     22  C   LIG    1       -2.040  -3.659  -0.677  0.00  0.00    +0.005 A 
ATOM     23  C   LIG    1       -1.050  -2.733  -0.346  0.00  0.00    +0.044 A 
ENDBRANCH  15  18
ENDBRANCH  13  14
BRANCH  11  24
ATOM     24  O   LIG    1        5.470  -2.017  -0.668  0.00  0.00    -0.504 OA
ATOM     25  H   LIG    1        4.893  -2.805  -0.801  0.00  0.00    +0.292 HD
ENDBRANCH  11  24
TORSDOF 3
