REMARK  Name = *****
REMARK                            x       y       z     vdW  Elec       q    Type
REMARK                         _______ _______ _______ _____ _____    ______ ____
ROOT
ATOM      1  C   LIG    1        2.876  -1.012   2.742  0.00  0.00    +0.158 C 
ATOM      2  N   LIG    1        2.675  -0.745   1.292  0.00  0.00    -0.198 N 
ATOM      3  S   LIG    1        3.040  -2.067   0.269  0.00  0.00    +0.075 S 
ATOM      4  O   LIG    1        2.624  -3.276   0.952  0.00  0.00    -0.150 OA
ATOM      5  O   LIG    1        2.575  -1.752  -1.063  0.00  0.00    -0.150 OA
ATOM      6  C   LIG    1        4.798  -2.016   0.259  0.00  0.00    +0.119 A 
ATOM      7  C   LIG    1        5.404  -0.759   0.365  0.00  0.00    +0.045 A 
ATOM      8  C   LIG    1        6.804  -0.719   0.369  0.00  0.00    +0.013 A 
ATOM      9  C   LIG    1        7.557  -1.898   0.299  0.00  0.00    +0.001 A 
ATOM     10  C   LIG    1        6.922  -3.138   0.219  0.00  0.00    +0.002 A 
ATOM     11  C   LIG    1        4.587   0.474   0.437  0.00  0.00    +0.153 C 
ATOM     12  C   LIG    1        5.532  -3.204   0.201  0.00  0.00    +0.029 A 
ATOM     13  C   LIG    1        3.291   0.478   0.817  0.00  0.00    +0.155 C 
ENDROOT
BRANCH  13  14
ATOM     14  C   LIG    1        2.462   1.731   0.827  0.00  0.00    +0.269 C 
ATOM     15  N   LIG    1        1.117   1.446   0.880  0.00  0.00    -0.265 N 
ATOM     16  H   LIG    1        0.868   0.465   0.888  0.00  0.00    +0.157 HD
ATOM     17  O   LIG    1        3.019   2.822   0.769  0.00  0.00    -0.268 OA
BRANCH  15  18
ATOM     18  C   LIG    1        0.078   2.378   0.882  0.00  0.00    +0.125 A 
ATOM     19  N   LIG    1        0.339   3.696   0.849  0.00  0.00    -0.240 NA
ATOM     20  C   LIG    1       -0.710   4.548   0.858  0.00  0.00    +0.113 A 
ATOM     21  C   LIG    1       -2.031   4.142   0.911  0.00  0.00    +0.020 A 
ATOM     22  C   LIG    1       -2.290   2.779   0.950  0.00  0.00    +0.005 A 
ATOM     23  C   LIG    1       -1.223   1.883   0.928  0.00  0.00    +0.044 A 
ENDBRANCH  15  18
ENDBRANCH  13  14
BRANCH  11  24
ATOM     24  O   LIG    1        5.267   1.622   0.060  0.00  0.00    -0.504 OA
ATOM     25  H   LIG    1        4.662   2.395   0.159  0.00  0.00    +0.292 HD
ENDBRANCH  11  24
TORSDOF 3
