REMARK  Name = *****
REMARK                            x       y       z     vdW  Elec       q    Type
REMARK                         _______ _______ _______ _____ _____    ______ ____
ROOT
ATOM      1  C   LIG    1        4.973   0.599   2.764  0.00  0.00    +0.181 C 
ATOM      2  O   LIG    1        3.760   0.706   3.531  0.00  0.00    -0.340 OA
ATOM      3  C   LIG    1        4.130   0.282   4.856  0.00  0.00    +0.171 C 
ATOM      4  C   LIG    1        3.095  -0.736   5.345  0.00  0.00    +0.065 C 
ATOM      5  C   LIG    1        3.331  -1.141   6.799  0.00  0.00    +0.005 C 
ATOM      6  C   LIG    1        3.391   0.077   7.717  0.00  0.00    +0.000 C 
ATOM      7  C   LIG    1        4.426   1.094   7.242  0.00  0.00    +0.005 C 
ATOM      8  C   LIG    1        4.191   1.498   5.787  0.00  0.00    +0.065 C 
ATOM      9  O   LIG    1        5.431  -0.331   4.817  0.00  0.00    -0.346 OA
ATOM     10  C   LIG    1        5.697  -0.544   3.431  0.00  0.00    +0.198 C 
ENDROOT
BRANCH   1  11
ATOM     11  C   LIG    1        4.692   0.378   1.279  0.00  0.00    +0.229 C 
BRANCH  11  12
ATOM     12  N   LIG    1        3.829  -0.787   1.085  0.00  0.00    -0.274 N 
ATOM     13  H   LIG    1        3.046  -0.764   1.734  0.00  0.00    +0.258 HD
BRANCH  12  16
ATOM     14  N   LIG    1        4.101  -0.860  -1.234  0.00  0.00    -0.130 NA
ATOM     15  H   LIG    1        3.623  -1.260  -2.039  0.00  0.00    +0.306 HD
ATOM     16  C   LIG    1        3.476  -1.180  -0.158  0.00  0.00    +0.376 C 
BRANCH  16  17
ATOM     17  N   LIG    1        2.375  -1.952  -0.139  0.00  0.00    -0.289 N 
ATOM     18  H   LIG    1        2.325  -2.571   0.662  0.00  0.00    +0.255 HD
ATOM     19  H   LIG    1        2.175  -2.446  -0.999  0.00  0.00    +0.255 HD
ENDBRANCH  16  17
ENDBRANCH  12  16
ENDBRANCH  11  12
ENDBRANCH   1  11
TORSDOF 4
