REMARK  Name = *****
REMARK                            x       y       z     vdW  Elec       q    Type
REMARK                         _______ _______ _______ _____ _____    ______ ____
ROOT
ATOM      1  C   LIG    1       -5.606   1.189  -1.329  0.00  0.00    +0.170 C 
ATOM      2  N   LIG    1       -6.007   0.028  -0.501  0.00  0.00    -0.233 N 
ATOM      3  C   LIG    1       -6.795   0.211   0.682  0.00  0.00    +0.269 C 
ATOM      4  O   LIG    1       -5.900   0.073   1.768  0.00  0.00    -0.298 OA
ATOM      5  C   LIG    1       -4.889  -0.877   1.397  0.00  0.00    +0.220 C 
ATOM      6  C   LIG    1       -7.559   1.545   0.682  0.00  0.00    +0.156 C 
ATOM      7  N   LIG    1       -6.708   2.670   0.328  0.00  0.00    -0.290 N 
ATOM      8  C   LIG    1       -7.055   3.868   1.063  0.00  0.00    +0.108 C 
ATOM      9  C   LIG    1       -8.363   3.495   1.757  0.00  0.00    +0.021 C 
ATOM     10  C   LIG    1       -8.213   1.989   1.988  0.00  0.00    +0.031 C 
ATOM     11  C   LIG    1       -4.987  -0.841  -0.141  0.00  0.00    +0.271 C 
ATOM     12  O   LIG    1       -4.308  -1.495  -0.932  0.00  0.00    -0.270 OA
ATOM     13  C   LIG    1       -5.687   2.561  -0.588  0.00  0.00    +0.237 C 
ATOM     14  O   LIG    1       -4.978   3.515  -0.899  0.00  0.00    -0.274 OA
ENDROOT
BRANCH   5  15
ATOM     15  N   LIG    1       -5.246  -2.205   1.841  0.00  0.00    -0.280 N 
ATOM     16  H   LIG    1       -5.153  -2.929   1.141  0.00  0.00    +0.152 HD
ATOM     17  C   LIG    1       -5.647  -2.534   3.112  0.00  0.00    +0.220 C 
ATOM     18  O   LIG    1       -5.750  -1.706   4.012  0.00  0.00    -0.275 OA
BRANCH  17  19
ATOM     19  C   LIG    1       -5.863  -4.034   3.333  0.00  0.00    +0.090 C 
ATOM     20  C   LIG    1       -6.604  -4.292   4.657  0.00  0.00    +0.097 C 
ATOM     21  N   LIG    1       -8.064  -4.158   4.539  0.00  0.00    -0.301 NA
ATOM     22  C   LIG    1       -8.687  -4.252   5.854  0.00  0.00    +0.105 C 
ATOM     23  C   LIG    1       -8.684  -4.981   3.459  0.00  0.00    +0.068 C 
ATOM     24  C   LIG    1       -7.623  -5.712   2.525  0.00  0.00    +0.038 C 
ATOM     25  C   LIG    1       -7.131  -7.012   3.135  0.00  0.00    -0.033 C 
ATOM     26  C   LIG    1       -8.027  -7.668   3.991  0.00  0.00    +0.006 C 
ATOM     27  C   LIG    1       -7.729  -8.860   4.618  0.00  0.00    +0.047 C 
ATOM     28  N   LIG    1       -8.837  -9.175   5.374  0.00  0.00    -0.360 NA
ATOM     29  H   LIG    1       -8.921 -10.000   5.952  0.00  0.00    +0.165 HD
ATOM     30  C   LIG    1       -9.808  -8.204   5.236  0.00  0.00    +0.087 C 
ATOM     31  C   LIG    1       -6.502  -9.493   4.422  0.00  0.00    +0.026 C 
ATOM     32  C   LIG    1       -5.599  -8.861   3.550  0.00  0.00    +0.002 C 
ATOM     33  C   LIG    1       -9.316  -7.247   4.380  0.00  0.00    -0.021 C 
ATOM     34  C   LIG    1       -5.905  -7.649   2.910  0.00  0.00    +0.005 C 
ATOM     35  C   LIG    1       -9.855  -5.965   3.847  0.00  0.00    +0.056 C 
ATOM     36  C   LIG    1       -6.545  -4.707   2.132  0.00  0.00    +0.023 C 
ENDBRANCH  17  19
ENDBRANCH   5  15
BRANCH   5  37
ATOM     37  C   LIG    1       -3.485  -0.396   1.857  0.00  0.00    +0.043 C 
ATOM     38  C   LIG    1       -3.384  -0.100   3.358  0.00  0.00    +0.012 C 
ATOM     39  C   LIG    1       -2.360  -1.371   1.478  0.00  0.00    +0.012 C 
ENDBRANCH   5  37
BRANCH   1  40
ATOM     40  C   LIG    1       -6.306   1.276  -2.720  0.00  0.00    +0.015 C 
ATOM     41  C   LIG    1       -7.752   1.773  -2.669  0.00  0.00    +0.010 C 
BRANCH  40  43
ATOM     42  C   LIG    1       -6.716   0.059  -4.942  0.00  0.00    +0.004 C 
ATOM     43  C   LIG    1       -6.233  -0.055  -3.498  0.00  0.00    +0.002 C 
ENDBRANCH  40  43
ENDBRANCH   1  40
BRANCH   3  44
ATOM     44  O   LIG    1       -7.723  -0.858   0.721  0.00  0.00    -0.348 OA
ATOM     45  H   LIG    1       -8.079  -0.838   1.626  0.00  0.00    +0.214 HD
ENDBRANCH   3  44
TORSDOF 6
