REMARK  Name = *****
REMARK                            x       y       z     vdW  Elec       q    Type
REMARK                         _______ _______ _______ _____ _____    ______ ____
ROOT
ATOM      1  C   LIG    1        4.455   1.259  -0.999  0.00  0.00    +0.056 C 
ATOM      2  C   LIG    1        4.798   0.828  -2.456  0.00  0.00    +0.034 C 
ATOM      3  C   LIG    1        4.385   1.865  -3.513  0.00  0.00    +0.085 C 
ATOM      4  N   LIG    1        4.888   3.217  -3.261  0.00  0.00    -0.305 NA
ATOM      5  C   LIG    1        6.310   3.348  -3.567  0.00  0.00    +0.105 C 
ATOM      6  C   LIG    1        4.540   3.669  -1.916  0.00  0.00    +0.085 C 
ATOM      7  C   LIG    1        4.979   2.707  -0.812  0.00  0.00    +0.034 C 
ENDROOT
BRANCH   1   8
ATOM      8  C   LIG    1        5.113   0.262  -0.009  0.00  0.00    -0.030 A 
ATOM      9  C   LIG    1        4.810  -1.111  -0.089  0.00  0.00    +0.050 A 
ATOM     10  C   LIG    1        5.393  -2.024   0.789  0.00  0.00    +0.117 A 
ATOM     11  C   LIG    1        6.273  -1.607   1.778  0.00  0.00    +0.045 A 
ATOM     12  C   LIG    1        6.570  -0.253   1.890  0.00  0.00    +0.004 A 
ATOM     13  C   LIG    1        5.996   0.670   1.010  0.00  0.00    +0.005 A 
BRANCH  10  14
ATOM     14  O   LIG    1        5.071  -3.341   0.641  0.00  0.00    -0.507 OA
ATOM     15  H   LIG    1        5.595  -3.860   1.273  0.00  0.00    +0.292 HD
ENDBRANCH  10  14
ENDBRANCH   1   8
BRANCH   1  16
ATOM     16  C   LIG    1        2.910   1.209  -0.788  0.00  0.00    +0.144 C 
ATOM     17  O   LIG    1        2.139   0.895  -1.705  0.00  0.00    -0.296 OA
BRANCH  16  19
ATOM     18  C   LIG    1        1.037   0.855   0.858  0.00  0.00    +0.012 C 
ATOM     19  C   LIG    1        2.347   1.579   0.578  0.00  0.00    +0.072 C 
ENDBRANCH  16  19
ENDBRANCH   1  16
TORSDOF 4
