REMARK  Name = *****
REMARK                            x       y       z     vdW  Elec       q    Type
REMARK                         _______ _______ _______ _____ _____    ______ ____
ROOT
ATOM      1  C   LIG    1        4.453  -0.314   1.745  0.00  0.00    +0.065 C 
ENDROOT
BRANCH   1   2
ATOM      2  C   LIG    1        4.825  -1.288   2.958  0.00  0.00    +0.074 C 
ATOM      3  C   LIG    1        4.080  -2.645   2.958  0.00  0.00    +0.035 C 
ATOM      4  C   LIG    1        4.559  -3.616   1.885  0.00  0.00    +0.003 C 
ATOM      5  C   LIG    1        6.055  -3.878   2.017  0.00  0.00    +0.000 C 
ATOM      6  C   LIG    1        6.844  -2.574   1.986  0.00  0.00    +0.003 C 
ATOM      7  C   LIG    1        6.347  -1.602   3.055  0.00  0.00    +0.035 C 
BRANCH   2   8
ATOM      8  O   LIG    1        4.417  -0.670   4.196  0.00  0.00    -0.388 OA
ATOM      9  H   LIG    1        5.202  -0.249   4.590  0.00  0.00    +0.210 HD
ENDBRANCH   2   8
ENDBRANCH   1   2
BRANCH   1  10
ATOM     10  C   LIG    1        5.281   0.978   1.842  0.00  0.00    -0.040 A 
ATOM     11  C   LIG    1        6.323   1.225   0.935  0.00  0.00    +0.007 A 
ATOM     12  C   LIG    1        7.127   2.361   1.061  0.00  0.00    +0.045 A 
ATOM     13  C   LIG    1        6.887   3.266   2.094  0.00  0.00    +0.117 A 
ATOM     14  C   LIG    1        5.844   3.063   2.982  0.00  0.00    +0.045 A 
ATOM     15  C   LIG    1        5.044   1.927   2.857  0.00  0.00    +0.007 A 
BRANCH  13  16
ATOM     16  O   LIG    1        7.712   4.346   2.199  0.00  0.00    -0.507 OA
ATOM     17  H   LIG    1        7.451   4.857   2.984  0.00  0.00    +0.292 HD
ENDBRANCH  13  16
ENDBRANCH   1  10
BRANCH   1  18
ATOM     18  C   LIG    1        2.907  -0.022   1.659  0.00  0.00    +0.094 C 
BRANCH  18  20
ATOM     19  C   LIG    1        0.873   0.754   0.619  0.00  0.00    +0.104 C 
ATOM     20  N   LIG    1        2.330   0.624   0.447  0.00  0.00    -0.308 NA
ATOM     21  C   LIG    1        2.870   1.949   0.146  0.00  0.00    +0.104 C 
ENDBRANCH  18  20
ENDBRANCH   1  18
TORSDOF 6
