REMARK  Name = *****
REMARK                            x       y       z     vdW  Elec       q    Type
REMARK                         _______ _______ _______ _____ _____    ______ ____
ROOT
ATOM      1  C   LIG    1        4.189  -1.005   4.601  0.00  0.00    +0.011 C 
ATOM      2  C   LIG    1        4.496  -2.496   4.144  0.00  0.00    +0.013 C 
ATOM      3  C   LIG    1        5.829  -2.065   3.540  0.00  0.00    +0.002 C 
ATOM      4  C   LIG    1        5.715  -0.722   4.253  0.00  0.00    +0.013 C 
ENDROOT
BRANCH   1   5
ATOM      5  C   LIG    1        3.901  -0.808   6.219  0.00  0.00    -0.040 A 
ATOM      6  C   LIG    1        4.026   0.449   6.860  0.00  0.00    +0.006 A 
ATOM      7  C   LIG    1        3.698   0.646   8.205  0.00  0.00    +0.020 A 
ATOM      8  C   LIG    1        3.340  -0.430   8.989  0.00  0.00    +0.041 A 
ATOM      9 CL   LIG    1        2.973  -0.204  10.653  0.00  0.00    -0.084 Cl
ATOM     10  C   LIG    1        3.294  -1.708   8.435  0.00  0.00    +0.020 A 
ATOM     11  C   LIG    1        3.556  -1.877   7.069  0.00  0.00    +0.006 A 
ENDBRANCH   1   5
BRANCH   1  12
ATOM     12  C   LIG    1        3.161  -0.222   3.654  0.00  0.00    +0.067 C 
BRANCH  12  13
ATOM     13  N   LIG    1        1.723  -0.564   3.759  0.00  0.00    -0.305 NA
ATOM     14  C   LIG    1        1.316  -1.810   3.130  0.00  0.00    +0.105 C 
ATOM     15  C   LIG    1        1.060  -0.380   5.042  0.00  0.00    +0.105 C 
ENDBRANCH  12  13
BRANCH  12  16
ATOM     16  C   LIG    1        3.355   1.322   3.776  0.00  0.00    +0.022 C 
BRANCH  16  18
ATOM     17  C   LIG    1        2.878   3.727   3.300  0.00  0.00    +0.007 C 
ATOM     18  C   LIG    1        2.478   2.283   2.946  0.00  0.00    -0.016 C 
ATOM     19  C   LIG    1        2.589   2.080   1.441  0.00  0.00    +0.007 C 
ENDBRANCH  16  18
ENDBRANCH  12  16
ENDBRANCH   1  12
TORSDOF 5
