REMARK  Name = *****
REMARK                            x       y       z     vdW  Elec       q    Type
REMARK                         _______ _______ _______ _____ _____    ______ ____
ROOT
ATOM      1  O   LIG    1        2.538  -0.231   1.939  0.00  0.00    -0.270 OA
ATOM      2  C   LIG    1        3.152  -0.122   0.882  0.00  0.00    +0.247 C 
ATOM      3  N   LIG    1        3.354   1.101   0.231  0.00  0.00    -0.292 N 
ATOM      4  C   LIG    1        4.016   1.137  -1.074  0.00  0.00    +0.116 C 
ATOM      5  C   LIG    1        5.179   0.144  -1.148  0.00  0.00    +0.037 C 
ATOM      6  C   LIG    1        5.848   0.173  -2.527  0.00  0.00    +0.010 C 
ATOM      7  C   LIG    1        6.880  -0.946  -2.627  0.00  0.00    +0.005 C 
ATOM      8  C   LIG    1        6.209  -2.314  -2.502  0.00  0.00    +0.035 C 
ATOM      9  C   LIG    1        5.209  -2.391  -1.374  0.00  0.00    -0.043 A 
ATOM     10  C   LIG    1        4.742  -3.647  -0.958  0.00  0.00    +0.004 A 
ATOM     11  C   LIG    1        3.788  -3.753   0.054  0.00  0.00    +0.001 A 
ATOM     12  C   LIG    1        3.277  -2.603   0.654  0.00  0.00    +0.013 A 
ATOM     13  C   LIG    1        4.683  -1.231  -0.777  0.00  0.00    -0.028 A 
ATOM     14  C   LIG    1        3.717  -1.343   0.237  0.00  0.00    +0.041 A 
ENDROOT
BRANCH   3  15
ATOM     15  C   LIG    1        2.753   2.312   0.821  0.00  0.00    +0.093 C 
ATOM     16  C   LIG    1        3.713   3.009   1.821  0.00  0.00    +0.013 C 
ATOM     17  C   LIG    1        2.880   4.050   2.594  0.00  0.00    +0.021 C 
ATOM     18  C   LIG    1        2.233   5.028   1.599  0.00  0.00    +0.085 C 
ATOM     19  N   LIG    1        2.644   4.755   0.202  0.00  0.00    -0.300 NA
ATOM     20  C   LIG    1        4.119   4.815   0.121  0.00  0.00    +0.085 C 
ATOM     21  C   LIG    1        4.790   3.796   1.058  0.00  0.00    +0.021 C 
ATOM     22  C   LIG    1        2.206   3.383  -0.165  0.00  0.00    +0.107 C 
ENDBRANCH   3  15
TORSDOF 1
