REMARK  Name = *****
REMARK                            x       y       z     vdW  Elec       q    Type
REMARK                         _______ _______ _______ _____ _____    ______ ____
ROOT
ATOM      1  S   LIG    1        5.240   2.975  -0.368  0.00  0.00    +0.061 S 
ATOM      2  O   LIG    1        6.624   2.634  -0.574  0.00  0.00    -0.153 OA
ATOM      3  O   LIG    1        4.774   3.472   0.921  0.00  0.00    -0.153 OA
ENDROOT
BRANCH   1   4
ATOM      4  C   LIG    1        4.811   4.241  -1.559  0.00  0.00    +0.105 A 
ATOM      5  C   LIG    1        3.744   5.113  -1.294  0.00  0.00    +0.029 A 
ATOM      6  C   LIG    1        3.393   6.084  -2.238  0.00  0.00    +0.017 A 
ATOM      7  C   LIG    1        4.132   6.216  -3.421  0.00  0.00    +0.059 A 
ATOM      8  C   LIG    1        5.228   5.369  -3.655  0.00  0.00    +0.017 A 
ATOM      9  C   LIG    1        5.571   4.387  -2.720  0.00  0.00    +0.029 A 
BRANCH   7  10
ATOM     10  C   LIG    1        3.735   7.178  -4.480  0.00  0.00    +0.337 C 
ATOM     11  O   LIG    1        3.940   6.970  -5.669  0.00  0.00    -0.245 OA
BRANCH  10  12
ATOM     12  O   LIG    1        3.138   8.298  -4.027  0.00  0.00    -0.477 OA
ATOM     13  H   LIG    1        3.156   8.428  -3.060  0.00  0.00    +0.295 HD
ENDBRANCH  10  12
ENDBRANCH   7  10
ENDBRANCH   1   4
BRANCH   1  14
ATOM     14  N   LIG    1        4.254   1.687  -0.820  0.00  0.00    -0.177 NA
BRANCH  14  15
ATOM     15  C   LIG    1        2.818   1.667  -0.440  0.00  0.00    +0.109 C 
BRANCH  15  17
ATOM     16  C   LIG    1        0.414   1.594  -1.291  0.00  0.00    +0.005 C 
ATOM     17  C   LIG    1        1.893   1.630  -1.659  0.00  0.00    +0.014 C 
ENDBRANCH  15  17
ENDBRANCH  14  15
BRANCH  14  18
ATOM     18  C   LIG    1        4.790   0.614  -1.679  0.00  0.00    +0.109 C 
BRANCH  18  19
ATOM     19  C   LIG    1        4.816  -0.713  -0.916  0.00  0.00    +0.014 C 
ATOM     20  C   LIG    1        5.393  -1.849  -1.749  0.00  0.00    +0.005 C 
ENDBRANCH  18  19
ENDBRANCH  14  18
ENDBRANCH   1  14
TORSDOF 8
