REMARK  Name = *****
REMARK                            x       y       z     vdW  Elec       q    Type
REMARK                         _______ _______ _______ _____ _____    ______ ____
ROOT
ATOM      1  C   LIG    1        4.143   3.808  -7.419  0.00  0.00    +0.190 C 
ENDROOT
BRANCH   1   2
ATOM      2  C   LIG    1        4.233   4.462  -8.852  0.00  0.00    +0.036 C 
ATOM      3  C   LIG    1        4.899   3.595  -9.955  0.00  0.00    +0.007 C 
ATOM      4  C   LIG    1        4.018   2.543 -10.639  0.00  0.00    +0.000 C 
ATOM      5  C   LIG    1        2.598   2.995 -10.966  0.00  0.00    +0.000 C 
ATOM      6  C   LIG    1        1.959   3.831  -9.870  0.00  0.00    +0.000 C 
ATOM      7  C   LIG    1        2.888   4.959  -9.430  0.00  0.00    +0.007 C 
ENDBRANCH   1   2
BRANCH   1   8
ATOM      8  C   LIG    1        3.481   4.744  -6.371  0.00  0.00    -0.005 A 
ATOM      9  C   LIG    1        2.077   4.810  -6.278  0.00  0.00    +0.007 A 
ATOM     10  C   LIG    1        1.437   5.751  -5.467  0.00  0.00    +0.000 A 
ATOM     11  C   LIG    1        2.186   6.601  -4.664  0.00  0.00    +0.000 A 
ATOM     12  C   LIG    1        3.573   6.490  -4.654  0.00  0.00    +0.000 A 
ATOM     13  C   LIG    1        4.218   5.584  -5.511  0.00  0.00    +0.007 A 
ENDBRANCH   1   8
BRANCH   1  14
ATOM     14  C   LIG    1        5.548   3.368  -6.906  0.00  0.00    +0.345 C 
ATOM     15  O   LIG    1        6.608   3.941  -7.119  0.00  0.00    -0.247 OA
BRANCH  14  16
ATOM     16  O   LIG    1        5.383   2.297  -6.061  0.00  0.00    -0.450 OA
BRANCH  16  17
ATOM     17  C   LIG    1        6.564   1.838  -5.400  0.00  0.00    +0.321 C 
BRANCH  17  19
ATOM     18  C   LIG    1        7.957   0.341  -7.093  0.00  0.00    -0.083 C 
ATOM     19  C   LIG    1        7.345   0.985  -6.299  0.00  0.00    -0.060 C 
BRANCH  18  20
ATOM     20  C   LIG    1        8.693  -0.414  -8.123  0.00  0.00    +0.174 C 
BRANCH  20  21
ATOM     21  N   LIG    1        8.040  -0.379  -9.450  0.00  0.00    -0.292 NA
BRANCH  21  23
ATOM     22  C   LIG    1       10.277  -0.667 -10.628  0.00  0.00    +0.020 C 
ATOM     23  C   LIG    1        8.834  -1.135 -10.441  0.00  0.00    +0.082 C 
ENDBRANCH  21  23
BRANCH  21  24
ATOM     24  C   LIG    1        6.655  -0.904  -9.373  0.00  0.00    +0.082 C 
ATOM     25  C   LIG    1        5.850  -0.771 -10.665  0.00  0.00    +0.020 C 
ENDBRANCH  21  24
ENDBRANCH  20  21
ENDBRANCH  18  20
ENDBRANCH  17  19
ENDBRANCH  16  17
ENDBRANCH  14  16
ENDBRANCH   1  14
BRANCH   1  26
ATOM     26  O   LIG    1        3.353   2.608  -7.501  0.00  0.00    -0.373 OA
ATOM     27  H   LIG    1        3.441   2.186  -6.625  0.00  0.00    +0.211 HD
ENDBRANCH   1  26
TORSDOF 11
