REMARK  Name = *****
REMARK                            x       y       z     vdW  Elec       q    Type
REMARK                         _______ _______ _______ _____ _____    ______ ____
ROOT
ATOM      1  N   LIG    1        8.755  -0.520   1.472  0.00  0.00    -0.268 N 
ATOM      2  C   LIG    1        9.468   0.728   1.740  0.00  0.00    +0.112 C 
ATOM      3  C   LIG    1        9.634   1.023   3.241  0.00  0.00    +0.042 C 
ATOM      4  C   LIG    1        9.001   1.940   0.931  0.00  0.00    +0.042 C 
ATOM      5  C   LIG    1       10.869   0.357   1.250  0.00  0.00    +0.249 C 
ATOM      6  O   LIG    1       11.759   1.191   1.110  0.00  0.00    -0.273 OA
ATOM      7  N   LIG    1       10.956  -1.011   1.085  0.00  0.00    -0.220 N 
ATOM      8  C   LIG    1        9.698  -1.589   1.308  0.00  0.00    +0.151 C 
ATOM      9  S   LIG    1        9.365  -3.220   1.556  0.00  0.00    -0.017 S 
ENDROOT
BRANCH   1  14
ATOM     10  C   LIG    1        4.480  -0.926   1.586  0.00  0.00    +0.072 A 
ATOM     11  C   LIG    1        5.270  -1.767   0.809  0.00  0.00    +0.137 A 
ATOM     12  F   LIG    1        4.724  -2.752   0.079  0.00  0.00    -0.205 F 
ATOM     13  C   LIG    1        6.659  -1.616   0.754  0.00  0.00    +0.062 A 
ATOM     14  C   LIG    1        7.323  -0.636   1.504  0.00  0.00    +0.039 A 
ATOM     15  C   LIG    1        6.516   0.236   2.247  0.00  0.00    +0.024 A 
ATOM     16  C   LIG    1        5.119   0.091   2.299  0.00  0.00    +0.018 A 
BRANCH  10  20
ATOM     17  C   LIG    1        0.982  -2.270   0.975  0.00  0.00    +0.128 C 
ATOM     18  N   LIG    1        2.405  -2.059   0.955  0.00  0.00    -0.314 N 
ATOM     19  H   LIG    1        2.977  -2.684   0.398  0.00  0.00    +0.149 HD
ATOM     20  C   LIG    1        2.998  -1.050   1.678  0.00  0.00    +0.247 C 
ATOM     21  O   LIG    1        2.360  -0.267   2.376  0.00  0.00    -0.270 OA
ENDBRANCH  10  20
ENDBRANCH   1  14
BRANCH   7  22
ATOM     22  C   LIG    1       12.192  -1.665   0.756  0.00  0.00    +0.044 A 
ATOM     23  C   LIG    1       12.237  -2.880   0.059  0.00  0.00    +0.037 A 
ATOM     24  C   LIG    1       13.447  -3.562  -0.228  0.00  0.00    +0.074 A 
ATOM     25  C   LIG    1       14.652  -2.976   0.146  0.00  0.00    +0.064 A 
ATOM     26  C   LIG    1       14.639  -1.737   0.806  0.00  0.00    +0.021 A 
ATOM     27  C   LIG    1       13.428  -1.102   1.105  0.00  0.00    +0.025 A 
BRANCH  24  28
ATOM     28  C   LIG    1       13.335  -4.894  -0.930  0.00  0.00    +0.419 C 
ATOM     29  F   LIG    1       12.698  -4.777  -2.128  0.00  0.00    -0.166 F 
ATOM     30  F   LIG    1       12.599  -5.784  -0.207  0.00  0.00    -0.166 F 
ATOM     31  F   LIG    1       14.510  -5.515  -1.193  0.00  0.00    -0.166 F 
ENDBRANCH  24  28
BRANCH  25  32
ATOM     32  C   LIG    1       15.926  -3.573  -0.102  0.00  0.00    +0.100 C 
ATOM     33  N   LIG    1       16.981  -4.032  -0.293  0.00  0.00    -0.191 NA
ENDBRANCH  25  32
ENDBRANCH   7  22
TORSDOF 5
