REMARK  Name = *****
REMARK                            x       y       z     vdW  Elec       q    Type
REMARK                         _______ _______ _______ _____ _____    ______ ____
ROOT
ATOM      1  C   LIG    1        7.367  -1.666  -0.072  0.00  0.00    +0.255 A 
ATOM      2  N   LIG    1        7.387  -3.020  -0.018  0.00  0.00    -0.194 NA
ATOM      3  C   LIG    1        8.580  -3.653   0.049  0.00  0.00    +0.149 A 
ATOM      4  C   LIG    1        9.761  -2.889   0.037  0.00  0.00    +0.147 A 
ATOM      5  N   LIG    1       11.097  -3.229   0.056  0.00  0.00    -0.231 NA
ATOM      6  C   LIG    1       11.739  -2.077   0.022  0.00  0.00    +0.203 A 
ATOM      7  N   LIG    1       10.879  -1.005  -0.014  0.00  0.00    -0.285 N 
ATOM      8  C   LIG    1        9.608  -1.516  -0.023  0.00  0.00    +0.170 A 
ATOM      9  N   LIG    1        8.448  -0.848  -0.083  0.00  0.00    -0.191 NA
ENDROOT
BRANCH   1  12
ATOM     10  C   LIG    1        3.905  -0.618  -0.405  0.00  0.00    +0.075 A 
ATOM     11  C   LIG    1        4.844  -1.613  -0.200  0.00  0.00    +0.130 A 
ATOM     12  N   LIG    1        6.086  -1.019  -0.177  0.00  0.00    -0.205 N 
ATOM     13  N   LIG    1        5.984   0.336  -0.303  0.00  0.00    -0.172 NA
ATOM     14  C   LIG    1        4.682   0.556  -0.472  0.00  0.00    +0.148 A 
BRANCH  10  18
ATOM     15  C   LIG    1        0.324   0.340  -0.910  0.00  0.00    +0.128 C 
ATOM     16  N   LIG    1        1.756   0.351  -0.767  0.00  0.00    -0.314 N 
ATOM     17  H   LIG    1        2.225   1.244  -0.811  0.00  0.00    +0.149 HD
ATOM     18  C   LIG    1        2.469  -0.799  -0.525  0.00  0.00    +0.247 C 
ATOM     19  O   LIG    1        1.937  -1.906  -0.419  0.00  0.00    -0.270 OA
ENDBRANCH  10  18
ENDBRANCH   1  12
BRANCH   7  20
ATOM     20  C1* LIG    1       11.293   0.392  -0.031  0.00  0.00    +0.253 C 
ATOM     21  C2* LIG    1       11.471   0.974  -1.433  0.00  0.00    +0.195 C 
ATOM     22  C3* LIG    1       11.111   2.437  -1.225  0.00  0.00    +0.178 C 
ATOM     23  C4* LIG    1       10.080   2.407  -0.101  0.00  0.00    +0.177 C 
ATOM     24  O4* LIG    1       10.331   1.209   0.671  0.00  0.00    -0.346 OA
BRANCH  21  25
ATOM     25  O2* LIG    1       12.818   0.853  -1.907  0.00  0.00    -0.385 OA
ATOM     26  H2* LIG    1       13.271   1.666  -1.592  0.00  0.00    +0.210 HD
ENDBRANCH  21  25
BRANCH  22  27
ATOM     27  O3* LIG    1       12.300   3.127  -0.789  0.00  0.00    -0.386 OA
ATOM     28  H3* LIG    1       12.069   4.074  -0.725  0.00  0.00    +0.210 HD
ENDBRANCH  22  27
BRANCH  23  29
ATOM     29  C5* LIG    1        8.647   2.416  -0.631  0.00  0.00    +0.190 C 
BRANCH  29  30
ATOM     30  O5* LIG    1        8.460   1.369  -1.570  0.00  0.00    -0.392 OA
ATOM     31  H5* LIG    1        8.198   0.599  -1.016  0.00  0.00    +0.209 HD
ENDBRANCH  29  30
ENDBRANCH  23  29
ENDBRANCH   7  20
BRANCH   3  32
ATOM     32  N   LIG    1        8.563  -5.040   0.099  0.00  0.00    -0.341 N 
ATOM     33  H   LIG    1        7.701  -5.423  -0.267  0.00  0.00    +0.144 HD
ATOM     34  H   LIG    1        9.432  -5.464  -0.209  0.00  0.00    +0.144 HD
ENDBRANCH   3  32
TORSDOF 8
