REMARK  Name = *****
REMARK                            x       y       z     vdW  Elec       q    Type
REMARK                         _______ _______ _______ _____ _____    ______ ____
ROOT
ATOM      1  C   LIG    1        4.865   3.059   0.519  0.00  0.00    +0.059 A 
ATOM      2  C   LIG    1        6.235   3.343   0.556  0.00  0.00    +0.017 A 
ATOM      3  C   LIG    1        6.677   4.670   0.558  0.00  0.00    +0.023 A 
ATOM      4  C   LIG    1        5.766   5.727   0.474  0.00  0.00    +0.025 A 
ATOM      5  C   LIG    1        4.400   5.439   0.483  0.00  0.00    +0.023 A 
ATOM      6  C   LIG    1        3.949   4.117   0.483  0.00  0.00    +0.017 A 
ENDROOT
BRANCH   4   7
ATOM      7  N   LIG    1        6.203   7.048   0.618  0.00  0.00    -0.358 N 
ATOM      8  H   LIG    1        7.154   7.205   0.299  0.00  0.00    +0.142 HD
ATOM      9  H   LIG    1        5.555   7.737   0.247  0.00  0.00    +0.142 HD
ENDBRANCH   4   7
BRANCH   1  10
ATOM     10  C   LIG    1        4.429   1.638   0.556  0.00  0.00    +0.339 C 
ATOM     11  O   LIG    1        5.197   0.688   0.569  0.00  0.00    -0.245 OA
BRANCH  10  12
ATOM     12  O   LIG    1        3.075   1.573   0.578  0.00  0.00    -0.461 OA
BRANCH  12  14
ATOM     13  C   LIG    1        2.397  -0.316  -0.768  0.00  0.00    +0.048 C 
ATOM     14  C   LIG    1        2.503   0.260   0.630  0.00  0.00    +0.229 C 
ENDBRANCH  12  14
ENDBRANCH  10  12
ENDBRANCH   1  10
TORSDOF 4
