REMARK  Name = *****
REMARK                            x       y       z     vdW  Elec       q    Type
REMARK                         _______ _______ _______ _____ _____    ______ ____
ROOT
ATOM      1  C   LIG    1        1.714   2.526   1.464  0.00  0.00    +0.027 C 
ATOM      2  C   LIG    1        2.139   1.144   0.944  0.00  0.00    +0.083 C 
ENDROOT
BRANCH   2   3
ATOM      3  N   LIG    1        1.195   0.090   1.433  0.00  0.00    -0.310 NA
ATOM      4  H   LIG    1        1.562  -0.815   1.126  0.00  0.00    +0.122 HD
BRANCH   3   5
ATOM      5  C   LIG    1       -0.170   0.253   0.921  0.00  0.00    +0.086 C 
BRANCH   5   6
ATOM      6  C   LIG    1       -1.177  -0.786   1.446  0.00  0.00    +0.050 C 
BRANCH   6   7
ATOM      7  C   LIG    1       -2.567  -0.493   0.904  0.00  0.00    -0.046 A 
ATOM      8  C   LIG    1       -3.226  -1.418   0.083  0.00  0.00    +0.007 A 
ATOM      9  C   LIG    1       -4.482  -1.117  -0.454  0.00  0.00    +0.045 A 
ATOM     10  C   LIG    1       -5.081   0.105  -0.173  0.00  0.00    +0.117 A 
ATOM     11  C   LIG    1       -4.453   1.032   0.647  0.00  0.00    +0.045 A 
ATOM     12  C   LIG    1       -3.204   0.726   1.193  0.00  0.00    +0.007 A 
BRANCH  10  13
ATOM     13  O   LIG    1       -6.299   0.363  -0.733  0.00  0.00    -0.507 OA
ATOM     14  H   LIG    1       -6.583   1.248  -0.457  0.00  0.00    +0.292 HD
ENDBRANCH  10  13
ENDBRANCH   6   7
ENDBRANCH   5   6
ENDBRANCH   3   5
ENDBRANCH   2   3
BRANCH   2  15
ATOM     15  C   LIG    1        2.389   1.154  -0.607  0.00  0.00    +0.161 C 
BRANCH  15  16
ATOM     16  C   LIG    1        3.374   2.216  -1.075  0.00  0.00    -0.018 A 
ATOM     17  C   LIG    1        4.729   2.179  -0.698  0.00  0.00    +0.010 A 
ATOM     18  C   LIG    1        5.587   3.226  -1.051  0.00  0.00    +0.046 A 
ATOM     19  C   LIG    1        5.112   4.296  -1.790  0.00  0.00    +0.117 A 
ATOM     20  C   LIG    1        3.788   4.333  -2.219  0.00  0.00    +0.046 A 
ATOM     21  C   LIG    1        2.927   3.291  -1.860  0.00  0.00    +0.010 A 
BRANCH  19  22
ATOM     22  O   LIG    1        5.976   5.314  -2.076  0.00  0.00    -0.507 OA
ATOM     23  H   LIG    1        5.488   6.026  -2.516  0.00  0.00    +0.292 HD
ENDBRANCH  19  22
ENDBRANCH  15  16
BRANCH  15  24
ATOM     24  O   LIG    1        2.845  -0.137  -1.031  0.00  0.00    -0.386 OA
ATOM     25  H   LIG    1        3.365  -0.002  -1.843  0.00  0.00    +0.210 HD
ENDBRANCH  15  24
ENDBRANCH   2  15
TORSDOF 9
