REMARK  Name = *****
REMARK                            x       y       z     vdW  Elec       q    Type
REMARK                         _______ _______ _______ _____ _____    ______ ____
ROOT
ATOM      1  C   LIG    1        4.682   0.849  -0.452  0.00  0.00    +0.251 C 
ATOM      2  C   LIG    1        5.318   2.143   0.111  0.00  0.00    +0.259 C 
ATOM      3  O   LIG    1        4.815   3.253   0.170  0.00  0.00    -0.272 OA
ATOM      4  N   LIG    1        6.551   1.824   0.598  0.00  0.00    -0.237 N 
ATOM      5  H   LIG    1        7.175   2.471   1.050  0.00  0.00    +0.159 HD
ATOM      6  C   LIG    1        6.744   0.486   0.563  0.00  0.00    +0.308 C 
ATOM      7  O   LIG    1        7.710  -0.113   1.004  0.00  0.00    -0.252 OA
ATOM      8  N   LIG    1        5.656  -0.105  -0.022  0.00  0.00    -0.273 N 
ATOM      9  H   LIG    1        5.610  -1.098  -0.196  0.00  0.00    +0.152 HD
ENDROOT
BRANCH   1  14
ATOM     10  N   LIG    1        1.155   0.619   0.146  0.00  0.00    -0.313 N 
ATOM     11  H   LIG    1        1.161  -0.211   0.721  0.00  0.00    +0.146 HD
ATOM     12  H   LIG    1        0.302   0.760  -0.384  0.00  0.00    +0.146 HD
ATOM     13  C   LIG    1        2.280   0.887  -0.563  0.00  0.00    +0.299 C 
ATOM     14  N   LIG    1        3.406   0.533   0.111  0.00  0.00    -0.274 N 
ATOM     15  H   LIG    1        3.331   0.603   1.114  0.00  0.00    +0.152 HD
ATOM     16  O   LIG    1        2.241   1.359  -1.687  0.00  0.00    -0.253 OA
ENDBRANCH   1  14
TORSDOF 1
