REMARK  Name = *****
REMARK                            x       y       z     vdW  Elec       q    Type
REMARK                         _______ _______ _______ _____ _____    ______ ____
ROOT
ATOM      1  C   LIG    1       -9.096   1.349   3.106  0.00  0.00    +0.183 C 
ATOM      2  C   LIG    1      -10.639   1.277   2.986  0.00  0.00    +0.008 C 
ATOM      3  C   LIG    1      -11.112   1.992   1.704  0.00  0.00    +0.015 C 
ATOM      4  C   LIG    1      -11.158   2.039   4.247  0.00  0.00    +0.002 C 
ATOM      5  C   LIG    1      -12.001   1.143   5.179  0.00  0.00    -0.003 C 
ATOM      6  C   LIG    1      -13.165   0.448   4.414  0.00  0.00    +0.002 C 
ATOM      7  C   LIG    1      -12.624  -0.341   3.188  0.00  0.00    +0.005 C 
ATOM      8  C   LIG    1      -14.473   1.355   4.198  0.00  0.00    -0.007 C 
ATOM      9  C   LIG    1      -15.670   0.619   4.852  0.00  0.00    +0.016 C 
ATOM     10  C   LIG    1      -14.312   2.709   4.891  0.00  0.00    -0.062 C 
ATOM     11  C   LIG    1      -14.656   3.886   4.341  0.00  0.00    +0.024 C 
ATOM     12  C   LIG    1      -15.390   3.970   3.058  0.00  0.00    +0.059 C 
ATOM     13  N   LIG    1      -15.595   5.160   2.580  0.00  0.00    -0.185 NA
ATOM     14  C   LIG    1      -15.870   2.681   2.443  0.00  0.00    +0.058 C 
ATOM     15  C   LIG    1      -13.733   2.709   6.280  0.00  0.00    +0.031 C 
ATOM     16  C   LIG    1      -14.854   1.574   2.706  0.00  0.00    +0.017 C 
ATOM     17  C   LIG    1      -12.496   1.841   6.450  0.00  0.00    +0.008 C 
ATOM     18  C   LIG    1       -9.900   2.611   4.934  0.00  0.00    +0.008 C 
ATOM     19  C   LIG    1      -11.112  -0.193   2.963  0.00  0.00    +0.011 C 
ATOM     20  C   LIG    1       -8.845   2.657   3.846  0.00  0.00    +0.045 C 
ENDROOT
BRANCH  13  21
ATOM     21  N   LIG    1      -16.328   5.321   1.450  0.00  0.00    -0.204 N 
ATOM     22  H   LIG    1      -16.987   4.620   1.124  0.00  0.00    +0.177 HD
ATOM     23  C   LIG    1      -16.128   6.473   0.697  0.00  0.00    +0.273 C 
ATOM     24  O   LIG    1      -15.265   7.298   1.003  0.00  0.00    -0.270 OA
BRANCH  23  25
ATOM     25  C   LIG    1      -17.037   6.550  -0.598  0.00  0.00    +0.194 C 
BRANCH  25  26
ATOM     26  C   LIG    1      -16.410   5.763  -1.762  0.00  0.00    -0.003 A 
ATOM     27  C   LIG    1      -15.014   5.660  -1.910  0.00  0.00    +0.007 A 
ATOM     28  C   LIG    1      -14.447   4.899  -2.938  0.00  0.00    +0.000 A 
ATOM     29  C   LIG    1      -15.262   4.240  -3.854  0.00  0.00    +0.000 A 
ATOM     30  C   LIG    1      -16.645   4.348  -3.748  0.00  0.00    +0.000 A 
ATOM     31  C   LIG    1      -17.213   5.104  -2.716  0.00  0.00    +0.007 A 
ENDBRANCH  25  26
BRANCH  25  32
ATOM     32  C   LIG    1      -17.430   7.995  -0.979  0.00  0.00    -0.003 A 
ATOM     33  C   LIG    1      -18.678   8.291  -1.565  0.00  0.00    +0.007 A 
ATOM     34  C   LIG    1      -19.059   9.614  -1.833  0.00  0.00    +0.000 A 
ATOM     35  C   LIG    1      -18.205  10.671  -1.529  0.00  0.00    +0.000 A 
ATOM     36  C   LIG    1      -16.953  10.403  -0.997  0.00  0.00    +0.000 A 
ATOM     37  C   LIG    1      -16.566   9.084  -0.756  0.00  0.00    +0.007 A 
ENDBRANCH  25  32
BRANCH  25  38
ATOM     38  O   LIG    1      -18.247   5.835  -0.212  0.00  0.00    -0.371 OA
ATOM     39  H   LIG    1      -18.664   6.385   0.477  0.00  0.00    +0.212 HD
ENDBRANCH  25  38
ENDBRANCH  23  25
ENDBRANCH  13  21
BRANCH   1  40
ATOM     40  O   LIG    1       -8.462   1.334   1.823  0.00  0.00    -0.461 OA
BRANCH  40  41
ATOM     41  C   LIG    1       -7.130   1.046   1.847  0.00  0.00    +0.307 C 
ATOM     42  O   LIG    1       -6.486   0.823   2.871  0.00  0.00    -0.251 OA
BRANCH  41  43
ATOM     43  C   LIG    1       -6.574   1.038   0.458  0.00  0.00    +0.120 C 
BRANCH  43  44
ATOM     44  C   LIG    1       -5.100   0.638   0.486  0.00  0.00    +0.011 C 
BRANCH  44  45
ATOM     45  C   LIG    1       -4.503   0.581  -0.914  0.00  0.00    +0.000 C 
BRANCH  45  46
ATOM     46  C   LIG    1       -3.031   0.173  -0.863  0.00  0.00    -0.000 C 
BRANCH  46  48
ATOM     47  C   LIG    1       -3.071  -0.896  -3.167  0.00  0.00    +0.004 C 
ATOM     48  C   LIG    1       -2.392   0.109  -2.249  0.00  0.00    -0.003 C 
ENDBRANCH  46  48
ENDBRANCH  45  46
ENDBRANCH  44  45
ENDBRANCH  43  44
ENDBRANCH  41  43
ENDBRANCH  40  41
ENDBRANCH   1  40
TORSDOF 12
