REMARK  Name = *****
REMARK                            x       y       z     vdW  Elec       q    Type
REMARK                         _______ _______ _______ _____ _____    ______ ____
ROOT
ATOM      1  C   LIG    1       -3.705  -0.922  -0.620  0.00  0.00    +0.102 C 
ATOM      2  N   LIG    1       -3.687   0.390  -1.255  0.00  0.00    -0.309 N 
ATOM      3  H   LIG    1       -4.165   0.512  -2.138  0.00  0.00    +0.149 HD
ATOM      4  C   LIG    1       -3.128   1.486  -0.632  0.00  0.00    +0.216 C 
ATOM      5  O   LIG    1       -2.567   1.423   0.458  0.00  0.00    -0.276 OA
ATOM      6  C   LIG    1       -3.247   2.759  -1.450  0.00  0.00    +0.128 C 
ATOM      7  C   LIG    1       -2.773   4.010  -0.687  0.00  0.00    +0.136 C 
ATOM      8  C   LIG    1       -3.870   4.997  -0.159  0.00  0.00    +0.050 C 
ATOM      9  C   LIG    1       -3.142   6.188   0.505  0.00  0.00    +0.021 C 
ATOM     10  C   LIG    1       -4.732   5.573  -1.300  0.00  0.00    +0.021 C 
ATOM     11  C   LIG    1       -4.829   4.248   0.804  0.00  0.00    +0.147 C 
ATOM     12  O   LIG    1       -5.463   3.264   0.398  0.00  0.00    -0.296 OA
ATOM     13  C   LIG    1       -5.102   4.785   2.215  0.00  0.00    +0.082 C 
ATOM     14  C   LIG    1       -6.226   5.825   2.138  0.00  0.00    +0.018 C 
ATOM     15  C   LIG    1       -5.481   3.654   3.205  0.00  0.00    +0.127 C 
ATOM     16  C   LIG    1       -4.470   2.489   3.341  0.00  0.00    +0.015 C 
ATOM     17  C   LIG    1       -3.034   2.985   3.548  0.00  0.00    +0.010 C 
ATOM     18  C   LIG    1       -4.874   1.550   4.510  0.00  0.00    +0.006 C 
ATOM     19  C   LIG    1       -4.349   0.119   4.327  0.00  0.00    +0.003 C 
ATOM     20  C   LIG    1       -5.372  -0.782   3.622  0.00  0.00    +0.037 C 
ATOM     21  C   LIG    1       -4.731  -2.010   3.018  0.00  0.00    +0.093 C 
ATOM     22  C   LIG    1       -4.032  -2.946   3.959  0.00  0.00    +0.044 C 
ATOM     23  C   LIG    1       -4.401  -2.091   1.529  0.00  0.00    +0.153 C 
ATOM     24  O   LIG    1       -5.585  -2.684   2.083  0.00  0.00    -0.365 OA
ATOM     25  C   LIG    1       -4.674  -0.956   0.581  0.00  0.00    +0.061 C 
ENDROOT
BRANCH   1  27
ATOM     26  C   LIG    1       -2.894  -2.923  -1.963  0.00  0.00    +0.041 C 
ATOM     27  C   LIG    1       -4.016  -1.948  -1.705  0.00  0.00    -0.051 C 
ATOM     28  C   LIG    1       -5.206  -1.972  -2.350  0.00  0.00    +0.029 C 
BRANCH  28  29
ATOM     29  C   LIG    1       -5.616  -2.821  -3.422  0.00  0.00    +0.071 A 
ATOM     30  N   LIG    1       -4.702  -3.244  -4.364  0.00  0.00    -0.245 NA
ATOM     31  C   LIG    1       -5.304  -3.997  -5.260  0.00  0.00    +0.076 A 
ATOM     32  C   LIG    1       -4.610  -4.666  -6.394  0.00  0.00    +0.074 C 
ATOM     33  S   LIG    1       -6.998  -4.196  -5.044  0.00  0.00    -0.080 S 
ATOM     34  C   LIG    1       -6.921  -3.209  -3.644  0.00  0.00    +0.074 A 
ENDBRANCH  28  29
ENDBRANCH   1  27
BRANCH   7  35
ATOM     35  O   LIG    1       -1.862   4.725  -1.546  0.00  0.00    -0.390 OA
ATOM     36  H   LIG    1       -2.296   4.880  -2.402  0.00  0.00    +0.210 HD
ENDBRANCH   7  35
BRANCH  15  37
ATOM     37  O   LIG    1       -6.761   3.111   2.856  0.00  0.00    -0.391 OA
ATOM     38  H   LIG    1       -6.671   2.756   1.946  0.00  0.00    +0.210 HD
ENDBRANCH  15  37
TORSDOF 4
