REMARK  Name = *****
REMARK                            x       y       z     vdW  Elec       q    Type
REMARK                         _______ _______ _______ _____ _____    ______ ____
ROOT
ATOM      1  C   LIG    1        2.688  -5.264   0.429  0.00  0.00    +0.064 C 
ATOM      2  C   LIG    1        1.640  -4.164   0.762  0.00  0.00    +0.117 C 
ATOM      3  C   LIG    1        1.757  -3.779   2.246  0.00  0.00    +0.062 C 
ATOM      4  C   LIG    1        1.499  -4.988   3.164  0.00  0.00    +0.151 C 
ATOM      5  C   LIG    1        2.148  -6.278   2.708  0.00  0.00    -0.011 A 
ATOM      6  C   LIG    1        2.169  -7.358   3.612  0.00  0.00    +0.056 A 
ATOM      7  C   LIG    1        2.783  -8.528   3.229  0.00  0.00    +0.167 A 
ATOM      8  O   LIG    1        2.886  -9.654   3.981  0.00  0.00    -0.453 OA
ATOM      9  C   LIG    1        3.603 -10.518   3.075  0.00  0.00    +0.466 C 
ATOM     10  O   LIG    1        3.954  -9.878   1.831  0.00  0.00    -0.453 OA
ATOM     11  C   LIG    1        3.383  -8.656   2.003  0.00  0.00    +0.167 A 
ATOM     12  C   LIG    1        3.377  -7.630   1.084  0.00  0.00    +0.054 A 
ATOM     13  C   LIG    1        2.710  -6.430   1.411  0.00  0.00    -0.030 A 
ENDROOT
BRANCH   1  18
ATOM     14  C   LIG    1        1.842  -6.796  -3.020  0.00  0.00    +0.165 A 
ATOM     15  C   LIG    1        2.901  -6.298  -3.807  0.00  0.00    +0.203 A 
ATOM     16  C   LIG    1        3.886  -5.484  -3.192  0.00  0.00    +0.165 A 
ATOM     17  C   LIG    1        3.789  -5.180  -1.830  0.00  0.00    +0.053 A 
ATOM     18  C   LIG    1        2.719  -5.633  -1.052  0.00  0.00    -0.032 A 
ATOM     19  C   LIG    1        1.753  -6.440  -1.665  0.00  0.00    +0.053 A 
BRANCH  14  21
ATOM     20  C   LIG    1        0.233  -8.543  -2.771  0.00  0.00    +0.277 C 
ATOM     21  O   LIG    1        0.886  -7.588  -3.602  0.00  0.00    -0.491 OA
ENDBRANCH  14  21
BRANCH  15  22
ATOM     22  O   LIG    1        3.099  -6.524  -5.151  0.00  0.00    -0.488 OA
ATOM     23  C   LIG    1        2.161  -7.305  -5.880  0.00  0.00    +0.277 C 
ENDBRANCH  15  22
BRANCH  16  24
ATOM     24  O   LIG    1        4.962  -5.092  -3.955  0.00  0.00    -0.491 OA
ATOM     25  C   LIG    1        5.646  -3.897  -3.586  0.00  0.00    +0.277 C 
ENDBRANCH  16  24
ENDBRANCH   1  18
BRANCH   2  26
ATOM     26  C   LIG    1        0.202  -4.524   0.437  0.00  0.00    +0.309 C 
ATOM     27  O   LIG    1       -0.298  -5.649   0.576  0.00  0.00    -0.251 OA
BRANCH  26  28
ATOM     28  O   LIG    1       -0.539  -3.461   0.083  0.00  0.00    -0.480 OA
ATOM     29  H   LIG    1       -0.054  -2.598   0.175  0.00  0.00    +0.295 HD
ENDBRANCH  26  28
ENDBRANCH   2  26
BRANCH   4  30
ATOM     30  O   LIG    1        0.100  -5.201   3.323  0.00  0.00    -0.387 OA
ATOM     31  H   LIG    1       -0.175  -5.903   2.697  0.00  0.00    +0.210 HD
ENDBRANCH   4  30
BRANCH   3  32
ATOM     32  C   LIG    1        0.860  -2.592   2.616  0.00  0.00    +0.163 C 
BRANCH  32  33
ATOM     33  O   LIG    1        1.086  -1.530   1.688  0.00  0.00    -0.395 OA
ATOM     34  H   LIG    1        0.797  -0.710   2.132  0.00  0.00    +0.209 HD
ENDBRANCH  32  33
ENDBRANCH   3  32
TORSDOF 9
