REMARK  Name = *****
REMARK                            x       y       z     vdW  Elec       q    Type
REMARK                         _______ _______ _______ _____ _____    ______ ____
ROOT
ATOM      1  C   LIG    1        8.943   1.821  -4.527  0.00  0.00    +0.190 C 
ENDROOT
BRANCH   1   2
ATOM      2  C   LIG    1       10.184   2.790  -4.663  0.00  0.00    +0.036 C 
ATOM      3  C   LIG    1       10.792   2.887  -6.073  0.00  0.00    +0.007 C 
ATOM      4  C   LIG    1        9.919   3.636  -7.071  0.00  0.00    +0.000 C 
ATOM      5  C   LIG    1        9.505   5.023  -6.586  0.00  0.00    +0.000 C 
ATOM      6  C   LIG    1        9.058   5.087  -5.130  0.00  0.00    +0.000 C 
ATOM      7  C   LIG    1        9.911   4.241  -4.186  0.00  0.00    +0.007 C 
ENDBRANCH   1   2
BRANCH   1   8
ATOM      8  C   LIG    1        9.189   0.370  -4.993  0.00  0.00    -0.005 A 
ATOM      9  C   LIG    1       10.187  -0.444  -4.414  0.00  0.00    +0.007 A 
ATOM     10  C   LIG    1       10.342  -1.785  -4.789  0.00  0.00    +0.000 A 
ATOM     11  C   LIG    1        9.525  -2.342  -5.768  0.00  0.00    +0.000 A 
ATOM     12  C   LIG    1        8.556  -1.556  -6.378  0.00  0.00    +0.000 A 
ATOM     13  C   LIG    1        8.395  -0.220  -5.996  0.00  0.00    +0.007 A 
ENDBRANCH   1   8
BRANCH   1  14
ATOM     14  C   LIG    1        8.497   1.851  -3.031  0.00  0.00    +0.344 C 
ATOM     15  O   LIG    1        7.423   2.289  -2.622  0.00  0.00    -0.247 OA
BRANCH  14  16
ATOM     16  O   LIG    1        9.498   1.443  -2.198  0.00  0.00    -0.457 OA
BRANCH  16  17
ATOM     17  C   LIG    1        9.286   1.652  -0.794  0.00  0.00    +0.283 C 
BRANCH  17  18
ATOM     18  C   LIG    1        9.946   2.983  -0.407  0.00  0.00    +0.174 C 
BRANCH  18  19
ATOM     19  N   LIG    1        9.898   3.342   1.100  0.00  0.00    +0.243 N 
ATOM     20  C   LIG    1       10.601   4.700   1.255  0.00  0.00    +0.192 C 
BRANCH  19  22
ATOM     21  C   LIG    1        7.591   4.466   0.912  0.00  0.00    +0.060 C 
ATOM     22  C   LIG    1        8.448   3.428   1.620  0.00  0.00    +0.129 C 
ENDBRANCH  19  22
BRANCH  19  23
ATOM     23  C   LIG    1       10.694   2.256   1.871  0.00  0.00    +0.129 C 
ATOM     24  C   LIG    1       10.800   2.494   3.367  0.00  0.00    +0.060 C 
ENDBRANCH  19  23
ENDBRANCH  18  19
ENDBRANCH  17  18
ENDBRANCH  16  17
ENDBRANCH  14  16
ENDBRANCH   1  14
BRANCH   1  25
ATOM     25  O   LIG    1        7.859   2.376  -5.283  0.00  0.00    -0.373 OA
ATOM     26  H   LIG    1        7.054   1.881  -5.042  0.00  0.00    +0.211 HD
ENDBRANCH   1  25
TORSDOF 10
