REMARK  Name = *****
REMARK                            x       y       z     vdW  Elec       q    Type
REMARK                         _______ _______ _______ _____ _____    ______ ____
ROOT
ATOM      1  C   LIG    1        4.695  -5.487   2.478  0.00  0.00    +0.250 C 
ATOM      2  N   LIG    1        5.776  -5.642   3.328  0.00  0.00    -0.281 N 
ATOM      3  H   LIG    1        6.090  -4.819   3.831  0.00  0.00    +0.155 HD
ATOM      4  O   LIG    1        4.165  -6.371   1.811  0.00  0.00    -0.270 OA
ENDROOT
BRANCH   1   9
ATOM      5  C   LIG    1        3.108  -1.550   1.798  0.00  0.00    +0.089 A 
ATOM      6  C   LIG    1        3.663  -1.833   3.049  0.00  0.00    +0.047 A 
ATOM      7  C   LIG    1        4.178  -3.109   3.313  0.00  0.00    +0.055 A 
ATOM      8 CL   LIG    1        4.782  -3.363   4.913  0.00  0.00    -0.083 Cl
ATOM      9  C   LIG    1        4.159  -4.099   2.319  0.00  0.00    +0.055 A 
ATOM     10  C   LIG    1        3.584  -3.791   1.066  0.00  0.00    +0.016 A 
ATOM     11  C   LIG    1        3.070  -2.520   0.800  0.00  0.00    +0.028 A 
BRANCH   5  13
ATOM     12  C   LIG    1        0.794   0.001   1.916  0.00  0.00    +0.200 C 
ATOM     13  S   LIG    1        2.509   0.091   1.471  0.00  0.00    -0.006 S 
ATOM     14  O   LIG    1        3.174   0.983   2.395  0.00  0.00    -0.170 OA
ATOM     15  O   LIG    1        2.598   0.300   0.036  0.00  0.00    -0.170 OA
ENDBRANCH   5  13
ENDBRANCH   1   9
BRANCH   2  16
ATOM     16  C   LIG    1        6.456  -6.838   3.651  0.00  0.00    +0.034 A 
ATOM     17  C   LIG    1        7.520  -6.767   4.573  0.00  0.00    +0.034 A 
ATOM     18  C   LIG    1        8.255  -7.908   5.006  0.00  0.00    +0.020 A 
ATOM     19  C   LIG    1        7.848  -9.144   4.460  0.00  0.00    +0.050 A 
ATOM     20 CL   LIG    1        8.516 -10.678   4.907  0.00  0.00    -0.083 Cl
ATOM     21  C   LIG    1        6.806  -9.215   3.522  0.00  0.00    +0.022 A 
ATOM     22  C   LIG    1        6.120  -8.072   3.117  0.00  0.00    +0.025 A 
BRANCH  18  23
ATOM     23  C   LIG    1        9.354  -7.718   6.000  0.00  0.00    +0.072 A 
ATOM     24  N   LIG    1        9.181  -6.676   6.861  0.00  0.00    -0.255 NA
ATOM     25  C   LIG    1       10.141  -6.434   7.787  0.00  0.00    +0.111 A 
ATOM     26  C   LIG    1       11.300  -7.175   7.915  0.00  0.00    +0.020 A 
ATOM     27  C   LIG    1       11.488  -8.224   7.031  0.00  0.00    +0.004 A 
ATOM     28  C   LIG    1       10.517  -8.490   6.062  0.00  0.00    +0.028 A 
ENDBRANCH  18  23
ENDBRANCH   2  16
TORSDOF 4
