REMARK  Name = *****
REMARK                            x       y       z     vdW  Elec       q    Type
REMARK                         _______ _______ _______ _____ _____    ______ ____
ROOT
ATOM      1  C   LIG    1        1.358   0.374  -1.771  0.00  0.00    +0.105 C 
ATOM      2  N   LIG    1        2.777   0.143  -1.622  0.00  0.00    -0.304 NA
ATOM      3  C   LIG    1        3.059  -0.749  -0.514  0.00  0.00    +0.093 C 
ATOM      4  C   LIG    1        4.568  -0.889  -0.711  0.00  0.00    +0.045 C 
ATOM      5  C   LIG    1        4.615  -1.389  -2.173  0.00  0.00    +0.045 C 
ATOM      6  C   LIG    1        4.304  -2.874  -2.318  0.00  0.00    -0.000 A 
ATOM      7  C   LIG    1        4.802  -3.832  -1.419  0.00  0.00    +0.132 A 
ATOM      8  O   LIG    1        5.870  -3.597  -0.579  0.00  0.00    -0.456 OA
ATOM      9  C   LIG    1        5.658  -2.831   0.533  0.00  0.00    +0.132 A 
ATOM     10  C   LIG    1        6.107  -3.349   1.762  0.00  0.00    +0.048 A 
ATOM     11  C   LIG    1        6.014  -2.605   2.935  0.00  0.00    +0.023 A 
ATOM     12  C   LIG    1        5.513  -1.311   2.898  0.00  0.00    +0.042 A 
ATOM     13  C   LIG    1        5.107  -0.789   1.680  0.00  0.00    +0.027 A 
ATOM     14 CL   LIG    1        5.362  -0.367   4.322  0.00  0.00    -0.084 Cl
ATOM     15  C   LIG    1        4.364  -5.163  -1.475  0.00  0.00    +0.046 A 
ATOM     16  C   LIG    1        3.444  -5.567  -2.441  0.00  0.00    +0.004 A 
ATOM     17  C   LIG    1        3.034  -4.662  -3.409  0.00  0.00    +0.001 A 
ATOM     18  C   LIG    1        3.485  -3.342  -3.365  0.00  0.00    +0.007 A 
ATOM     19  C   LIG    1        5.149  -1.553   0.492  0.00  0.00    +0.001 A 
ATOM     20  C   LIG    1        3.518  -0.412  -2.771  0.00  0.00    +0.093 C 
ENDROOT
TORSDOF 0
