REMARK  Name = *****
REMARK                            x       y       z     vdW  Elec       q    Type
REMARK                         _______ _______ _______ _____ _____    ______ ____
ROOT
ATOM      1  N   LIG    1       -0.096  -1.917  -2.044  0.00  0.00    -0.311 NA
ATOM      2  H   LIG    1       -0.298  -1.355  -2.882  0.00  0.00    +0.122 HD
ENDROOT
BRANCH   1   3
ATOM      3  C   LIG    1        0.341  -3.243  -2.507  0.00  0.00    +0.115 C 
BRANCH   3   4
ATOM      4  C   LIG    1        1.608  -3.160  -3.391  0.00  0.00    +0.169 C 
BRANCH   4   5
ATOM      5  C   LIG    1        2.172  -4.568  -3.724  0.00  0.00    +0.203 C 
ATOM      6  O   LIG    1        3.473  -4.403  -4.334  0.00  0.00    -0.486 OA
ATOM      7  C   LIG    1        3.703  -4.976  -5.552  0.00  0.00    +0.124 A 
ATOM      8  C   LIG    1        2.684  -5.397  -6.410  0.00  0.00    -0.003 A 
ATOM      9  C   LIG    1        3.014  -5.960  -7.651  0.00  0.00    +0.045 A 
ATOM     10  C   LIG    1        4.349  -6.127  -7.998  0.00  0.00    +0.124 A 
ATOM     11  C   LIG    1        5.367  -5.721  -7.144  0.00  0.00    +0.042 A 
ATOM     12  F   LIG    1        4.659  -6.700  -9.169  0.00  0.00    -0.205 F 
ATOM     13  C   LIG    1        1.259  -5.253  -5.986  0.00  0.00    +0.042 C 
ATOM     14  C   LIG    1        5.041  -5.128  -5.923  0.00  0.00    +0.049 A 
ATOM     15  C   LIG    1        1.213  -5.493  -4.489  0.00  0.00    +0.052 C 
ENDBRANCH   4   5
BRANCH   4  16
ATOM     16  O   LIG    1        1.315  -2.434  -4.593  0.00  0.00    -0.387 OA
ATOM     17  H   LIG    1        2.160  -2.388  -5.082  0.00  0.00    +0.210 HD
ENDBRANCH   4  16
ENDBRANCH   3   4
ENDBRANCH   1   3
BRANCH   1  18
ATOM     18  C   LIG    1       -1.319  -2.014  -1.228  0.00  0.00    +0.115 C 
BRANCH  18  19
ATOM     19  C   LIG    1       -1.934  -0.633  -0.883  0.00  0.00    +0.169 C 
BRANCH  19  20
ATOM     20  C   LIG    1       -2.477   0.111  -2.131  0.00  0.00    +0.203 C 
ATOM     21  O   LIG    1       -1.482   0.222  -3.162  0.00  0.00    -0.486 OA
ATOM     22  C   LIG    1       -0.756   1.377  -3.234  0.00  0.00    +0.124 A 
ATOM     23  C   LIG    1       -1.059   2.535  -2.520  0.00  0.00    -0.003 A 
ATOM     24  C   LIG    1       -0.257   3.675  -2.699  0.00  0.00    +0.045 A 
ATOM     25  C   LIG    1        0.810   3.636  -3.590  0.00  0.00    +0.124 A 
ATOM     26  C   LIG    1        1.117   2.485  -4.296  0.00  0.00    +0.042 A 
ATOM     27  F   LIG    1        1.558   4.738  -3.769  0.00  0.00    -0.205 F 
ATOM     28  C   LIG    1       -2.200   2.566  -1.549  0.00  0.00    +0.042 C 
ATOM     29  C   LIG    1        0.330   1.345  -4.115  0.00  0.00    +0.049 A 
ATOM     30  C   LIG    1       -3.177   1.439  -1.838  0.00  0.00    +0.052 C 
ENDBRANCH  19  20
BRANCH  19  31
ATOM     31  O   LIG    1       -0.973   0.150  -0.172  0.00  0.00    -0.387 OA
ATOM     32  H   LIG    1       -0.193   0.194  -0.761  0.00  0.00    +0.210 HD
ENDBRANCH  19  31
ENDBRANCH  18  19
ENDBRANCH   1  18
TORSDOF 8
