REMARK  Name = *****
REMARK                            x       y       z     vdW  Elec       q    Type
REMARK                         _______ _______ _______ _____ _____    ______ ____
ROOT
ATOM      1  C   LIG    1       -3.744   1.201  -1.800  0.00  0.00    +0.256 C 
ATOM      2  C   LIG    1       -4.753   0.083  -2.171  0.00  0.00    +0.048 C 
ATOM      3  C   LIG    1       -4.711  -1.064  -1.156  0.00  0.00    +0.013 C 
ATOM      4  C   LIG    1       -4.478  -0.374  -3.623  0.00  0.00    +0.037 C 
ATOM      5  C   LIG    1       -4.582   0.831  -4.606  0.00  0.00    +0.161 C 
ATOM      6  C   LIG    1       -5.838   0.748  -5.521  0.00  0.00    +0.032 C 
ATOM      7  C   LIG    1       -5.886  -0.579  -6.336  0.00  0.00    -0.008 C 
ATOM      8  C   LIG    1       -7.327  -0.915  -6.752  0.00  0.00    +0.008 C 
ATOM      9  C   LIG    1       -5.288  -1.769  -5.563  0.00  0.00    +0.004 C 
ATOM     10  C   LIG    1       -5.988   1.977  -6.453  0.00  0.00    +0.012 C 
ATOM     11  C   LIG    1       -4.684   2.609  -6.965  0.00  0.00    +0.068 C 
ATOM     12  C   LIG    1       -3.690   2.995  -5.845  0.00  0.00    +0.203 C 
ATOM     13  C   LIG    1       -2.880   4.222  -6.258  0.00  0.00    +0.077 C 
ATOM     14  O   LIG    1       -2.740   1.958  -5.585  0.00  0.00    -0.199 OA
ATOM     15  O   LIG    1       -4.405   3.332  -4.659  0.00  0.00    -0.314 OA
ATOM     16  C   LIG    1       -4.573   2.183  -3.823  0.00  0.00    +0.292 C 
ATOM     17  O   LIG    1       -3.456   0.691  -5.509  0.00  0.00    -0.220 OA
ATOM     18  C   LIG    1       -5.354  -1.563  -4.055  0.00  0.00    +0.007 C 
ATOM     19  O   LIG    1       -3.592   2.207  -2.796  0.00  0.00    -0.319 OA
ENDROOT
BRANCH   1  20
ATOM     20  O   LIG    1       -2.478   0.586  -1.546  0.00  0.00    -0.351 OA
BRANCH  20  22
ATOM     21  C   LIG    1       -0.230   0.746  -0.776  0.00  0.00    +0.034 C 
ATOM     22  C   LIG    1       -1.503   1.513  -1.075  0.00  0.00    +0.159 C 
ENDBRANCH  20  22
ENDBRANCH   1  20
TORSDOF 2
