REMARK  Name = *****
REMARK                            x       y       z     vdW  Elec       q    Type
REMARK                         _______ _______ _______ _____ _____    ______ ____
ROOT
ATOM      1  C   LIG    1       -0.829   5.699   0.046  0.00  0.00    +0.250 C 
ATOM      2  N   LIG    1        0.239   4.819   0.086  0.00  0.00    -0.298 N 
ATOM      3  H   LIG    1        0.130   3.899  -0.320  0.00  0.00    +0.150 HD
ATOM      4  O   LIG    1       -0.671   6.883   0.322  0.00  0.00    -0.270 OA
ENDROOT
BRANCH   2   5
ATOM      5  CA  LIG    1        1.598   5.242   0.555  0.00  0.00    +0.190 C 
ATOM      6  C   LIG    1        1.888   5.192   2.084  0.00  0.00    +0.165 C 
ATOM      7  S   LIG    1        0.739   4.189   3.112  0.00  0.00    -0.127 S 
ATOM      8  C   LIG    1        1.815   2.685   3.129  0.00  0.00    +0.042 C 
ATOM      9  CA  LIG    1        3.216   3.143   2.659  0.00  0.00    +0.201 C 
ATOM     10  C   LIG    1        1.215   1.665   2.146  0.00  0.00    +0.025 C 
ATOM     11  C   LIG    1        1.765   2.072   4.534  0.00  0.00    +0.025 C 
ATOM     12  N   LIG    1        3.031   4.305   1.792  0.00  0.00    -0.271 N 
ATOM     13  C   LIG    1        2.690   4.146   0.481  0.00  0.00    +0.240 C 
ATOM     14  O   LIG    1        3.000   3.269  -0.305  0.00  0.00    -0.273 OA
BRANCH   9  15
ATOM     15  C   LIG    1        4.165   3.501   3.809  0.00  0.00    +0.327 C 
ATOM     16  O   LIG    1        4.201   4.584   4.376  0.00  0.00    -0.249 OA
BRANCH  15  17
ATOM     17  OXT LIG    1        4.965   2.474   4.193  0.00  0.00    -0.479 OA
ATOM     18  HXT LIG    1        4.902   1.656   3.664  0.00  0.00    +0.295 HD
ENDBRANCH  15  17
ENDBRANCH   9  15
ENDBRANCH   2   5
BRANCH   1  21
ATOM     19  C   LIG    1       -1.995   2.604   0.406  0.00  0.00    +0.090 C 
ATOM     20  C   LIG    1       -2.517   3.820  -0.247  0.00  0.00    +0.147 A 
ATOM     21  C   LIG    1       -2.104   5.137  -0.386  0.00  0.00    +0.106 A 
ATOM     22  C   LIG    1       -3.263   5.777  -0.967  0.00  0.00    +0.129 A 
ATOM     23  N   LIG    1       -4.208   4.860  -1.238  0.00  0.00    -0.077 NA
ATOM     24  O   LIG    1       -3.733   3.657  -0.812  0.00  0.00    -0.359 OA
BRANCH  22  25
ATOM     25  C   LIG    1       -3.590   7.179  -1.267  0.00  0.00    +0.041 A 
ATOM     26  C   LIG    1       -4.040   7.554  -2.556  0.00  0.00    +0.052 A 
ATOM     27 CL   LIG    1       -4.024   6.475  -3.918  0.00  0.00    -0.083 Cl
ATOM     28  C   LIG    1       -4.550   8.837  -2.807  0.00  0.00    +0.021 A 
ATOM     29  C   LIG    1       -4.576   9.792  -1.798  0.00  0.00    +0.003 A 
ATOM     30  C   LIG    1       -4.118   9.453  -0.528  0.00  0.00    +0.021 A 
ATOM     31  C   LIG    1       -3.667   8.152  -0.252  0.00  0.00    +0.052 A 
ATOM     32 CL   LIG    1       -3.367   7.801   1.419  0.00  0.00    -0.083 Cl
ENDBRANCH  22  25
ENDBRANCH   1  21
TORSDOF 5
