REMARK  Name = *****
REMARK                            x       y       z     vdW  Elec       q    Type
REMARK                         _______ _______ _______ _____ _____    ______ ____
ROOT
ATOM      1  N   LIG    1        3.175   1.219   1.104  0.00  0.00    -0.291 NA
ENDROOT
BRANCH   1   3
ATOM      2  C   LIG    1        2.712  -0.348  -0.842  0.00  0.00    +0.028 C 
ATOM      3  C   LIG    1        2.732  -0.152   0.694  0.00  0.00    +0.091 C 
BRANCH   3   4
ATOM      4  C   LIG    1        1.294  -0.519   1.177  0.00  0.00    +0.247 C 
BRANCH   4   5
ATOM      5  O   LIG    1        1.188  -0.660   2.596  0.00  0.00    -0.490 OA
BRANCH   5   6
ATOM      6  C   LIG    1       -0.077  -0.856   3.091  0.00  0.00    +0.121 A 
ATOM      7  C   LIG    1       -0.214  -0.811   4.478  0.00  0.00    +0.045 A 
ATOM      8  C   LIG    1       -1.461  -1.049   5.071  0.00  0.00    +0.004 A 
ATOM      9  C   LIG    1       -2.573  -1.340   4.271  0.00  0.00    +0.000 A 
ATOM     10  C   LIG    1       -2.441  -1.379   2.893  0.00  0.00    +0.004 A 
ATOM     11  C   LIG    1       -1.203  -1.138   2.302  0.00  0.00    +0.045 A 
ENDBRANCH   5   6
ENDBRANCH   4   5
ENDBRANCH   3   4
ENDBRANCH   1   3
BRANCH   1  12
ATOM     12  C   LIG    1        4.455   1.617   0.473  0.00  0.00    +0.120 C 
BRANCH  12  13
ATOM     13  C   LIG    1        4.971   2.990   0.862  0.00  0.00    -0.033 A 
ATOM     14  C   LIG    1        4.201   4.139   0.621  0.00  0.00    +0.005 A 
ATOM     15  C   LIG    1        4.676   5.400   0.985  0.00  0.00    +0.000 A 
ATOM     16  C   LIG    1        5.924   5.528   1.591  0.00  0.00    +0.000 A 
ATOM     17  C   LIG    1        6.701   4.396   1.829  0.00  0.00    +0.000 A 
ATOM     18  C   LIG    1        6.231   3.135   1.461  0.00  0.00    +0.005 A 
ENDBRANCH  12  13
ENDBRANCH   1  12
BRANCH   1  19
ATOM     19  C   LIG    1        3.213   1.390   2.584  0.00  0.00    +0.101 C 
BRANCH  19  20
ATOM     20  C   LIG    1        4.161   0.474   3.373  0.00  0.00    +0.124 C 
ATOM     21 CL   LIG    1        4.053   0.811   5.123  0.00  0.00    -0.124 Cl
ENDBRANCH  19  20
ENDBRANCH   1  19
TORSDOF 8
