REMARK  Name = *****
REMARK                            x       y       z     vdW  Elec       q    Type
REMARK                         _______ _______ _______ _____ _____    ______ ____
ROOT
ATOM      1  N   LIG    1       15.926   6.426  16.875  0.00  0.00    -0.094 NA
ATOM      2  C   LIG    1       15.619   6.200  15.633  0.00  0.00    +0.068 C 
ATOM      3  C   LIG    1       16.644   6.465  14.541  0.00  0.00    +0.067 C 
ATOM      4  C   LIG    1       17.994   6.928  15.086  0.00  0.00    +0.017 C 
ATOM      5  C   LIG    1       15.990   7.515  13.619  0.00  0.00    +0.155 C 
ATOM      6  O   LIG    1       14.689   7.089  13.182  0.00  0.00    -0.340 OA
ATOM      7  C   LIG    1       13.742   6.863  14.246  0.00  0.00    +0.180 C 
ATOM      8  O   LIG    1       13.589   8.047  15.018  0.00  0.00    -0.344 OA
ATOM      9  C   LIG    1       12.314   8.331  15.599  0.00  0.00    +0.129 C 
ATOM     10  C   LIG    1       12.600   8.980  16.973  0.00  0.00    +0.058 C 
ATOM     11  C   LIG    1       11.435   9.781  17.477  0.00  0.00    -0.025 C 
ATOM     12  C   LIG    1       10.586   9.518  18.491  0.00  0.00    -0.076 C 
ATOM     13  C   LIG    1        9.354  10.372  18.807  0.00  0.00    +0.037 C 
ATOM     14  C   LIG    1        8.671  11.239  17.709  0.00  0.00    +0.012 C 
ATOM     15  C   LIG    1        8.434  10.451  16.441  0.00  0.00    -0.023 C 
ATOM     16  C   LIG    1        7.360  10.543  15.646  0.00  0.00    -0.004 C 
ATOM     17  C   LIG    1        7.209   9.679  14.499  0.00  0.00    +0.004 C 
ATOM     18  C   LIG    1        6.965   8.358  14.580  0.00  0.00    -0.009 C 
ATOM     19  C   LIG    1        6.666   7.435  13.426  0.00  0.00    +0.134 C 
ATOM     20  C   LIG    1        5.478   6.718  14.066  0.00  0.00    +0.188 C 
ATOM     21  C   LIG    1        5.000   5.464  13.322  0.00  0.00    +0.172 C 
ATOM     22  C   LIG    1        6.073   4.689  12.600  0.00  0.00    -0.045 C 
ATOM     23  C   LIG    1        7.323   5.159  12.448  0.00  0.00    -0.008 C 
ATOM     24  C   LIG    1        5.655   3.365  12.018  0.00  0.00    +0.041 C 
ATOM     25  O   LIG    1        5.901   6.430  15.416  0.00  0.00    -0.366 OA
ATOM     26  C   LIG    1        7.819   6.489  12.989  0.00  0.00    +0.159 C 
ATOM     27  C   LIG    1        8.884   6.164  14.039  0.00  0.00    +0.318 C 
ATOM     28  O   LIG    1       10.069   6.758  13.710  0.00  0.00    -0.461 OA
ATOM     29  C   LIG    1       11.244   6.338  14.448  0.00  0.00    +0.184 C 
ATOM     30  O   LIG    1        8.745   5.401  14.993  0.00  0.00    -0.250 OA
ATOM     31  C   LIG    1        6.633   7.602  15.844  0.00  0.00    +0.194 C 
ATOM     32  C   LIG    1        9.387  12.569  17.454  0.00  0.00    +0.012 C 
ATOM     33  C   LIG    1       10.714   8.317  19.395  0.00  0.00    +0.038 C 
ATOM     34  C   LIG    1       11.379   7.126  15.745  0.00  0.00    +0.076 C 
ATOM     35  C   LIG    1       12.439   6.523  13.520  0.00  0.00    +0.110 C 
ATOM     36  C   LIG    1       14.271   5.728  15.126  0.00  0.00    +0.119 C 
ENDROOT
BRANCH   5  37
ATOM     37  C   LIG    1       16.753   7.852  12.336  0.00  0.00    -0.047 C 
ATOM     38  C   LIG    1       17.503   6.951  11.663  0.00  0.00    -0.022 C 
ATOM     39  C   LIG    1       16.586   9.288  11.907  0.00  0.00    +0.041 C 
BRANCH  38  40
ATOM     40  C   LIG    1       18.296   7.168  10.395  0.00  0.00    +0.006 C 
ATOM     41  C   LIG    1       18.323   5.886   9.557  0.00  0.00    +0.011 C 
ATOM     42  C   LIG    1       19.719   7.606  10.738  0.00  0.00    +0.011 C 
ENDBRANCH  38  40
ENDBRANCH   5  37
BRANCH   1  44
ATOM     43  C   LIG    1       15.259   6.557  19.054  0.00  0.00    +0.313 C 
ATOM     44  O   LIG    1       14.846   6.211  17.736  0.00  0.00    -0.397 OA
ENDBRANCH   1  44
BRANCH  21  45
ATOM     45  O   LIG    1        4.327   4.601  14.237  0.00  0.00    -0.385 OA
ATOM     46  H   LIG    1        4.809   4.704  15.083  0.00  0.00    +0.210 HD
ENDBRANCH  21  45
BRANCH  19  47
ATOM     47  O   LIG    1        6.226   8.202  12.295  0.00  0.00    -0.380 OA
ATOM     48  H   LIG    1        6.050   7.585  11.564  0.00  0.00    +0.211 HD
ENDBRANCH  19  47
TORSDOF 5
