REMARK  Name = *****
REMARK                            x       y       z     vdW  Elec       q    Type
REMARK                         _______ _______ _______ _____ _____    ______ ____
ROOT
ATOM      1  C   LIG    1        4.087   2.300  -1.148  0.00  0.00    +0.406 C 
ATOM      2  F   LIG    1        2.945   3.032  -1.196  0.00  0.00    -0.170 F 
ATOM      3  F   LIG    1        4.915   2.918  -0.270  0.00  0.00    -0.170 F 
ENDROOT
BRANCH   1   4
ATOM      4  C   LIG    1        3.761   0.869  -0.701  0.00  0.00    +0.355 C 
ATOM      5  F   LIG    1        3.113   0.885   0.498  0.00  0.00    -0.219 F 
ATOM      6 CL   LIG    1        5.224  -0.140  -0.529  0.00  0.00    -0.076 Cl
ENDBRANCH   1   4
BRANCH   1   7
ATOM      7  O   LIG    1        4.688   2.335  -2.426  0.00  0.00    -0.255 OA
BRANCH   7   9
ATOM      8  F   LIG    1        5.717   3.646  -3.884  0.00  0.00    -0.178 F 
ATOM      9  C   LIG    1        4.901   3.672  -2.801  0.00  0.00    +0.487 C 
ATOM     10  F   LIG    1        3.723   4.185  -3.224  0.00  0.00    -0.178 F 
ENDBRANCH   7   9
ENDBRANCH   1   7
TORSDOF 3
