REMARK  Name = *****
REMARK                            x       y       z     vdW  Elec       q    Type
REMARK                         _______ _______ _______ _____ _____    ______ ____
ROOT
ATOM      1  C   LIG    1        3.010  -1.457   0.235  0.00  0.00    -0.044 A 
ATOM      2  C   LIG    1        2.114  -2.501  -0.041  0.00  0.00    +0.019 A 
ATOM      3  C   LIG    1        2.519  -3.832   0.104  0.00  0.00    +0.065 A 
ATOM      4  C   LIG    1        3.808  -4.145   0.520  0.00  0.00    +0.141 A 
ATOM      5  O   LIG    1        4.271  -5.426   0.679  0.00  0.00    -0.436 OA
ATOM      6  C   LIG    1        3.412  -6.470   0.422  0.00  0.00    +0.233 A 
ATOM      7  C   LIG    1        2.102  -6.293   0.012  0.00  0.00    +0.085 A 
ATOM      8  C   LIG    1        1.307  -7.412  -0.224  0.00  0.00    +0.035 A 
ATOM      9  C   LIG    1        1.863  -8.682  -0.050  0.00  0.00    +0.099 A 
ATOM     10  C   LIG    1        3.188  -8.775   0.382  0.00  0.00    +0.134 A 
ATOM     11  N   LIG    1        3.963  -7.695   0.608  0.00  0.00    -0.197 NA
ATOM     12  C   LIG    1        4.706  -3.115   0.798  0.00  0.00    +0.047 A 
ATOM     13  C   LIG    1        1.591  -4.934  -0.178  0.00  0.00    +0.202 C 
ATOM     14  O   LIG    1        0.445  -4.735  -0.556  0.00  0.00    -0.286 OA
ATOM     15  C   LIG    1        4.309  -1.781   0.657  0.00  0.00    +0.007 A 
ENDROOT
BRANCH   1  17
ATOM     16  C   LIG    1        2.197   0.334  -1.346  0.00  0.00    +0.012 C 
ATOM     17  C   LIG    1        2.601  -0.001   0.092  0.00  0.00    +0.013 C 
ATOM     18  C   LIG    1        1.482   0.363   1.072  0.00  0.00    +0.012 C 
ENDBRANCH   1  17
BRANCH  10  19
ATOM     19  N   LIG    1        3.824 -10.007   0.589  0.00  0.00    -0.342 N 
ATOM     20  H   LIG    1        3.351 -10.532   1.328  0.00  0.00    +0.144 HD
ATOM     21  H   LIG    1        4.772  -9.781   0.902  0.00  0.00    +0.144 HD
ENDBRANCH  10  19
BRANCH   9  22
ATOM     22  C   LIG    1        1.024  -9.865  -0.348  0.00  0.00    +0.340 C 
ATOM     23  O   LIG    1       -0.193  -9.831  -0.298  0.00  0.00    -0.245 OA
BRANCH  22  24
ATOM     24  O   LIG    1        1.716 -10.962  -0.725  0.00  0.00    -0.477 OA
ATOM     25  H   LIG    1        2.694 -10.844  -0.699  0.00  0.00    +0.295 HD
ENDBRANCH  22  24
ENDBRANCH   9  22
TORSDOF 4
