REMARK  Name = *****
REMARK                            x       y       z     vdW  Elec       q    Type
REMARK                         _______ _______ _______ _____ _____    ______ ____
ROOT
ATOM      1  C   LIG    1        3.432   3.268  -2.064  0.00  0.00    +0.043 A 
ATOM      2  N   LIG    1        2.102   3.523  -1.996  0.00  0.00    -0.260 NA
ATOM      3  C   LIG    1        1.654   4.670  -2.549  0.00  0.00    +0.111 A 
ATOM      4  C   LIG    1        2.469   5.588  -3.184  0.00  0.00    +0.020 A 
ATOM      5  C   LIG    1        3.829   5.315  -3.255  0.00  0.00    +0.003 A 
ATOM      6  C   LIG    1        4.321   4.142  -2.688  0.00  0.00    +0.023 A 
ENDROOT
BRANCH   1   7
ATOM      7  C   LIG    1        3.956   1.995  -1.438  0.00  0.00    +0.070 C 
BRANCH   7   8
ATOM      8  C   LIG    1        2.863   1.145  -0.777  0.00  0.00    +0.087 C 
BRANCH   8  10
ATOM      9  C   LIG    1        2.380  -0.841   0.485  0.00  0.00    +0.101 C 
ATOM     10  N   LIG    1        3.434  -0.056  -0.147  0.00  0.00    -0.319 NA
ATOM     11  H   LIG    1        3.889  -0.625  -0.860  0.00  0.00    +0.122 HD
ENDBRANCH   8  10
ENDBRANCH   7   8
ENDBRANCH   1   7
TORSDOF 3
