REMARK  Name = *****
REMARK                            x       y       z     vdW  Elec       q    Type
REMARK                         _______ _______ _______ _____ _____    ______ ____
ROOT
ATOM      1  C   LIG    1        2.113  -1.870  -0.898  0.00  0.00    +0.180 C 
ATOM      2  C   LIG    1        1.936  -3.184   0.032  0.00  0.00    +0.021 C 
ATOM      3  C   LIG    1        2.806  -2.897   1.289  0.00  0.00    +0.006 C 
ATOM      4  C   LIG    1        4.316  -3.266   1.177  0.00  0.00    +0.034 C 
ATOM      5  C   LIG    1        4.562  -4.695   0.636  0.00  0.00    +0.153 C 
ATOM      6  C   LIG    1        3.815  -4.850  -0.715  0.00  0.00    +0.154 C 
ATOM      7  F   LIG    1        3.938  -5.556   1.516  0.00  0.00    -0.238 F 
ATOM      8  C   LIG    1        6.113  -5.099   0.604  0.00  0.00    +0.044 C 
ATOM      9  C   LIG    1        6.874  -4.647   1.887  0.00  0.00    -0.053 C 
ATOM     10  C   LIG    1        8.207  -4.886   1.956  0.00  0.00    +0.051 C 
ATOM     11  C   LIG    1        8.916  -4.187   0.819  0.00  0.00    +0.179 C 
ATOM     12  C   LIG    1        8.161  -4.048  -0.462  0.00  0.00    +0.047 C 
ATOM     13  O   LIG    1       10.079  -3.820   0.917  0.00  0.00    -0.288 OA
ATOM     14  C   LIG    1        6.461  -3.320   2.489  0.00  0.00    +0.032 C 
ATOM     15  C   LIG    1        6.239  -6.644   0.471  0.00  0.00    +0.023 C 
ATOM     16  C   LIG    1        6.893  -4.488  -0.571  0.00  0.00    -0.009 C 
ATOM     17  C   LIG    1        4.961  -3.140   2.569  0.00  0.00    +0.011 C 
ATOM     18  C   LIG    1        2.587  -1.390   1.482  0.00  0.00    +0.012 C 
ATOM     19  C   LIG    1        0.470  -3.389   0.526  0.00  0.00    +0.016 C 
ATOM     20  C   LIG    1        2.323  -4.528  -0.620  0.00  0.00    +0.045 C 
ATOM     21  C   LIG    1        2.746  -0.808   0.078  0.00  0.00    +0.038 C 
ATOM     22  C   LIG    1        2.246   0.636   0.036  0.00  0.00    +0.012 C 
ENDROOT
BRANCH   6  23
ATOM     23  O   LIG    1        3.898  -6.179  -1.234  0.00  0.00    -0.389 OA
ATOM     24  H   LIG    1        3.537  -6.776  -0.549  0.00  0.00    +0.210 HD
ENDBRANCH   6  23
BRANCH   1  25
ATOM     25  C   LIG    1        0.742  -1.397  -1.504  0.00  0.00    +0.192 C 
ATOM     26  O   LIG    1       -0.139  -0.923  -0.778  0.00  0.00    -0.292 OA
BRANCH  25  27
ATOM     27  C   LIG    1        0.535  -1.513  -3.002  0.00  0.00    +0.187 C 
ATOM     28 CL   LIG    1       -1.169  -1.838  -3.387  0.00  0.00    -0.117 Cl
ENDBRANCH  25  27
ENDBRANCH   1  25
BRANCH   1  29
ATOM     29  O   LIG    1        3.117  -2.205  -1.903  0.00  0.00    -0.450 OA
BRANCH  29  30
ATOM     30  C   LIG    1        3.579  -1.266  -2.760  0.00  0.00    +0.308 C 
ATOM     31  O   LIG    1        3.151  -0.121  -2.846  0.00  0.00    -0.251 OA
BRANCH  30  33
ATOM     32  C   LIG    1        5.631  -0.811  -4.142  0.00  0.00    +0.015 C 
ATOM     33  C   LIG    1        4.645  -1.866  -3.659  0.00  0.00    +0.117 C 
ENDBRANCH  30  33
ENDBRANCH  29  30
ENDBRANCH   1  29
TORSDOF 6
