REMARK  Name = *****
REMARK                            x       y       z     vdW  Elec       q    Type
REMARK                         _______ _______ _______ _____ _____    ______ ____
ROOT
ATOM      1  N   UNK A  0        7.592   0.618  -2.545  0.00  0.00    -0.342 N 
ATOM      2  H   UNK A  0        7.952  -0.082  -1.897  0.00  0.00    +0.146 HD
ENDROOT
BRANCH   1   3
ATOM      3  C   UNK A  0        7.921   0.382  -3.880  0.00  0.00    +0.027 A 
ATOM      4  C   UNK A  0        7.623   1.294  -4.901  0.00  0.00    +0.024 A 
ATOM      5  C   UNK A  0        7.890   1.006  -6.241  0.00  0.00    +0.015 A 
ATOM      6  C   UNK A  0        8.424  -0.232  -6.591  0.00  0.00    +0.037 A 
ATOM      7  C   UNK A  0        8.729  -1.158  -5.589  0.00  0.00    +0.015 A 
ATOM      8  C   UNK A  0        8.461  -0.856  -4.248  0.00  0.00    +0.024 A 
BRANCH   6   9
ATOM      9  C   UNK A  0        8.572  -0.542  -8.041  0.00  0.00    +0.245 C 
ATOM     10  N   GLU A  1        8.349  -1.861  -8.385  0.00  0.00    -0.298 N 
ATOM     11  H   GLU A  1        8.343  -2.565  -7.656  0.00  0.00    +0.150 HD
ATOM     12  O   UNK A  0        8.800   0.335  -8.853  0.00  0.00    -0.270 OA
BRANCH  10  13
ATOM     13  CA  GLU A  1        8.482  -2.350  -9.765  0.00  0.00    +0.182 C 
BRANCH  13  14
ATOM     14  C   GLU A  1        7.455  -3.485  -9.954  0.00  0.00    +0.325 C 
ATOM     15  O   GLU A  1        7.567  -4.423 -10.727  0.00  0.00    -0.249 OA
BRANCH  14  16
ATOM     16  OXT GLU A  1        6.328  -3.308  -9.216  0.00  0.00    -0.479 OA
ATOM     17  HXT GLU A  1        6.339  -2.439  -8.764  0.00  0.00    +0.295 HD
ENDBRANCH  14  16
ENDBRANCH  13  14
BRANCH  13  18
ATOM     18  CB  GLU A  1        9.928  -2.797 -10.011  0.00  0.00    +0.045 C 
BRANCH  18  19
ATOM     19  CG  GLU A  1       10.231  -3.197 -11.455  0.00  0.00    +0.123 C 
BRANCH  19  20
ATOM     20  CD  GLU A  1        9.966  -2.080 -12.422  0.00  0.00    +0.305 C 
ATOM     21  OE1 GLU A  1        9.137  -2.078 -13.315  0.00  0.00    -0.251 OA
BRANCH  20  22
ATOM     22  OE2 GLU A  1       10.743  -1.006 -12.198  0.00  0.00    -0.481 OA
ATOM     23  HE2 GLU A  1       10.443  -0.346 -12.857  0.00  0.00    +0.295 HD
ENDBRANCH  20  22
ENDBRANCH  19  20
ENDBRANCH  18  19
ENDBRANCH  13  18
ENDBRANCH  10  13
ENDBRANCH   6   9
ENDBRANCH   1   3
BRANCH   1  24
ATOM     24  C   UNK A  0        7.682   1.987  -2.024  0.00  0.00    +0.126 C 
BRANCH  24  32
ATOM     25  C   UNK A  0        3.369   5.099  -3.038  0.00  0.00    +0.195 C 
ATOM     26  N   UNK A  0        2.769   3.887  -3.045  0.00  0.00    -0.294 N 
ATOM     27  H   UNK A  0        1.933   3.733  -3.583  0.00  0.00    +0.172 HD
ATOM     28  C   UNK A  0        3.343   2.779  -2.496  0.00  0.00    +0.276 C 
ATOM     29  O   UNK A  0        2.806   1.686  -2.648  0.00  0.00    -0.266 OA
ATOM     30  C   UNK A  0        4.638   2.995  -1.775  0.00  0.00    +0.142 C 
ATOM     31  N   UNK A  0        5.342   1.958  -1.126  0.00  0.00    -0.261 N 
ATOM     32  C   UNK A  0        6.771   2.208  -0.790  0.00  0.00    +0.115 C 
ATOM     33  C   UNK A  0        6.952   3.643  -0.262  0.00  0.00    +0.127 C 
ATOM     34  N   UNK A  0        6.330   4.572  -1.189  0.00  0.00    -0.326 N 
ATOM     35  H   UNK A  0        6.392   5.564  -0.978  0.00  0.00    +0.148 HD
ATOM     36  C   UNK A  0        4.854   0.687  -0.867  0.00  0.00    +0.333 C 
ATOM     37  O   UNK A  0        5.483  -0.209  -0.305  0.00  0.00    -0.279 OA
ATOM     38  C   UNK A  0        5.123   4.269  -1.812  0.00  0.00    +0.149 C 
ATOM     39  N   UNK A  0        4.491   5.313  -2.440  0.00  0.00    -0.199 NA
BRANCH  25  40
ATOM     40  N   UNK A  0        2.733   6.097  -3.696  0.00  0.00    -0.329 N 
ATOM     41  H   UNK A  0        1.722   6.089  -3.698  0.00  0.00    +0.145 HD
ATOM     42  H   UNK A  0        3.127   7.011  -3.495  0.00  0.00    +0.145 HD
ENDBRANCH  25  40
ENDBRANCH  24  32
ENDBRANCH   1  24
TORSDOF 12
