REMARK  Name = *****
REMARK                            x       y       z     vdW  Elec       q    Type
REMARK                         _______ _______ _______ _____ _____    ______ ____
ROOT
ATOM      1  C   LIG    1        6.454  -3.852  -3.655  0.00  0.00    -0.006 A 
ATOM      2  C   LIG    1        7.864  -4.164  -3.770  0.00  0.00    +0.123 A 
ATOM      3  C   LIG    1        8.420  -5.239  -3.034  0.00  0.00    +0.091 A 
ATOM      4  C   LIG    1        7.606  -6.054  -2.262  0.00  0.00    +0.120 A 
ATOM      5  C   LIG    1        6.221  -5.865  -2.247  0.00  0.00    +0.046 A 
ATOM      6  C   LIG    1        5.656  -4.769  -2.943  0.00  0.00    +0.011 A 
ENDROOT
BRANCH   2   7
ATOM      7  O   LIG    1        8.736  -3.164  -4.189  0.00  0.00    -0.506 OA
ATOM      8  H   LIG    1        9.462  -3.092  -3.539  0.00  0.00    +0.292 HD
ENDBRANCH   2   7
BRANCH   4   9
ATOM      9  O   LIG    1        8.198  -6.904  -1.353  0.00  0.00    -0.507 OA
ATOM     10  H   LIG    1        7.527  -7.492  -0.987  0.00  0.00    +0.292 HD
ENDBRANCH   4   9
BRANCH   1  11
ATOM     11  C   LIG    1        5.889  -2.402  -3.869  0.00  0.00    +0.039 C 
BRANCH  11  12
ATOM     12  C   LIG    1        5.081  -1.658  -2.706  0.00  0.00    +0.005 C 
BRANCH  12  13
ATOM     13  C   LIG    1        5.765  -0.827  -1.549  0.00  0.00    +0.000 C 
BRANCH  13  14
ATOM     14  C   LIG    1        6.484  -1.510  -0.356  0.00  0.00    -0.000 C 
BRANCH  14  16
ATOM     15  C   LIG    1        7.879  -3.070  -1.457  0.00  0.00    +0.004 C 
ATOM     16  C   LIG    1        7.917  -1.964  -0.554  0.00  0.00    -0.003 C 
ENDBRANCH  14  16
ENDBRANCH  13  14
ENDBRANCH  12  13
ENDBRANCH  11  12
ENDBRANCH   1  11
TORSDOF 7
