REMARK  Name = *****
REMARK                            x       y       z     vdW  Elec       q    Type
REMARK                         _______ _______ _______ _____ _____    ______ ____
ROOT
ATOM      1  O   LIG    1        3.063  -1.496   3.550  0.00  0.00    -0.247 OA
ATOM      2  C   LIG    1        2.651  -1.579   2.398  0.00  0.00    +0.349 C 
ENDROOT
BRANCH   2   3
ATOM      3  C   LIG    1        1.552  -2.562   1.855  0.00  0.00    +0.213 C 
BRANCH   3   4
ATOM      4  C   LIG    1        0.195  -2.394   2.557  0.00  0.00    -0.001 A 
ATOM      5  C   LIG    1       -0.058  -1.389   3.509  0.00  0.00    +0.007 A 
ATOM      6  C   LIG    1       -1.321  -1.246   4.094  0.00  0.00    +0.000 A 
ATOM      7  C   LIG    1       -2.359  -2.099   3.737  0.00  0.00    +0.000 A 
ATOM      8  C   LIG    1       -2.140  -3.092   2.790  0.00  0.00    +0.000 A 
ATOM      9  C   LIG    1       -0.879  -3.235   2.204  0.00  0.00    +0.007 A 
ENDBRANCH   3   4
BRANCH   3  10
ATOM     10  C   LIG    1        2.092  -4.007   1.901  0.00  0.00    -0.001 A 
ATOM     11  C   LIG    1        2.186  -4.796   0.737  0.00  0.00    +0.007 A 
ATOM     12  C   LIG    1        2.667  -6.106   0.787  0.00  0.00    +0.000 A 
ATOM     13  C   LIG    1        3.056  -6.660   2.001  0.00  0.00    +0.000 A 
ATOM     14  C   LIG    1        2.962  -5.905   3.167  0.00  0.00    +0.000 A 
ATOM     15  C   LIG    1        2.484  -4.591   3.120  0.00  0.00    +0.007 A 
ENDBRANCH   3  10
BRANCH   3  16
ATOM     16  O   LIG    1        1.284  -2.207   0.479  0.00  0.00    -0.370 OA
ATOM     17  H   LIG    1        2.150  -2.186   0.041  0.00  0.00    +0.212 HD
ENDBRANCH   3  16
ENDBRANCH   2   3
BRANCH   2  18
ATOM     18  O   LIG    1        3.129  -0.783   1.381  0.00  0.00    -0.459 OA
BRANCH  18  19
ATOM     19  C   LIG    1        4.049   0.253   1.766  0.00  0.00    +0.187 C 
ATOM     20  C   LIG    1        3.968   1.352   0.697  0.00  0.00    +0.099 C 
ATOM     21  C   LIG    1        5.199   2.266   0.667  0.00  0.00    +0.070 C 
ATOM     22  N   LIG    1        6.445   1.404   0.424  0.00  0.00    +0.248 N 
ATOM     23  C   LIG    1        6.563   0.704   1.796  0.00  0.00    +0.070 C 
ATOM     24  C   LIG    1        6.340   1.859   2.787  0.00  0.00    +0.060 C 
ATOM     25  C   LIG    1        7.708   2.248   0.112  0.00  0.00    +0.134 C 
ATOM     26  C   LIG    1        8.581   1.382  -0.791  0.00  0.00    +0.056 C 
ATOM     27  C   LIG    1        7.806   0.106  -1.047  0.00  0.00    +0.056 C 
ATOM     28  C   LIG    1        6.370   0.503  -0.811  0.00  0.00    +0.134 C 
ATOM     29  C   LIG    1        5.484   2.885   2.040  0.00  0.00    +0.060 C 
ATOM     30  C   LIG    1        5.454  -0.343   1.935  0.00  0.00    +0.099 C 
ENDBRANCH  18  19
ENDBRANCH   2  18
TORSDOF 6
