REMARK  Name = *****
REMARK                            x       y       z     vdW  Elec       q    Type
REMARK                         _______ _______ _______ _____ _____    ______ ____
ROOT
ATOM      1  C   LIG    1        4.564  -1.054  -1.213  0.00  0.00    +0.034 C 
ATOM      2  C   LIG    1        5.186  -1.909  -0.071  0.00  0.00    -0.032 A 
ATOM      3  C   LIG    1        6.608  -1.886  -0.057  0.00  0.00    -0.036 A 
ATOM      4  C   LIG    1        7.332  -2.599   0.892  0.00  0.00    +0.004 A 
ATOM      5  C   LIG    1        6.638  -3.348   1.841  0.00  0.00    +0.000 A 
ATOM      6  C   LIG    1        5.238  -3.385   1.832  0.00  0.00    +0.000 A 
ATOM      7  C   LIG    1        7.227  -1.043  -1.165  0.00  0.00    +0.050 C 
ATOM      8  C   LIG    1        6.645  -1.518  -2.491  0.00  0.00    -0.036 A 
ATOM      9  C   LIG    1        7.399  -1.929  -3.585  0.00  0.00    +0.004 A 
ATOM     10  C   LIG    1        6.737  -2.366  -4.731  0.00  0.00    +0.000 A 
ATOM     11  C   LIG    1        5.338  -2.395  -4.776  0.00  0.00    +0.000 A 
ATOM     12  C   LIG    1        4.577  -1.985  -3.677  0.00  0.00    +0.005 A 
ATOM     13  C   LIG    1        6.693   0.390  -0.949  0.00  0.00    +0.014 C 
ATOM     14  C   LIG    1        4.507  -2.670   0.877  0.00  0.00    +0.005 A 
ATOM     15  C   LIG    1        5.223  -1.537  -2.529  0.00  0.00    -0.032 A 
ATOM     16  C   LIG    1        5.136   0.392  -0.976  0.00  0.00    +0.018 C 
ENDROOT
BRANCH   1  17
ATOM     17  C   LIG    1        3.004  -1.046  -1.195  0.00  0.00    +0.097 C 
BRANCH  17  19
ATOM     18  C   LIG    1        0.909  -0.216  -2.080  0.00  0.00    +0.101 C 
ATOM     19  N   LIG    1        2.361  -0.150  -2.174  0.00  0.00    -0.318 NA
ATOM     20  H   LIG    1        2.664   0.810  -2.017  0.00  0.00    +0.122 HD
ENDBRANCH  17  19
ENDBRANCH   1  17
TORSDOF 2
