REMARK  Name = *****
REMARK                            x       y       z     vdW  Elec       q    Type
REMARK                         _______ _______ _______ _____ _____    ______ ____
ROOT
ATOM      1  C   LIG    1        3.474   0.503   1.371  0.00  0.00    +0.027 C 
ATOM      2  C   LIG    1        2.696   0.194   0.089  0.00  0.00    +0.084 C 
ATOM      3  C   LIG    1        2.829  -1.306  -0.333  0.00  0.00    +0.165 C 
ATOM      4  O   LIG    1        2.164  -1.543  -1.591  0.00  0.00    -0.369 OA
ATOM      5  C   LIG    1        2.673  -0.684  -2.615  0.00  0.00    +0.176 C 
ATOM      6  C   LIG    1        2.503   0.791  -2.234  0.00  0.00    +0.109 C 
ATOM      7  N   LIG    1        3.182   1.119  -0.970  0.00  0.00    -0.309 NA
ATOM      8  H   LIG    1        4.185   0.979  -1.091  0.00  0.00    +0.122 HD
ENDROOT
BRANCH   3   9
ATOM      9  C   LIG    1        2.229  -2.265   0.678  0.00  0.00    -0.017 A 
ATOM     10  C   LIG    1        0.842  -2.322   0.886  0.00  0.00    +0.006 A 
ATOM     11  C   LIG    1        0.299  -3.192   1.833  0.00  0.00    +0.000 A 
ATOM     12  C   LIG    1        1.134  -4.018   2.581  0.00  0.00    +0.000 A 
ATOM     13  C   LIG    1        2.513  -3.977   2.382  0.00  0.00    +0.000 A 
ATOM     14  C   LIG    1        3.058  -3.106   1.436  0.00  0.00    +0.006 A 
ENDBRANCH   3   9
TORSDOF 1
