REMARK  Name = *****
REMARK                            x       y       z     vdW  Elec       q    Type
REMARK                         _______ _______ _______ _____ _____    ______ ____
ROOT
ATOM      1  C   LIG    1       10.791   6.323  -4.646  0.00  0.00    +0.051 C 
ATOM      2  C   LIG    1       10.709   7.623  -3.816  0.00  0.00    +0.068 C 
ATOM      3  C   LIG    1       11.725   8.502  -4.500  0.00  0.00    +0.140 C 
ATOM      4  O   LIG    1       11.765   9.723  -4.374  0.00  0.00    -0.297 OA
ATOM      5  C   LIG    1       12.730   7.735  -5.310  0.00  0.00    +0.106 C 
ATOM      6  C   LIG    1       12.226   6.298  -5.240  0.00  0.00    +0.129 C 
ENDROOT
BRANCH   1   8
ATOM      7  C   LIG    1        8.422   6.116  -5.648  0.00  0.00    -0.000 C 
ATOM      8  C   LIG    1        9.766   6.119  -5.766  0.00  0.00    -0.022 C 
BRANCH   7   9
ATOM      9  C   LIG    1        7.411   5.622  -6.671  0.00  0.00    +0.137 C 
BRANCH   9  10
ATOM     10  O   LIG    1        8.098   5.159  -7.830  0.00  0.00    -0.388 OA
ATOM     11  H   LIG    1        8.559   4.345  -7.566  0.00  0.00    +0.210 HD
ENDBRANCH   9  10
BRANCH   9  12
ATOM     12  C   LIG    1        6.406   4.513  -6.257  0.00  0.00    +0.035 C 
BRANCH  12  13
ATOM     13  C   LIG    1        6.976   3.184  -5.739  0.00  0.00    +0.003 C 
BRANCH  13  14
ATOM     14  C   LIG    1        7.846   3.240  -4.480  0.00  0.00    -0.000 C 
BRANCH  14  16
ATOM     15  C   LIG    1        6.611   5.094  -3.060  0.00  0.00    +0.004 C 
ATOM     16  C   LIG    1        7.149   3.675  -3.181  0.00  0.00    -0.003 C 
ENDBRANCH  14  16
ENDBRANCH  13  14
ENDBRANCH  12  13
ENDBRANCH   9  12
ENDBRANCH   7   9
ENDBRANCH   1   8
BRANCH   6  17
ATOM     17  O   LIG    1       13.074   5.489  -4.428  0.00  0.00    -0.391 OA
ATOM     18  H   LIG    1       13.965   5.488  -4.818  0.00  0.00    +0.210 HD
ENDBRANCH   6  17
BRANCH   2  19
ATOM     19  C   LIG    1       11.056   7.477  -2.308  0.00  0.00    +0.038 C 
BRANCH  19  20
ATOM     20  C   LIG    1       12.374   6.830  -1.961  0.00  0.00    -0.030 C 
ATOM     21  C   LIG    1       12.671   5.953  -0.988  0.00  0.00    -0.031 C 
BRANCH  21  22
ATOM     22  C   LIG    1       11.792   5.394   0.094  0.00  0.00    +0.027 C 
BRANCH  22  23
ATOM     23  C   LIG    1       11.098   6.429   0.987  0.00  0.00    +0.015 C 
BRANCH  23  24
ATOM     24  C   LIG    1       12.061   7.377   1.702  0.00  0.00    +0.121 C 
BRANCH  24  25
ATOM     25  C   LIG    1       12.997   6.655   2.625  0.00  0.00    +0.305 C 
ATOM     26  O   LIG    1       12.774   6.492   3.841  0.00  0.00    -0.251 OA
BRANCH  25  27
ATOM     27  O   LIG    1       14.101   6.166   2.043  0.00  0.00    -0.481 OA
ATOM     28  H   LIG    1       14.132   6.355   1.081  0.00  0.00    +0.295 HD
ENDBRANCH  25  27
ENDBRANCH  24  25
ENDBRANCH  23  24
ENDBRANCH  22  23
ENDBRANCH  21  22
ENDBRANCH  19  20
ENDBRANCH   2  19
TORSDOF 15
