REMARK  Name = *****
REMARK                            x       y       z     vdW  Elec       q    Type
REMARK                         _______ _______ _______ _____ _____    ______ ____
ROOT
ATOM      1  C   LIG    1       -0.047  -2.580  -4.141  0.00  0.00    +0.051 C 
ATOM      2  C   LIG    1       -1.389  -1.885  -4.325  0.00  0.00    -0.026 A 
ATOM      3  C   LIG    1       -2.415  -2.474  -5.086  0.00  0.00    +0.017 A 
ATOM      4  C   LIG    1       -3.655  -1.835  -5.202  0.00  0.00    +0.015 A 
ATOM      5  C   LIG    1       -3.878  -0.604  -4.586  0.00  0.00    +0.001 A 
ATOM      6  C   LIG    1       -2.859  -0.001  -3.854  0.00  0.00    +0.000 A 
ATOM      7  S   LIG    1       -2.161  -4.006  -5.966  0.00  0.00    -0.089 S 
ATOM      8  C   LIG    1       -0.412  -3.879  -6.310  0.00  0.00    +0.017 A 
ATOM      9  C   LIG    1        0.085  -4.480  -7.472  0.00  0.00    +0.015 A 
ATOM     10  C   LIG    1        1.436  -4.376  -7.798  0.00  0.00    +0.001 A 
ATOM     11  C   LIG    1        2.300  -3.672  -6.962  0.00  0.00    +0.000 A 
ATOM     12  C   LIG    1        1.817  -3.081  -5.793  0.00  0.00    +0.005 A 
ATOM     13  C   LIG    1       -1.624  -0.635  -3.725  0.00  0.00    +0.005 A 
ATOM     14  C   LIG    1        0.458  -3.180  -5.452  0.00  0.00    -0.026 A 
ENDROOT
BRANCH   1  15
ATOM     15  C   LIG    1       -0.071  -3.692  -3.055  0.00  0.00    +0.017 C 
BRANCH  15  19
ATOM     16  C   LIG    1        2.668  -2.674  -1.206  0.00  0.00    +0.105 C 
ATOM     17  N   LIG    1        1.531  -2.577  -0.304  0.00  0.00    -0.305 NA
ATOM     18  C   LIG    1        0.277  -2.178  -0.948  0.00  0.00    +0.087 C 
ATOM     19  C   LIG    1       -0.550  -3.279  -1.645  0.00  0.00    +0.004 C 
ATOM     20  C   LIG    1       -0.661  -4.513  -0.730  0.00  0.00    +0.006 C 
ATOM     21  C   LIG    1        0.691  -4.933  -0.163  0.00  0.00    +0.016 C 
ATOM     22  C   LIG    1        1.370  -3.761   0.542  0.00  0.00    +0.084 C 
ENDBRANCH  15  19
ENDBRANCH   1  15
TORSDOF 2
