REMARK  Name = *****
REMARK                            x       y       z     vdW  Elec       q    Type
REMARK                         _______ _______ _______ _____ _____    ______ ____
ROOT
ATOM      1  C   LIG    1        2.776   0.959  -0.828  0.00  0.00    -0.002 C 
ATOM      2  C   LIG    1        2.104   1.392  -2.198  0.00  0.00    -0.026 C 
ATOM      3  C   LIG    1        2.917   2.437  -2.993  0.00  0.00    +0.012 C 
ATOM      4  C   LIG    1        0.756   2.104  -1.773  0.00  0.00    +0.001 C 
ATOM      5  C   LIG    1       -0.520   1.918  -2.638  0.00  0.00    +0.025 C 
ATOM      6  C   LIG    1       -0.609   0.173  -3.351  0.00  0.00    +0.001 C 
ATOM      7  C   LIG    1        0.625  -0.625  -2.885  0.00  0.00    +0.005 C 
ATOM      8  C   LIG    1       -0.945   0.128  -5.163  0.00  0.00    -0.026 C 
ATOM      9  C   LIG    1        0.061  -0.695  -5.952  0.00  0.00    +0.012 C 
ATOM     10  C   LIG    1       -1.640   1.442  -6.275  0.00  0.00    +0.000 C 
ATOM     11  C   LIG    1       -3.081   1.120  -6.501  0.00  0.00    +0.035 C 
ATOM     12  C   LIG    1       -3.621   1.399  -5.145  0.00  0.00    +0.115 C 
ATOM     13  C   LIG    1       -2.419   1.563  -4.151  0.00  0.00    +0.032 C 
ATOM     14  C   LIG    1       -1.476   3.213  -5.546  0.00  0.00    +0.035 C 
ATOM     15  C   LIG    1       -0.570   1.412  -4.813  0.00  0.00    +0.009 C 
ATOM     16  C   LIG    1       -0.772   3.381  -3.814  0.00  0.00    +0.118 C 
ATOM     17  C   LIG    1        0.555   1.708  -0.308  0.00  0.00    +0.005 C 
ATOM     18  C   LIG    1        1.945   0.112  -3.068  0.00  0.00    +0.007 C 
ATOM     19  C   LIG    1        1.975   1.723   0.239  0.00  0.00    +0.004 C 
ENDROOT
BRANCH   1  21
ATOM     20  C   LIG    1        4.739   0.567   0.741  0.00  0.00    +0.008 C 
ATOM     21  C   LIG    1        4.329   1.069  -0.660  0.00  0.00    -0.010 C 
BRANCH  21  22
ATOM     22  C   LIG    1        5.125   0.269  -1.729  0.00  0.00    +0.012 C 
BRANCH  22  23
ATOM     23  C   LIG    1        6.644   0.438  -1.630  0.00  0.00    +0.096 C 
BRANCH  23  24
ATOM     24  C   LIG    1        7.362  -0.337  -2.716  0.00  0.00    +0.213 C 
ATOM     25  N   LIG    1        7.567   0.363  -3.884  0.00  0.00    -0.314 N 
ATOM     26  H   LIG    1        7.218   1.311  -3.962  0.00  0.00    +0.149 HD
ATOM     27  O   LIG    1        7.726  -1.498  -2.557  0.00  0.00    -0.276 OA
BRANCH  25  28
ATOM     28  C   LIG    1        8.279  -0.225  -5.010  0.00  0.00    +0.129 C 
BRANCH  28  29
ATOM     29  C   LIG    1        9.780  -0.027  -4.904  0.00  0.00    +0.216 C 
BRANCH  29  30
ATOM     30  S   LIG    1       10.596  -0.764  -6.308  0.00  0.00    +0.081 S 
ATOM     31  O   LIG    1       10.441   0.080  -7.463  0.00  0.00    -0.147 OA
ATOM     32  O   LIG    1       10.335  -2.190  -6.345  0.00  0.00    -0.147 OA
BRANCH  30  33
ATOM     33  O   LIG    1       12.118  -0.625  -5.786  0.00  0.00    -0.254 OA
ATOM     34  H   LIG    1       12.526  -1.518  -5.800  0.00  0.00    +0.244 HD
ENDBRANCH  30  33
ENDBRANCH  29  30
ENDBRANCH  28  29
ENDBRANCH  25  28
ENDBRANCH  23  24
ENDBRANCH  22  23
ENDBRANCH  21  22
ENDBRANCH   1  21
BRANCH  12  35
ATOM     35  O   LIG    1       -4.500   0.361  -4.742  0.00  0.00    -0.392 OA
ATOM     36  H   LIG    1       -4.930   0.649  -3.918  0.00  0.00    +0.210 HD
ENDBRANCH  12  35
BRANCH  16  37
ATOM     37  O   LIG    1        0.428   4.147  -3.922  0.00  0.00    -0.392 OA
ATOM     38  H   LIG    1        0.868   3.896  -4.750  0.00  0.00    +0.210 HD
ENDBRANCH  16  37
TORSDOF 10
