REMARK  Name = *****
REMARK                            x       y       z     vdW  Elec       q    Type
REMARK                         _______ _______ _______ _____ _____    ______ ____
ROOT
ATOM      1  O   LIG    1        4.994   1.957  -0.167  0.00  0.00    -0.488 OA
ENDROOT
BRANCH   1   5
ATOM      2  C   LIG    1        0.549   0.004  -0.025  0.00  0.00    +0.044 C 
ATOM      3  C   LIG    1        2.039  -0.176  -0.035  0.00  0.00    -0.047 A 
ATOM      4  C   LIG    1        2.885   0.941  -0.098  0.00  0.00    +0.049 A 
ATOM      5  C   LIG    1        4.274   0.790  -0.102  0.00  0.00    +0.121 A 
ATOM      6  C   LIG    1        4.819  -0.494  -0.048  0.00  0.00    +0.049 A 
ATOM      7  C   LIG    1        3.991  -1.624   0.012  0.00  0.00    -0.047 A 
ATOM      8  C   LIG    1        4.609  -2.991   0.044  0.00  0.00    +0.044 C 
ATOM      9  C   LIG    1        2.603  -1.457   0.022  0.00  0.00    +0.007 A 
ENDBRANCH   1   5
BRANCH   1  10
ATOM     10  C   LIG    1        6.415   1.812  -0.195  0.00  0.00    +0.275 C 
BRANCH  10  11
ATOM     11  C   LIG    1        7.081   3.179  -0.264  0.00  0.00    +0.232 C 
ATOM     12  O   LIG    1        8.510   3.025  -0.368  0.00  0.00    -0.442 OA
ATOM     13  C   LIG    1        8.973   3.951  -1.259  0.00  0.00    +0.401 C 
ATOM     14  O   LIG    1       10.144   4.121  -1.541  0.00  0.00    -0.227 OA
ATOM     15  N   LIG    1        7.923   4.629  -1.811  0.00  0.00    -0.278 N 
ATOM     16  H   LIG    1        8.091   5.216  -2.618  0.00  0.00    +0.152 HD
ATOM     17  C   LIG    1        6.699   3.977  -1.493  0.00  0.00    +0.155 C 
ENDBRANCH  10  11
ENDBRANCH   1  10
TORSDOF 3
