REMARK  Name = *****
REMARK                            x       y       z     vdW  Elec       q    Type
REMARK                         _______ _______ _______ _____ _____    ______ ____
ROOT
ATOM      1  C   LIG    1        2.482  -0.123  -0.063  0.00  0.00    +0.139 C 
ATOM      2  C   LIG    1        2.971  -1.534  -0.416  0.00  0.00    +0.167 C 
ATOM      3  C   LIG    1        2.569  -1.892  -1.851  0.00  0.00    +0.175 C 
ATOM      4  C   LIG    1        3.074  -0.804  -2.816  0.00  0.00    +0.178 C 
ATOM      5  O   LIG    1        2.559   0.481  -2.434  0.00  0.00    -0.342 OA
ATOM      6  C   LIG    1        2.995   0.867  -1.137  0.00  0.00    +0.267 C 
ENDROOT
BRANCH   1   7
ATOM      7  N   LIG    1        2.866   0.220   1.327  0.00  0.00    -0.321 NA
ATOM      8  H   LIG    1        3.884   0.296   1.389  0.00  0.00    +0.119 HD
ATOM      9  H   LIG    1        2.541   1.177   1.504  0.00  0.00    +0.119 HD
ENDBRANCH   1   7
BRANCH   2  10
ATOM     10  O   LIG    1        2.406  -2.497   0.483  0.00  0.00    -0.387 OA
ATOM     11  H   LIG    1        2.413  -2.056   1.359  0.00  0.00    +0.210 HD
ENDBRANCH   2  10
BRANCH   3  12
ATOM     12  O   LIG    1        3.101  -3.178  -2.190  0.00  0.00    -0.387 OA
ATOM     13  H   LIG    1        2.897  -3.746  -1.417  0.00  0.00    +0.210 HD
ENDBRANCH   3  12
BRANCH   6  14
ATOM     14  O   LIG    1        2.494   2.167  -0.872  0.00  0.00    -0.366 OA
ATOM     15  H   LIG    1        1.540   2.112  -1.053  0.00  0.00    +0.212 HD
ENDBRANCH   6  14
BRANCH   4  16
ATOM     16  C   LIG    1        2.649  -1.108  -4.260  0.00  0.00    +0.190 C 
BRANCH  16  17
ATOM     17  O   LIG    1        3.288  -2.272  -4.771  0.00  0.00    -0.392 OA
ATOM     18  H   LIG    1        3.259  -2.951  -4.062  0.00  0.00    +0.209 HD
ENDBRANCH  16  17
ENDBRANCH   4  16
TORSDOF 6
