REMARK  Name = *****
REMARK                            x       y       z     vdW  Elec       q    Type
REMARK                         _______ _______ _______ _____ _____    ______ ____
ROOT
ATOM      1  C   LIG    1        2.632  -1.102  -0.184  0.00  0.00    -0.026 A 
ATOM      2  C   LIG    1        3.808  -1.280  -0.953  0.00  0.00    +0.033 A 
ATOM      3  C   LIG    1        4.256  -2.608  -1.160  0.00  0.00    +0.028 A 
ATOM      4  C   LIG    1        3.579  -3.755  -0.677  0.00  0.00    -0.023 A 
ATOM      5  C   LIG    1        4.111  -5.172  -1.005  0.00  0.00    +0.032 C 
ATOM      6  C   LIG    1        3.174  -6.227  -0.459  0.00  0.00    +0.038 C 
ATOM      7  C   LIG    1        2.020  -6.006   0.263  0.00  0.00    +0.051 C 
ATOM      8  C   LIG    1        1.573  -4.671   0.603  0.00  0.00    +0.196 C 
ATOM      9  O   LIG    1        0.565  -4.458   1.268  0.00  0.00    -0.287 OA
ATOM     10  C   LIG    1        1.429  -7.272   0.541  0.00  0.00    +0.011 C 
ATOM     11  C   LIG    1        2.267  -8.245  -0.008  0.00  0.00    +0.049 C 
ATOM     12  C   LIG    1        1.987  -9.617   0.083  0.00  0.00    +0.045 C 
ATOM     13  C   LIG    1        0.812 -10.005   0.749  0.00  0.00    +0.054 C 
ATOM     14  C   LIG    1       -0.044  -9.048   1.298  0.00  0.00    +0.020 C 
ATOM     15  C   LIG    1        0.255  -7.684   1.202  0.00  0.00    +0.012 C 
ATOM     16  N   LIG    1        3.324  -7.586  -0.601  0.00  0.00    -0.357 NA
ATOM     17  H   LIG    1        4.085  -8.047  -1.081  0.00  0.00    +0.166 HD
ATOM     18  C   LIG    1        5.508  -5.371  -0.378  0.00  0.00    +0.022 C 
ATOM     19  C   LIG    1        4.201  -5.337  -2.539  0.00  0.00    +0.022 C 
ATOM     20  C   LIG    1        2.407  -3.545   0.073  0.00  0.00    +0.027 A 
ATOM     21  C   LIG    1        1.964  -2.239   0.326  0.00  0.00    +0.017 A 
ENDROOT
BRANCH   2  22
ATOM     22  N   LIG    1        4.505  -0.175  -1.512  0.00  0.00    -0.330 N 
ATOM     23  C   LIG    1        3.938   0.242  -2.816  0.00  0.00    +0.106 C 
ATOM     24  C   LIG    1        4.539   1.599  -3.216  0.00  0.00    +0.037 C 
ATOM     25  C   LIG    1        6.086   1.562  -3.349  0.00  0.00    +0.060 C 
ATOM     26  C   LIG    1        6.604   1.030  -1.985  0.00  0.00    +0.037 C 
ATOM     27  C   LIG    1        5.976  -0.316  -1.609  0.00  0.00    +0.106 C 
BRANCH  25  28
ATOM     28  N   LIG    1        6.578   0.780  -4.519  0.00  0.00    -0.295 NA
ATOM     29  C   LIG    1        6.060   1.249  -5.835  0.00  0.00    +0.113 C 
ATOM     30  C   LIG    1        6.710   2.539  -6.374  0.00  0.00    +0.175 C 
ATOM     31  O   LIG    1        8.134   2.419  -6.450  0.00  0.00    -0.377 OA
ATOM     32  C   LIG    1        8.676   2.072  -5.171  0.00  0.00    +0.175 C 
ATOM     33  C   LIG    1        8.062   0.759  -4.652  0.00  0.00    +0.113 C 
ENDBRANCH  25  28
ENDBRANCH   2  22
BRANCH   1  35
ATOM     34  C   LIG    1        0.632   0.495  -0.242  0.00  0.00    +0.009 C 
ATOM     35  C   LIG    1        2.073   0.255   0.210  0.00  0.00    +0.033 C 
ENDBRANCH   1  35
BRANCH  13  36
ATOM     36  C   LIG    1        0.487 -11.394   0.865  0.00  0.00    +0.099 C 
ATOM     37  N   LIG    1        0.224 -12.526   0.960  0.00  0.00    -0.191 NA
ENDBRANCH  13  36
TORSDOF 4
