REMARK  Name = *****
REMARK                            x       y       z     vdW  Elec       q    Type
REMARK                         _______ _______ _______ _____ _____    ______ ____
ROOT
ATOM      1  C   LIG    1        0.957   0.419   0.081  0.00  0.00    +0.086 C 
ATOM      2  C   LIG    1        2.380   0.037   0.157  0.00  0.00    +0.103 A 
ATOM      3  O   LIG    1        3.320   1.026   0.075  0.00  0.00    -0.460 OA
ATOM      4  C   LIG    1        4.549   0.414   0.057  0.00  0.00    +0.142 A 
ATOM      5  C   LIG    1        4.375  -0.960   0.162  0.00  0.00    +0.021 A 
ATOM      6  C   LIG    1        5.493  -1.803   0.118  0.00  0.00    +0.023 A 
ATOM      7  C   LIG    1        6.755  -1.265  -0.147  0.00  0.00    +0.022 A 
ATOM      8  C   LIG    1        6.879   0.134  -0.221  0.00  0.00    +0.146 A 
ATOM      9  O   LIG    1        8.149   0.707  -0.498  0.00  0.00    -0.422 OA
ATOM     10  C   LIG    1        9.260  -0.065  -0.803  0.00  0.00    +0.338 C 
ATOM     11  O   LIG    1       10.335   0.419  -1.116  0.00  0.00    -0.245 OA
ATOM     12  C   LIG    1        9.084  -1.521  -0.725  0.00  0.00    +0.096 C 
ATOM     13  C   LIG    1        7.928  -2.116  -0.402  0.00  0.00    -0.033 C 
ATOM     14  C   LIG    1        7.855  -3.619  -0.378  0.00  0.00    +0.045 C 
ATOM     15  C   LIG    1        5.798   1.040  -0.071  0.00  0.00    +0.035 A 
ATOM     16  C   LIG    1        5.968   2.528  -0.065  0.00  0.00    +0.051 C 
ATOM     17  C   LIG    1        2.986  -1.191   0.268  0.00  0.00    +0.053 A 
ENDROOT
TORSDOF 0
