REMARK  Name = *****
REMARK                            x       y       z     vdW  Elec       q    Type
REMARK                         _______ _______ _______ _____ _____    ______ ____
ROOT
ATOM      1  C   LIG    1        7.125   5.458  -4.307  0.00  0.00    +0.035 C 
ATOM      2  N   LIG    1        6.768   5.418  -2.969  0.00  0.00    -0.342 NA
ATOM      3  C   LIG    1        7.771   6.116  -2.290  0.00  0.00    +0.058 C 
ATOM      4  C   LIG    1        8.023   7.232  -3.165  0.00  0.00    +0.020 C 
ATOM      5  C   LIG    1        7.594   6.753  -4.513  0.00  0.00    +0.066 C 
ENDROOT
BRANCH   3   6
ATOM      6  C   LIG    1        8.427   5.520  -1.095  0.00  0.00    -0.001 C 
ATOM      7  C   LIG    1        9.083   6.197  -0.109  0.00  0.00    +0.013 C 
ATOM      8  C   LIG    1        9.877   5.981   0.980  0.00  0.00    +0.039 C 
ATOM      9  C   LIG    1       10.122   4.696   1.106  0.00  0.00    +0.123 C 
ATOM     10  F   LIG    1       10.927   4.346   2.098  0.00  0.00    -0.205 F 
ATOM     11  C   LIG    1        9.554   3.807   0.176  0.00  0.00    +0.039 C 
ATOM     12  C   LIG    1        8.716   4.207  -0.915  0.00  0.00    +0.013 C 
ENDBRANCH   3   6
BRANCH   4  13
ATOM     13  C   LIG    1        8.850   8.697  -2.799  0.00  0.00    -0.015 C 
ATOM     14  C   LIG    1        8.751   8.684  -0.992  0.00  0.00    +0.008 C 
ATOM     15  C   LIG    1        8.697  10.127  -0.034  0.00  0.00    +0.001 C 
ATOM     16  C   LIG    1        8.420  11.704  -0.787  0.00  0.00    +0.000 C 
ATOM     17  C   LIG    1        8.331  11.973  -2.492  0.00  0.00    +0.001 C 
ATOM     18  C   LIG    1        8.508  10.577  -3.466  0.00  0.00    +0.008 C 
ENDBRANCH   4  13
BRANCH   5  19
ATOM     19  C   LIG    1        7.837   7.317  -5.879  0.00  0.00    +0.251 C 
ATOM     20  N   LIG    1        8.286   8.578  -6.063  0.00  0.00    -0.281 N 
ATOM     21  H   LIG    1        9.049   8.690  -6.725  0.00  0.00    +0.155 HD
ATOM     22  O   LIG    1        7.710   6.693  -6.924  0.00  0.00    -0.270 OA
BRANCH  20  23
ATOM     23  C   LIG    1        8.407   9.238  -4.920  0.00  0.00    +0.034 C 
ATOM     24  C   LIG    1        7.003   9.336  -3.698  0.00  0.00    +0.023 C 
ATOM     25  C   LIG    1        7.604   9.970  -2.078  0.00  0.00    +0.002 C 
ATOM     26  C   LIG    1        9.534  10.319  -2.009  0.00  0.00    +0.000 C 
ATOM     27  C   LIG    1       10.636  10.345  -3.284  0.00  0.00    +0.002 C 
ATOM     28  C   LIG    1       10.078   9.826  -4.699  0.00  0.00    +0.023 C 
ENDBRANCH  20  23
ENDBRANCH   5  19
BRANCH   1  30
ATOM     29  C   LIG    1        6.026   4.080  -6.151  0.00  0.00    +0.014 C 
ATOM     30  C   LIG    1        7.188   4.240  -5.198  0.00  0.00    +0.030 C 
ATOM     31  C   LIG    1        8.525   4.010  -5.909  0.00  0.00    +0.014 C 
ENDBRANCH   1  30
BRANCH   2  32
ATOM     32  C   LIG    1        5.511   4.918  -2.368  0.00  0.00    +0.124 C 
BRANCH  32  33
ATOM     33  C   LIG    1        4.240   5.387  -3.115  0.00  0.00    +0.053 C 
BRANCH  33  34
ATOM     34  C   LIG    1        2.890   4.986  -2.494  0.00  0.00    +0.119 C 
BRANCH  34  35
ATOM     35  O   LIG    1        2.878   3.564  -2.430  0.00  0.00    -0.392 OA
ATOM     36  H   LIG    1        2.586   3.211  -3.306  0.00  0.00    +0.210 HD
ENDBRANCH  34  35
BRANCH  34  37
ATOM     37  C   LIG    1        1.647   5.475  -3.262  0.00  0.00    +0.063 C 
BRANCH  37  38
ATOM     38  C   LIG    1        0.299   5.037  -2.648  0.00  0.00    +0.128 C 
BRANCH  38  39
ATOM     39  O   LIG    1       -0.728   5.499  -3.533  0.00  0.00    -0.391 OA
ATOM     40  H   LIG    1       -1.538   4.984  -3.403  0.00  0.00    +0.210 HD
ENDBRANCH  38  39
BRANCH  38  41
ATOM     41  C   LIG    1        0.116   3.547  -2.304  0.00  0.00    +0.151 C 
BRANCH  41  42
ATOM     42  C   LIG    1        0.259   2.525  -3.415  0.00  0.00    +0.307 C 
ATOM     43  O   LIG    1        1.264   2.384  -4.098  0.00  0.00    -0.251 OA
BRANCH  42  44
ATOM     44  O   LIG    1       -0.806   1.699  -3.549  0.00  0.00    -0.481 OA
ATOM     45  H   LIG    1       -1.569   1.824  -2.953  0.00  0.00    +0.295 HD
ENDBRANCH  42  44
ENDBRANCH  41  42
ENDBRANCH  38  41
ENDBRANCH  37  38
ENDBRANCH  34  37
ENDBRANCH  33  34
ENDBRANCH  32  33
ENDBRANCH   2  32
TORSDOF 15
