REMARK  Name = *****
REMARK                            x       y       z     vdW  Elec       q    Type
REMARK                         _______ _______ _______ _____ _____    ______ ____
ROOT
ATOM      1  C   LIG    1        0.906  -0.010  -0.027  0.00  0.00    +0.045 C 
ATOM      2  C   LIG    1        2.444   0.003  -0.101  0.00  0.00    +0.107 C 
ATOM      3  C   LIG    1        2.937   1.410   0.288  0.00  0.00    +0.045 C 
ENDROOT
BRANCH   2   4
ATOM      4  C   LIG    1        2.985  -0.458  -1.513  0.00  0.00    +0.218 C 
ATOM      5 CL   LIG    1        2.427   0.633  -2.839  0.00  0.00    -0.080 Cl
ATOM      6 CL   LIG    1        2.431  -2.125  -1.931  0.00  0.00    -0.080 Cl
ATOM      7 CL   LIG    1        4.790  -0.475  -1.565  0.00  0.00    -0.080 Cl
ENDBRANCH   2   4
BRANCH   2   8
ATOM      8  O   LIG    1        2.910  -0.893   0.935  0.00  0.00    -0.385 OA
ATOM      9  H   LIG    1        2.563  -0.587   1.792  0.00  0.00    +0.210 HD
ENDBRANCH   2   8
TORSDOF 2
