REMARK  Name = *****
REMARK                            x       y       z     vdW  Elec       q    Type
REMARK                         _______ _______ _______ _____ _____    ______ ____
ROOT
ATOM      1  C   LIG    1        0.993  -9.759  -3.847  0.00  0.00    +0.201 C 
ATOM      2  C   LIG    1       -0.004  -9.840  -2.662  0.00  0.00    +0.042 C 
ATOM      3  C   LIG    1       -0.402  -8.440  -2.154  0.00  0.00    +0.025 C 
ATOM      4  C   LIG    1       -1.298 -10.617  -2.932  0.00  0.00    +0.025 C 
ATOM      5  S   LIG    1        0.908 -10.689  -1.286  0.00  0.00    -0.127 S 
ATOM      6  C   LIG    1        2.577 -10.472  -2.054  0.00  0.00    +0.165 C 
ATOM      7  C   LIG    1        3.479  -9.333  -1.520  0.00  0.00    +0.190 C 
ATOM      8  C   LIG    1        2.836  -8.514  -2.676  0.00  0.00    +0.240 C 
ATOM      9  O   LIG    1        2.664  -7.333  -2.937  0.00  0.00    -0.273 OA
ATOM     10  N   LIG    1        2.328  -9.633  -3.248  0.00  0.00    -0.271 N 
ENDROOT
BRANCH   7  11
ATOM     11  N   LIG    1        3.238  -8.828  -0.135  0.00  0.00    -0.300 N 
ATOM     12  H   LIG    1        2.914  -7.877  -0.007  0.00  0.00    +0.150 HD
ATOM     13  C   LIG    1        3.412  -9.626   0.983  0.00  0.00    +0.235 C 
ATOM     14  O   LIG    1        3.772 -10.802   0.893  0.00  0.00    -0.274 OA
BRANCH  13  15
ATOM     15  C   LIG    1        3.129  -8.925   2.352  0.00  0.00    +0.168 C 
BRANCH  15  16
ATOM     16  C   LIG    1        1.682  -9.087   2.791  0.00  0.00    -0.022 A 
ATOM     17  C   LIG    1        0.838  -7.971   2.926  0.00  0.00    +0.006 A 
ATOM     18  C   LIG    1       -0.493  -8.127   3.329  0.00  0.00    +0.000 A 
ATOM     19  C   LIG    1       -0.995  -9.397   3.608  0.00  0.00    +0.000 A 
ATOM     20  C   LIG    1       -0.168 -10.510   3.489  0.00  0.00    +0.000 A 
ATOM     21  C   LIG    1        1.159 -10.357   3.085  0.00  0.00    +0.006 A 
ENDBRANCH  15  16
BRANCH  15  22
ATOM     22  N   LIG    1        4.058  -9.462   3.370  0.00  0.00    -0.316 NA
ATOM     23  H   LIG    1        3.710  -9.223   4.297  0.00  0.00    +0.119 HD
ATOM     24  H   LIG    1        4.019 -10.483   3.307  0.00  0.00    +0.119 HD
ENDBRANCH  15  22
ENDBRANCH  13  15
ENDBRANCH   7  11
BRANCH   1  25
ATOM     25  C   LIG    1        1.099 -11.045  -4.683  0.00  0.00    +0.332 C 
ATOM     26  O   LIG    1        1.818 -11.996  -4.384  0.00  0.00    -0.249 OA
BRANCH  25  27
ATOM     27  O   LIG    1        0.288 -11.045  -5.779  0.00  0.00    -0.423 OA
BRANCH  27  28
ATOM     28  C   LIG    1        0.350 -12.302  -6.481  0.00  0.00    +0.370 C 
ATOM     29  C   LIG    1       -0.617 -13.269  -5.798  0.00  0.00    +0.100 C 
BRANCH  28  30
ATOM     30  O   LIG    1       -0.049 -12.192  -7.851  0.00  0.00    -0.394 OA
BRANCH  30  31
ATOM     31  C   LIG    1        0.937 -11.777  -8.681  0.00  0.00    +0.513 C 
ATOM     32  O   LIG    1        2.053 -11.402  -8.357  0.00  0.00    -0.203 OA
BRANCH  31  33
ATOM     33  O   LIG    1        0.428 -11.759  -9.942  0.00  0.00    -0.434 OA
BRANCH  33  35
ATOM     34  C   LIG    1        0.692  -9.403 -10.308  0.00  0.00    +0.048 C 
ATOM     35  C   LIG    1        1.019 -10.795 -10.824  0.00  0.00    +0.232 C 
ENDBRANCH  33  35
ENDBRANCH  31  33
ENDBRANCH  30  31
ENDBRANCH  28  30
ENDBRANCH  27  28
ENDBRANCH  25  27
ENDBRANCH   1  25
TORSDOF 11
