REMARK  Name = *****
REMARK                            x       y       z     vdW  Elec       q    Type
REMARK                         _______ _______ _______ _____ _____    ______ ____
ROOT
ATOM      1  C   LIG    1        0.980   0.113  -0.003  0.00  0.00    +0.047 C 
ATOM      2  C   LIG    1        2.459   0.069  -0.000  0.00  0.00    -0.013 A 
ATOM      3  C   LIG    1        3.273  -1.043   0.001  0.00  0.00    +0.108 A 
ATOM      4  N   LIG    1        4.556  -0.581   0.006  0.00  0.00    -0.284 N 
ATOM      5  H   LIG    1        5.418  -1.117   0.011  0.00  0.00    +0.188 HD
ATOM      6  N   LIG    1        4.640   0.758   0.006  0.00  0.00    -0.182 NA
ATOM      7  C   LIG    1        3.364   1.153   0.001  0.00  0.00    +0.137 A 
ENDROOT
TORSDOF 0
