REMARK  Name = *****
REMARK                            x       y       z     vdW  Elec       q    Type
REMARK                         _______ _______ _______ _____ _____    ______ ____
ROOT
ATOM      1  C   LIG    1        2.756  14.095  -1.315  0.00  0.00    +0.061 A 
ATOM      2  C   LIG    1        3.100  14.730  -0.087  0.00  0.00    +0.049 A 
ATOM      3  I   LIG    1        4.258  16.545  -0.009  0.00  0.00    -0.041 I 
ATOM      4  C   LIG    1        2.338  14.509   1.059  0.00  0.00    +0.066 A 
ATOM      5  C   LIG    1        1.056  14.000   0.840  0.00  0.00    +0.040 A 
ATOM      6  I   LIG    1       -0.420  15.915   0.961  0.00  0.00    -0.042 I 
ATOM      7  C   LIG    1        0.656  13.295  -0.318  0.00  0.00    +0.065 A 
ATOM      8  C   LIG    1        1.537  13.379  -1.409  0.00  0.00    +0.049 A 
ATOM      9  I   LIG    1        0.765  12.967  -3.366  0.00  0.00    -0.041 I 
ENDROOT
BRANCH   1  11
ATOM     10  C   LIG    1        4.266  14.892  -3.100  0.00  0.00    +0.243 C 
ATOM     11  N   LIG    1        3.776  13.881  -2.287  0.00  0.00    -0.282 N 
ATOM     12  H   LIG    1        3.794  12.961  -2.729  0.00  0.00    +0.155 HD
ATOM     13  O   LIG    1        3.780  16.017  -3.177  0.00  0.00    -0.273 OA
BRANCH  10  14
ATOM     14  C   LIG    1        5.482  14.475  -3.930  0.00  0.00    +0.255 C 
BRANCH  14  16
ATOM     15  C   LIG    1        6.262  13.903  -6.064  0.00  0.00    +0.194 C 
ATOM     16  O   LIG    1        5.112  14.122  -5.255  0.00  0.00    -0.374 OA
ENDBRANCH  14  16
ENDBRANCH  10  14
ENDBRANCH   1  11
BRANCH   4  17
ATOM     17  C   LIG    1        3.039  14.292   2.391  0.00  0.00    +0.248 C 
ATOM     18  N   LIG    1        2.327  14.047   3.579  0.00  0.00    -0.298 N 
ATOM     19  C   LIG    1        0.893  13.986   3.660  0.00  0.00    +0.132 C 
ATOM     20  O   LIG    1        4.277  14.258   2.380  0.00  0.00    -0.270 OA
BRANCH  18  21
ATOM     21  C   LIG    1        3.032  13.958   4.881  0.00  0.00    +0.141 C 
BRANCH  21  22
ATOM     22  C   LIG    1        2.596  14.982   5.972  0.00  0.00    +0.157 C 
BRANCH  22  23
ATOM     23  O   LIG    1        2.796  16.318   5.497  0.00  0.00    -0.388 OA
ATOM     24  H   LIG    1        2.426  16.892   6.197  0.00  0.00    +0.210 HD
ENDBRANCH  22  23
BRANCH  22  25
ATOM     25  C   LIG    1        1.147  14.874   6.489  0.00  0.00    +0.188 C 
BRANCH  25  26
ATOM     26  O   LIG    1        0.886  15.910   7.439  0.00  0.00    -0.392 OA
ATOM     27  H   LIG    1       -0.046  16.175   7.304  0.00  0.00    +0.209 HD
ENDBRANCH  25  26
ENDBRANCH  22  25
ENDBRANCH  21  22
ENDBRANCH  18  21
ENDBRANCH   4  17
BRANCH   7  28
ATOM     28  C   LIG    1       -0.529  12.355  -0.202  0.00  0.00    +0.246 C 
ATOM     29  N   LIG    1       -1.438  12.716   0.831  0.00  0.00    -0.309 N 
ATOM     30  H   LIG    1       -1.385  13.634   1.252  0.00  0.00    +0.149 HD
ATOM     31  O   LIG    1       -0.623  11.392  -0.854  0.00  0.00    -0.270 OA
BRANCH  29  32
ATOM     32  C   LIG    1       -2.626  11.926   1.181  0.00  0.00    +0.138 C 
BRANCH  32  33
ATOM     33  C   LIG    1       -2.406  10.879   2.297  0.00  0.00    +0.157 C 
BRANCH  33  34
ATOM     34  O   LIG    1       -1.371   9.961   1.946  0.00  0.00    -0.388 OA
ATOM     35  H   LIG    1       -1.308   9.277   2.632  0.00  0.00    +0.210 HD
ENDBRANCH  33  34
BRANCH  33  36
ATOM     36  C   LIG    1       -3.704  10.107   2.598  0.00  0.00    +0.188 C 
BRANCH  36  37
ATOM     37  O   LIG    1       -4.754  10.977   3.000  0.00  0.00    -0.392 OA
ATOM     38  H   LIG    1       -4.785  10.983   3.973  0.00  0.00    +0.209 HD
ENDBRANCH  36  37
ENDBRANCH  33  36
ENDBRANCH  32  33
ENDBRANCH  29  32
ENDBRANCH   7  28
TORSDOF 15
