REMARK  Name = *****
REMARK                            x       y       z     vdW  Elec       q    Type
REMARK                         _______ _______ _______ _____ _____    ______ ____
ROOT
ATOM      1  C   LIG    1        4.222  -0.780  -3.032  0.00  0.00    +0.117 C 
ENDROOT
BRANCH   1   6
ATOM      2  C   LIG    1        0.640   0.159   0.177  0.00  0.00    +0.105 C 
ATOM      3  N   LIG    1        2.079   0.252  -0.071  0.00  0.00    -0.303 NA
ATOM      4  C   LIG    1        2.674  -1.084  -0.262  0.00  0.00    +0.099 C 
ATOM      5  C   LIG    1        2.401  -1.726  -1.643  0.00  0.00    +0.100 C 
ATOM      6  N   LIG    1        2.744  -0.884  -2.819  0.00  0.00    -0.289 NA
ATOM      7  C   LIG    1        2.097   0.435  -2.616  0.00  0.00    +0.100 C 
ATOM      8  C   LIG    1        2.371   1.099  -1.244  0.00  0.00    +0.099 C 
ENDBRANCH   1   6
BRANCH   1   9
ATOM      9  C   LIG    1        4.607   0.159  -4.186  0.00  0.00    -0.026 A 
ATOM     10  C   LIG    1        4.147  -0.064  -5.495  0.00  0.00    +0.005 A 
ATOM     11  C   LIG    1        4.538   0.774  -6.543  0.00  0.00    +0.000 A 
ATOM     12  C   LIG    1        5.387   1.848  -6.299  0.00  0.00    +0.000 A 
ATOM     13  C   LIG    1        5.844   2.093  -5.004  0.00  0.00    +0.000 A 
ATOM     14  C   LIG    1        5.457   1.254  -3.955  0.00  0.00    +0.005 A 
ENDBRANCH   1   9
BRANCH   1  15
ATOM     15  C   LIG    1        4.904  -2.145  -3.241  0.00  0.00    -0.026 A 
ATOM     16  C   LIG    1        4.263  -3.206  -3.906  0.00  0.00    +0.005 A 
ATOM     17  C   LIG    1        4.883  -4.447  -4.044  0.00  0.00    +0.000 A 
ATOM     18  C   LIG    1        6.172  -4.638  -3.553  0.00  0.00    +0.000 A 
ATOM     19  C   LIG    1        6.842  -3.587  -2.931  0.00  0.00    +0.000 A 
ATOM     20  C   LIG    1        6.215  -2.348  -2.776  0.00  0.00    +0.005 A 
ENDBRANCH   1  15
TORSDOF 3
