REMARK  Name = *****
REMARK                            x       y       z     vdW  Elec       q    Type
REMARK                         _______ _______ _______ _____ _____    ______ ____
ROOT
ATOM      1  C   LIG    1        5.343  -1.953  -1.515  0.00  0.00    +0.383 C 
ATOM      2  C   LIG    1        6.337  -1.019  -2.240  0.00  0.00    +0.284 C 
ATOM      3  O   LIG    1        6.449   0.162  -1.880  0.00  0.00    -0.269 OA
ATOM      4  N   LIG    1        7.051  -1.509  -3.344  0.00  0.00    -0.269 N 
ATOM      5  C   LIG    1        7.874  -0.536  -4.054  0.00  0.00    +0.138 C 
ATOM      6  C   LIG    1        6.854  -2.806  -3.916  0.00  0.00    +0.045 A 
ATOM      7  C   LIG    1        6.531  -3.950  -3.162  0.00  0.00    +0.023 A 
ATOM      8  C   LIG    1        6.227  -5.168  -3.800  0.00  0.00    +0.032 A 
ATOM      9  C   LIG    1        6.342  -5.282  -5.180  0.00  0.00    +0.042 A 
ATOM     10  C   LIG    1        6.739  -4.190  -5.938  0.00  0.00    +0.022 A 
ATOM     11 CL   LIG    1        6.027  -6.788  -5.947  0.00  0.00    -0.084 Cl
ATOM     12  C   LIG    1        6.606  -3.961  -1.672  0.00  0.00    +0.079 C 
ATOM     13  C   LIG    1        6.982  -2.964  -5.312  0.00  0.00    +0.025 A 
ATOM     14  N   LIG    1        6.097  -3.054  -0.913  0.00  0.00    -0.232 NA
ENDROOT
BRANCH  12  15
ATOM     15  C   LIG    1        7.301  -5.103  -0.986  0.00  0.00    +0.001 A 
ATOM     16  C   LIG    1        6.846  -5.505   0.277  0.00  0.00    +0.010 A 
ATOM     17  C   LIG    1        7.429  -6.598   0.920  0.00  0.00    +0.001 A 
ATOM     18  C   LIG    1        8.471  -7.293   0.308  0.00  0.00    +0.000 A 
ATOM     19  C   LIG    1        8.948  -6.881  -0.936  0.00  0.00    +0.001 A 
ATOM     20  C   LIG    1        8.375  -5.780  -1.578  0.00  0.00    +0.010 A 
ENDBRANCH  12  15
BRANCH   1  21
ATOM     21  O   LIG    1        4.252  -2.287  -2.376  0.00  0.00    -0.416 OA
BRANCH  21  24
ATOM     22  C   LIG    1        2.234  -2.858  -4.058  0.00  0.00    +0.135 C 
ATOM     23  N   LIG    1        2.067  -2.869  -2.611  0.00  0.00    -0.274 N 
ATOM     24  C   LIG    1        3.103  -2.602  -1.732  0.00  0.00    +0.405 C 
ATOM     25  O   LIG    1        2.972  -2.644  -0.511  0.00  0.00    -0.226 OA
ATOM     26  C   LIG    1        0.732  -3.050  -2.082  0.00  0.00    +0.135 C 
ENDBRANCH  21  24
ENDBRANCH   1  21
TORSDOF 3
