REMARK  Name = *****
REMARK                            x       y       z     vdW  Elec       q    Type
REMARK                         _______ _______ _______ _____ _____    ______ ____
ROOT
ATOM      1  O   LIG    1        0.760   2.686   3.276  0.00  0.00    -0.247 OA
ATOM      2  C   LIG    1        1.582   2.082   2.584  0.00  0.00    +0.327 C 
ATOM      3  N   LIG    1        2.510   1.245   3.110  0.00  0.00    -0.274 N 
ATOM      4  H   LIG    1        2.560   1.189   4.117  0.00  0.00    +0.173 HD
ATOM      5  C   LIG    1        3.564   0.720   2.424  0.00  0.00    +0.275 C 
ATOM      6  O   LIG    1        4.519   0.216   3.008  0.00  0.00    -0.266 OA
ATOM      7  C   LIG    1        3.493   0.828   0.907  0.00  0.00    +0.111 C 
ATOM      8  C   LIG    1        2.515   1.600   0.411  0.00  0.00    +0.116 C 
ATOM      9  N   LIG    1        1.613   2.236   1.227  0.00  0.00    -0.312 N 
ATOM     10  H   LIG    1        0.914   2.860   0.843  0.00  0.00    +0.170 HD
ENDROOT
BRANCH   7  11
ATOM     11  N   LIG    1        4.460   0.201   0.119  0.00  0.00    -0.322 N 
BRANCH  11  12
ATOM     12  C   LIG    1        5.759   0.842  -0.216  0.00  0.00    +0.121 C 
BRANCH  12  13
ATOM     13  C   LIG    1        6.014   2.279   0.270  0.00  0.00    +0.127 C 
ATOM     14 CL   LIG    1        6.312   2.463   2.011  0.00  0.00    -0.124 Cl
ENDBRANCH  12  13
ENDBRANCH  11  12
BRANCH  11  15
ATOM     15  C   LIG    1        4.321  -1.185  -0.403  0.00  0.00    +0.121 C 
BRANCH  15  16
ATOM     16  C   LIG    1        3.105  -2.009   0.040  0.00  0.00    +0.127 C 
ATOM     17 CL   LIG    1        3.299  -2.705   1.667  0.00  0.00    -0.124 Cl
ENDBRANCH  15  16
ENDBRANCH  11  15
ENDBRANCH   7  11
TORSDOF 5
