REMARK  Name = *****
REMARK                            x       y       z     vdW  Elec       q    Type
REMARK                         _______ _______ _______ _____ _____    ______ ____
ROOT
ATOM      1  P   LIG    1        1.702   0.493   3.784  0.00  0.00    +0.216 P 
ATOM      2  O   LIG    1        2.626  -0.099   2.762  0.00  0.00    -0.290 OA
ENDROOT
BRANCH   1   3
ATOM      3  O   LIG    1        1.871   2.101   3.925  0.00  0.00    -0.286 OA
BRANCH   3   4
ATOM      4  C   LIG    1        2.889   2.727   3.147  0.00  0.00    +0.320 C 
BRANCH   4   5
ATOM      5  C   LIG    1        2.224   3.711   2.145  0.00  0.00    +0.052 C 
ATOM      6  C   LIG    1        3.240   4.269   1.139  0.00  0.00    +0.013 C 
ATOM      7  C   LIG    1        1.506   4.878   2.834  0.00  0.00    +0.013 C 
ENDBRANCH   4   5
BRANCH   4   8
ATOM      8  O   LIG    1        3.765   3.471   3.991  0.00  0.00    -0.434 OA
BRANCH   8   9
ATOM      9  C   LIG    1        4.809   2.801   4.561  0.00  0.00    +0.309 C 
ATOM     10  O   LIG    1        5.007   1.603   4.492  0.00  0.00    -0.251 OA
BRANCH   9  12
ATOM     11  C   LIG    1        5.222   5.196   5.238  0.00  0.00    +0.015 C 
ATOM     12  C   LIG    1        5.729   3.762   5.293  0.00  0.00    +0.117 C 
ENDBRANCH   9  12
ENDBRANCH   8   9
ENDBRANCH   4   8
ENDBRANCH   3   4
ENDBRANCH   1   3
BRANCH   1  13
ATOM     13  C   LIG    1       -0.039   0.329   3.406  0.00  0.00    +0.193 C 
BRANCH  13  14
ATOM     14  C   LIG    1       -0.463  -1.104   3.238  0.00  0.00    +0.226 C 
ATOM     15  N   LIG    1       -1.727  -1.472   3.634  0.00  0.00    -0.287 N 
ATOM     16  C   LIG    1       -2.074  -2.895   3.752  0.00  0.00    +0.185 C 
ATOM     17  C   LIG    1       -3.234  -2.899   4.748  0.00  0.00    +0.039 C 
ATOM     18  C   LIG    1       -3.975  -1.581   4.451  0.00  0.00    +0.012 C 
ATOM     19  C   LIG    1       -2.789  -0.629   4.188  0.00  0.00    +0.112 C 
ATOM     20  O   LIG    1        0.263  -1.943   2.713  0.00  0.00    -0.275 OA
BRANCH  18  21
ATOM     21  C   LIG    1       -4.929  -1.150   5.597  0.00  0.00    -0.006 C 
ATOM     22  C   LIG    1       -5.500   0.271   5.423  0.00  0.00    +0.004 C 
ATOM     23  C   LIG    1       -6.687   0.363   4.465  0.00  0.00    +0.000 C 
ATOM     24  C   LIG    1       -7.796  -0.606   4.854  0.00  0.00    +0.000 C 
ATOM     25  C   LIG    1       -7.271  -2.034   4.916  0.00  0.00    +0.000 C 
ATOM     26  C   LIG    1       -6.074  -2.159   5.859  0.00  0.00    +0.004 C 
ENDBRANCH  18  21
BRANCH  16  27
ATOM     27  C   LIG    1       -2.479  -3.566   2.423  0.00  0.00    +0.326 C 
ATOM     28  O   LIG    1       -3.259  -4.494   2.346  0.00  0.00    -0.249 OA
BRANCH  27  29
ATOM     29  O   LIG    1       -1.829  -3.095   1.332  0.00  0.00    -0.479 OA
ATOM     30  H   LIG    1       -1.104  -2.477   1.569  0.00  0.00    +0.295 HD
ENDBRANCH  27  29
ENDBRANCH  16  27
ENDBRANCH  13  14
ENDBRANCH   1  13
BRANCH   1  31
ATOM     31  C   LIG    1        1.956  -0.117   5.456  0.00  0.00    +0.098 C 
BRANCH  31  32
ATOM     32  C   LIG    1        0.705  -0.234   6.325  0.00  0.00    +0.010 C 
BRANCH  32  33
ATOM     33  C   LIG    1        1.019  -0.770   7.718  0.00  0.00    +0.005 C 
BRANCH  33  34
ATOM     34  C   LIG    1       -0.251  -0.900   8.565  0.00  0.00    +0.035 C 
BRANCH  34  35
ATOM     35  C   LIG    1        0.049  -1.423   9.946  0.00  0.00    -0.047 A 
ATOM     36  C   LIG    1        0.059  -2.801  10.200  0.00  0.00    +0.003 A 
ATOM     37  C   LIG    1        0.347  -3.283  11.478  0.00  0.00    +0.000 A 
ATOM     38  C   LIG    1        0.634  -2.394  12.512  0.00  0.00    +0.000 A 
ATOM     39  C   LIG    1        0.635  -1.022  12.268  0.00  0.00    +0.000 A 
ATOM     40  C   LIG    1        0.347  -0.538  10.991  0.00  0.00    +0.003 A 
ENDBRANCH  34  35
ENDBRANCH  33  34
ENDBRANCH  32  33
ENDBRANCH  31  32
ENDBRANCH   1  31
TORSDOF 16
