REMARK  Name = *****
REMARK                            x       y       z     vdW  Elec       q    Type
REMARK                         _______ _______ _______ _____ _____    ______ ____
ROOT
ATOM      1  C   LIG    1        4.704   0.951  -1.107  0.00  0.00    +0.023 C 
ATOM      2  N   LIG    1        5.341   2.166  -0.998  0.00  0.00    -0.339 N 
ATOM      3  H   LIG    1        4.792   3.015  -0.904  0.00  0.00    +0.168 HD
ATOM      4  C   LIG    1        6.698   2.314  -1.020  0.00  0.00    +0.158 C 
ATOM      5  S   LIG    1        7.410   3.811  -0.905  0.00  0.00    -0.013 S 
ATOM      6  N   LIG    1        7.433   1.172  -1.141  0.00  0.00    -0.303 N 
ATOM      7  H   LIG    1        8.440   1.243  -1.155  0.00  0.00    +0.171 HD
ATOM      8  C   LIG    1        6.905  -0.087  -1.234  0.00  0.00    +0.252 C 
ATOM      9  O   LIG    1        7.595  -1.095  -1.326  0.00  0.00    -0.268 OA
ATOM     10  C   LIG    1        5.430  -0.171  -1.218  0.00  0.00    +0.091 C 
ENDROOT
BRANCH   1  11
ATOM     11  C   LIG    1        3.196   0.952  -1.073  0.00  0.00    +0.053 C 
BRANCH  11  13
ATOM     12  C   LIG    1        1.062   1.678  -2.207  0.00  0.00    +0.004 C 
ATOM     13  C   LIG    1        2.582   1.697  -2.262  0.00  0.00    +0.003 C 
ENDBRANCH  11  13
ENDBRANCH   1  11
TORSDOF 2
