REMARK  Name = *****
REMARK                            x       y       z     vdW  Elec       q    Type
REMARK                         _______ _______ _______ _____ _____    ______ ____
ROOT
ATOM      1  C   LIG    1        2.934  -1.473  -0.731  0.00  0.00    +0.096 A 
ATOM      2  C   LIG    1        2.363  -2.101  -1.850  0.00  0.00    +0.284 A 
ATOM      3  C   LIG    1        2.752  -3.392  -2.257  0.00  0.00    +0.097 A 
ATOM      4  C   LIG    1        3.731  -4.090  -1.537  0.00  0.00    +0.061 A 
ATOM      5  C   LIG    1        4.298  -3.472  -0.412  0.00  0.00    +0.013 A 
ATOM      6  C   LIG    1        3.900  -2.188  -0.009  0.00  0.00    +0.019 A 
ENDROOT
BRANCH   4   7
ATOM      7  C   LIG    1        4.154  -5.477  -1.970  0.00  0.00    +0.418 C 
ATOM      8  F   LIG    1        4.664  -5.489  -3.231  0.00  0.00    -0.166 F 
ATOM      9  F   LIG    1        3.116  -6.356  -1.972  0.00  0.00    -0.166 F 
ATOM     10  F   LIG    1        5.110  -6.024  -1.171  0.00  0.00    -0.166 F 
ENDBRANCH   4   7
BRANCH   2  11
ATOM     11  N   LIG    1        1.377  -1.430  -2.678  0.00  0.00    +0.080 N 
ATOM     12  O   LIG    1        0.294  -2.009  -2.840  0.00  0.00    -0.576 OA
ATOM     13  O   LIG    1        1.739  -0.387  -3.240  0.00  0.00    +0.042 OA
ENDBRANCH   2  11
BRANCH   1  15
ATOM     14  O   LIG    1        1.304   0.188  -0.461  0.00  0.00    -0.291 OA
ATOM     15  C   LIG    1        2.469  -0.138  -0.249  0.00  0.00    +0.187 C 
BRANCH  15  16
ATOM     16  C   LIG    1        3.403   0.775   0.517  0.00  0.00    +0.192 C 
ATOM     17  C   LIG    1        3.670   2.050  -0.238  0.00  0.00    +0.151 C 
ATOM     18  O   LIG    1        4.669   2.163  -0.951  0.00  0.00    -0.296 OA
ATOM     19  C   LIG    1        2.625   3.139  -0.164  0.00  0.00    +0.076 C 
ATOM     20  C   LIG    1        2.267   3.418   1.289  0.00  0.00    +0.015 C 
ATOM     21  C   LIG    1        1.808   2.160   2.013  0.00  0.00    +0.076 C 
ATOM     22  C   LIG    1        2.853   1.069   1.893  0.00  0.00    +0.151 C 
ATOM     23  O   LIG    1        3.164   0.367   2.856  0.00  0.00    -0.296 OA
ENDBRANCH  15  16
ENDBRANCH   1  15
TORSDOF 4
