REMARK  Name = *****
REMARK                            x       y       z     vdW  Elec       q    Type
REMARK                         _______ _______ _______ _____ _____    ______ ____
ROOT
ATOM      1  C   LIG    1        4.891  -0.304  -2.282  0.00  0.00    +0.034 A 
ATOM      2  C   LIG    1        5.452  -1.579  -2.361  0.00  0.00    +0.027 A 
ATOM      3  C   LIG    1        6.766  -1.809  -1.937  0.00  0.00    +0.047 A 
ATOM      4  C   LIG    1        7.544  -0.769  -1.435  0.00  0.00    +0.121 A 
ATOM      5  C   LIG    1        6.960   0.495  -1.296  0.00  0.00    +0.047 A 
ATOM      6  C   LIG    1        5.644   0.728  -1.720  0.00  0.00    +0.027 A 
ENDROOT
BRANCH   1   9
ATOM      7  C   LIG    1        1.577   0.820  -3.693  0.00  0.00    +0.109 C 
ATOM      8  C   LIG    1        2.946   1.024  -3.108  0.00  0.00    +0.214 C 
ATOM      9  N   LIG    1        3.590  -0.164  -2.796  0.00  0.00    -0.286 N 
ATOM     10  H   LIG    1        3.122  -0.993  -3.086  0.00  0.00    +0.155 HD
ATOM     11  O   LIG    1        3.414   2.144  -3.014  0.00  0.00    -0.276 OA
ENDBRANCH   1   9
BRANCH   4  12
ATOM     12  O   LIG    1        8.869  -0.857  -1.090  0.00  0.00    -0.489 OA
BRANCH  12  13
ATOM     13  C   LIG    1        9.512  -2.130  -1.279  0.00  0.00    +0.261 C 
BRANCH  13  14
ATOM     14  C   LIG    1       11.032  -1.955  -1.438  0.00  0.00    +0.166 C 
BRANCH  14  15
ATOM     15  O   LIG    1       11.296  -1.133  -2.588  0.00  0.00    -0.387 OA
ATOM     16  H   LIG    1       10.862  -0.274  -2.419  0.00  0.00    +0.210 HD
ENDBRANCH  14  15
BRANCH  14  17
ATOM     17  C   LIG    1       11.658  -1.320  -0.190  0.00  0.00    +0.115 C 
BRANCH  17  18
ATOM     18  N   LIG    1       13.107  -1.117  -0.335  0.00  0.00    -0.311 NA
ATOM     19  H   LIG    1       13.282  -0.558  -1.174  0.00  0.00    +0.122 HD
BRANCH  18  20
ATOM     20  C   LIG    1       13.710  -0.507   0.855  0.00  0.00    +0.048 C 
ATOM     21  C   LIG    1       13.088   0.841   1.235  0.00  0.00    +0.024 C 
ATOM     22  C   LIG    1       15.213  -0.326   0.628  0.00  0.00    +0.024 C 
ENDBRANCH  18  20
ENDBRANCH  17  18
ENDBRANCH  14  17
ENDBRANCH  13  14
ENDBRANCH  12  13
ENDBRANCH   4  12
TORSDOF 8
