REMARK  Name = *****
REMARK                            x       y       z     vdW  Elec       q    Type
REMARK                         _______ _______ _______ _____ _____    ______ ____
ROOT
ATOM      1  C   LIG    1       -1.121  -2.882   0.712  0.00  0.00    +0.055 C 
ATOM      2  C   LIG    1       -1.140  -2.473  -0.769  0.00  0.00    +0.024 C 
ENDROOT
BRANCH   1   3
ATOM      3  N   LIG    1        0.200  -2.519   1.269  0.00  0.00    -0.310 NA
ATOM      4  H   LIG    1        0.932  -2.871   0.647  0.00  0.00    +0.122 HD
BRANCH   3   5
ATOM      5  C   LIG    1        0.481  -3.057   2.610  0.00  0.00    +0.122 C 
BRANCH   5   6
ATOM      6  C   LIG    1        0.402  -4.585   2.793  0.00  0.00    +0.244 C 
BRANCH   6   7
ATOM      7  O   LIG    1        1.086  -5.315   1.759  0.00  0.00    -0.487 OA
BRANCH   7   9
ATOM      8  C   LIG    1        1.772  -7.476   0.947  0.00  0.00    +0.162 A 
ATOM      9  C   LIG    1        1.092  -6.691   1.906  0.00  0.00    +0.162 A 
ATOM     10  C   LIG    1        0.437  -7.346   2.966  0.00  0.00    +0.049 A 
ATOM     11  C   LIG    1        0.507  -8.731   3.122  0.00  0.00    +0.004 A 
ATOM     12  C   LIG    1        1.220  -9.492   2.210  0.00  0.00    +0.004 A 
ATOM     13  C   LIG    1        1.845  -8.871   1.128  0.00  0.00    +0.049 A 
BRANCH   8  14
ATOM     14  O   LIG    1        2.347  -6.849  -0.144  0.00  0.00    -0.489 OA
BRANCH  14  16
ATOM     15  C   LIG    1        2.499  -6.833  -2.577  0.00  0.00    +0.048 C 
ATOM     16  C   LIG    1        2.478  -7.676  -1.312  0.00  0.00    +0.226 C 
ENDBRANCH  14  16
ENDBRANCH   8  14
ENDBRANCH   7   9
ENDBRANCH   6   7
ENDBRANCH   5   6
ENDBRANCH   3   5
ENDBRANCH   1   3
BRANCH   1  17
ATOM     17  C   LIG    1       -2.272  -2.196   1.484  0.00  0.00    +0.053 C 
BRANCH  17  18
ATOM     18  C   LIG    1       -3.683  -2.595   1.102  0.00  0.00    -0.044 A 
ATOM     19  C   LIG    1       -4.460  -1.785   0.270  0.00  0.00    +0.036 A 
ATOM     20  C   LIG    1       -5.824  -2.049   0.076  0.00  0.00    +0.147 A 
ATOM     21  C   LIG    1       -6.430  -3.177   0.653  0.00  0.00    +0.146 A 
ATOM     22  C   LIG    1       -5.630  -4.005   1.460  0.00  0.00    +0.048 A 
ATOM     23  C   LIG    1       -4.280  -3.720   1.683  0.00  0.00    +0.007 A 
BRANCH  20  24
ATOM     24  S   LIG    1       -6.802  -0.828  -0.764  0.00  0.00    +0.059 S 
ATOM     25  O   LIG    1       -5.910   0.104  -1.383  0.00  0.00    -0.153 OA
ATOM     26  O   LIG    1       -7.873  -0.384   0.142  0.00  0.00    -0.153 OA
BRANCH  24  27
ATOM     27  N   LIG    1       -7.553  -1.666  -2.018  0.00  0.00    -0.203 NA
ATOM     28  H   LIG    1       -7.186  -2.589  -2.163  0.00  0.00    +0.144 HD
ATOM     29  H   LIG    1       -8.566  -1.687  -1.810  0.00  0.00    +0.144 HD
ENDBRANCH  24  27
ENDBRANCH  20  24
BRANCH  21  30
ATOM     30  O   LIG    1       -7.746  -3.414   0.383  0.00  0.00    -0.493 OA
ATOM     31  C   LIG    1       -8.372  -4.506   1.054  0.00  0.00    +0.277 C 
ENDBRANCH  21  30
ENDBRANCH  17  18
ENDBRANCH   1  17
TORSDOF 12
