REMARK  Name = *****
REMARK                            x       y       z     vdW  Elec       q    Type
REMARK                         _______ _______ _______ _____ _____    ______ ____
ROOT
ATOM      1  C   LIG    1        5.127  -2.954   0.259  0.00  0.00    +0.044 C 
ENDROOT
BRANCH   1   2
ATOM      2  C   LIG    1        4.697  -1.511   0.542  0.00  0.00    +0.105 C 
BRANCH   2   5
ATOM      3  C   LIG    1        1.432  -1.715   2.446  0.00  0.00    +0.109 C 
ATOM      4  C   LIG    1        2.889  -1.944   2.166  0.00  0.00    +0.210 C 
ATOM      5  N   LIG    1        3.318  -1.402   0.974  0.00  0.00    -0.316 N 
ATOM      6  H   LIG    1        2.729  -0.719   0.509  0.00  0.00    +0.149 HD
ATOM      7  O   LIG    1        3.603  -2.606   2.911  0.00  0.00    -0.276 OA
ENDBRANCH   2   5
ENDBRANCH   1   2
BRANCH   1   8
ATOM      8  C   LIG    1        4.226  -3.704  -0.719  0.00  0.00    +0.199 C 
BRANCH   8   9
ATOM      9  S   LIG    1        4.181  -2.955  -2.342  0.00  0.00    +0.080 S 
ATOM     10  O   LIG    1        5.405  -3.262  -3.051  0.00  0.00    -0.147 OA
ATOM     11  O   LIG    1        3.635  -1.623  -2.283  0.00  0.00    -0.147 OA
BRANCH   9  12
ATOM     12  O   LIG    1        3.000  -3.853  -2.976  0.00  0.00    -0.254 OA
ATOM     13  H   LIG    1        2.311  -3.233  -3.307  0.00  0.00    +0.244 HD
ENDBRANCH   9  12
ENDBRANCH   8   9
ENDBRANCH   1   8
TORSDOF 5
