REMARK  Name = *****
REMARK                            x       y       z     vdW  Elec       q    Type
REMARK                         _______ _______ _______ _____ _____    ______ ____
ROOT
ATOM      1  C   LIG    1       13.900  -4.171  -0.206  0.00  0.00    +0.106 C 
ENDROOT
BRANCH   1   5
ATOM      2  C   LIG    1       16.188  -1.094  -2.304  0.00  0.00    +0.008 A 
ATOM      3  C   LIG    1       15.005  -1.588  -2.829  0.00  0.00    +0.015 A 
ATOM      4  C   LIG    1       14.300  -2.641  -2.214  0.00  0.00    +0.006 A 
ATOM      5  C   LIG    1       14.751  -3.148  -0.963  0.00  0.00    -0.030 A 
ATOM      6  C   LIG    1       15.943  -2.683  -0.466  0.00  0.00    +0.006 A 
ATOM      7  C   LIG    1       16.689  -1.697  -1.126  0.00  0.00    +0.015 A 
BRANCH   2   8
ATOM      8  S   LIG    1       16.975   0.335  -3.057  0.00  0.00    -0.125 S 
BRANCH   8   9
ATOM      9  C   LIG    1       17.993   1.050  -1.703  0.00  0.00    +0.074 C 
BRANCH   9  10
ATOM     10  C   LIG    1       18.913   2.192  -2.150  0.00  0.00    +0.011 C 
BRANCH  10  12
ATOM     11  C   LIG    1       20.877   2.907  -3.583  0.00  0.00    +0.004 C 
ATOM     12  C   LIG    1       19.954   1.764  -3.189  0.00  0.00    -0.003 C 
ENDBRANCH  10  12
ENDBRANCH   9  10
ENDBRANCH   8   9
ENDBRANCH   2   8
ENDBRANCH   1   5
BRANCH   1  13
ATOM     13  C   LIG    1       14.610  -5.545  -0.296  0.00  0.00    -0.030 A 
ATOM     14  C   LIG    1       15.004  -6.051  -1.553  0.00  0.00    +0.005 A 
ATOM     15  C   LIG    1       15.663  -7.276  -1.671  0.00  0.00    +0.000 A 
ATOM     16  C   LIG    1       15.938  -8.032  -0.535  0.00  0.00    +0.000 A 
ATOM     17  C   LIG    1       15.578  -7.547   0.716  0.00  0.00    +0.000 A 
ATOM     18  C   LIG    1       14.920  -6.329   0.834  0.00  0.00    +0.005 A 
ENDBRANCH   1  13
BRANCH   1  19
ATOM     19  S   LIG    1       13.574  -3.676   1.591  0.00  0.00    -0.147 S 
BRANCH  19  20
ATOM     20  C   LIG    1       12.427  -2.256   1.549  0.00  0.00    +0.085 C 
BRANCH  20  21
ATOM     21  C   LIG    1       13.028  -0.905   1.136  0.00  0.00    +0.094 C 
BRANCH  21  22
ATOM     22  N   LIG    1       13.258  -0.755  -0.288  0.00  0.00    -0.308 NA
ATOM     23  C   LIG    1       14.015   0.441  -0.618  0.00  0.00    +0.104 C 
ATOM     24  C   LIG    1       12.089  -0.971  -1.123  0.00  0.00    +0.104 C 
ENDBRANCH  21  22
ENDBRANCH  20  21
ENDBRANCH  19  20
ENDBRANCH   1  19
TORSDOF 10
