REMARK  Name = *****
REMARK                            x       y       z     vdW  Elec       q    Type
REMARK                         _______ _______ _______ _____ _____    ______ ____
ROOT
ATOM      1  C   LIG    1        8.709   4.149  -5.856  0.00  0.00    +0.019 C 
ENDROOT
BRANCH   1   2
ATOM      2  C   LIG    1        7.962   4.446  -4.550  0.00  0.00    +0.042 C 
BRANCH   2   3
ATOM      3  C   LIG    1        7.211   3.204  -4.069  0.00  0.00    +0.229 C 
BRANCH   3   4
ATOM      4  O   LIG    1        6.564   3.501  -2.828  0.00  0.00    -0.492 OA
BRANCH   4  13
ATOM      5  O   LIG    1        5.324  -3.410  -1.599  0.00  0.00    -0.276 OA
ATOM      6  C   LIG    1        4.939  -2.244  -1.503  0.00  0.00    +0.217 C 
ATOM      7  N   LIG    1        5.739  -1.199  -1.903  0.00  0.00    -0.285 N 
ATOM      8  H   LIG    1        6.631  -1.462  -2.302  0.00  0.00    +0.155 HD
ATOM      9  C   LIG    1        5.386   0.149  -1.784  0.00  0.00    +0.040 A 
ATOM     10  C   LIG    1        4.253   0.504  -1.055  0.00  0.00    -0.025 A 
ATOM     11  C   LIG    1        3.928   1.858  -0.920  0.00  0.00    +0.009 A 
ATOM     12  C   LIG    1        4.723   2.831  -1.536  0.00  0.00    +0.046 A 
ATOM     13  C   LIG    1        5.844   2.467  -2.285  0.00  0.00    +0.122 A 
ATOM     14  C   LIG    1        3.482  -0.565  -0.329  0.00  0.00    +0.046 C 
ATOM     15  C   LIG    1        6.191   1.119  -2.387  0.00  0.00    +0.069 A 
ATOM     16  C   LIG    1        3.540  -1.887  -1.082  0.00  0.00    +0.101 C 
ENDBRANCH   4  13
ENDBRANCH   3   4
ENDBRANCH   2   3
ENDBRANCH   1   2
BRANCH   1  17
ATOM     17  C   LIG    1        9.561   5.338  -6.327  0.00  0.00    +0.085 C 
BRANCH  17  18
ATOM     18  N   LIG    1       10.275   5.082  -7.592  0.00  0.00    -0.299 NA
ATOM     19  C   LIG    1       11.037   6.283  -8.032  0.00  0.00    +0.103 C 
ATOM     20  C   LIG    1       12.305   6.616  -7.196  0.00  0.00    +0.120 C 
ATOM     21  N   LIG    1       13.194   5.432  -7.087  0.00  0.00    -0.326 N 
ATOM     22  C   LIG    1       12.482   4.211  -6.656  0.00  0.00    +0.120 C 
ATOM     23  C   LIG    1       11.238   3.956  -7.537  0.00  0.00    +0.103 C 
BRANCH  21  24
ATOM     24  C   LIG    1       14.430   5.714  -6.456  0.00  0.00    +0.050 A 
ATOM     25  C   LIG    1       15.480   6.390  -7.135  0.00  0.00    +0.080 A 
ATOM     26 CL   LIG    1       15.294   6.827  -8.812  0.00  0.00    -0.080 Cl
ATOM     27  C   LIG    1       16.698   6.660  -6.480  0.00  0.00    +0.061 A 
ATOM     28 CL   LIG    1       18.014   7.484  -7.248  0.00  0.00    -0.082 Cl
ATOM     29  C   LIG    1       16.895   6.258  -5.157  0.00  0.00    +0.021 A 
ATOM     30  C   LIG    1       15.885   5.587  -4.481  0.00  0.00    +0.003 A 
ATOM     31  C   LIG    1       14.672   5.324  -5.123  0.00  0.00    +0.025 A 
ENDBRANCH  21  24
ENDBRANCH  17  18
ENDBRANCH   1  17
TORSDOF 7
