REMARK  Name = *****
REMARK                            x       y       z     vdW  Elec       q    Type
REMARK                         _______ _______ _______ _____ _____    ______ ____
ROOT
ATOM      1  C   LIG    1        0.874  -0.059   0.009  0.00  0.00    +0.138 C 
ATOM      2  N   LIG    1        2.323  -0.047   0.155  0.00  0.00    -0.270 N 
ATOM      3  C   LIG    1        2.971  -1.287   0.087  0.00  0.00    +0.271 C 
ATOM      4  O   LIG    1        2.341  -2.351   0.048  0.00  0.00    -0.270 OA
ATOM      5  C   LIG    1        4.525  -1.293   0.009  0.00  0.00    +0.320 C 
ATOM      6  N   LIG    1        5.051  -0.888   1.309  0.00  0.00    -0.243 NA
ATOM      7  C   LIG    1        4.866   0.329   1.696  0.00  0.00    +0.078 C 
ATOM      8  C   LIG    1        4.236   1.393   0.858  0.00  0.00    +0.023 A 
ATOM      9  C   LIG    1        4.901   2.632   0.801  0.00  0.00    +0.032 A 
ATOM     10  C   LIG    1        4.327   3.703   0.126  0.00  0.00    +0.042 A 
ATOM     11 CL   LIG    1        5.138   5.218   0.075  0.00  0.00    -0.084 Cl
ATOM     12  C   LIG    1        3.095   3.556  -0.495  0.00  0.00    +0.022 A 
ATOM     13  C   LIG    1        2.443   2.318  -0.460  0.00  0.00    +0.025 A 
ATOM     14  C   LIG    1        3.009   1.205   0.191  0.00  0.00    +0.045 A 
ENDROOT
BRANCH   7  15
ATOM     15  C   LIG    1        5.338   0.688   3.072  0.00  0.00    +0.001 A 
ATOM     16  C   LIG    1        4.635   1.603   3.866  0.00  0.00    +0.010 A 
ATOM     17  C   LIG    1        5.098   1.918   5.146  0.00  0.00    +0.001 A 
ATOM     18  C   LIG    1        6.253   1.313   5.640  0.00  0.00    +0.000 A 
ATOM     19  C   LIG    1        6.945   0.387   4.861  0.00  0.00    +0.001 A 
ATOM     20  C   LIG    1        6.487   0.070   3.581  0.00  0.00    +0.010 A 
ENDBRANCH   7  15
BRANCH   5  21
ATOM     21  O   LIG    1        5.092  -0.615  -1.094  0.00  0.00    -0.364 OA
ATOM     22  H   LIG    1        6.029  -0.533  -0.850  0.00  0.00    +0.212 HD
ENDBRANCH   5  21
TORSDOF 2
