REMARK  Name = *****
REMARK                            x       y       z     vdW  Elec       q    Type
REMARK                         _______ _______ _______ _____ _____    ______ ____
ROOT
ATOM      1  C   LIG    1        7.896  -3.025  -1.215  0.00  0.00    +0.061 A 
ATOM      2  C   LIG    1        6.774  -3.369  -1.980  0.00  0.00    +0.049 A 
ATOM      3  I   LIG    1        7.033  -3.684  -4.081  0.00  0.00    -0.041 I 
ATOM      4  C   LIG    1        5.583  -3.776  -1.361  0.00  0.00    +0.066 A 
ATOM      5  C   LIG    1        5.688  -4.333  -0.056  0.00  0.00    +0.042 A 
ATOM      6  I   LIG    1        4.151  -5.699   0.547  0.00  0.00    -0.042 I 
ATOM      7  C   LIG    1        6.870  -4.149   0.704  0.00  0.00    +0.087 A 
ATOM      8  C   LIG    1        7.854  -3.292   0.168  0.00  0.00    +0.051 A 
ATOM      9  I   LIG    1        8.981  -2.026   1.481  0.00  0.00    -0.041 I 
ENDROOT
BRANCH   1  12
ATOM     10  C   LIG    1       10.901  -1.333  -2.786  0.00  0.00    +0.109 C 
ATOM     11  C   LIG    1       10.087  -2.491  -2.241  0.00  0.00    +0.214 C 
ATOM     12  N   LIG    1        8.845  -2.116  -1.754  0.00  0.00    -0.284 N 
ATOM     13  H   LIG    1        8.479  -1.223  -2.061  0.00  0.00    +0.155 HD
ATOM     14  O   LIG    1       10.526  -3.636  -2.216  0.00  0.00    -0.276 OA
ENDBRANCH   1  12
BRANCH   4  15
ATOM     15  C   LIG    1        4.271  -3.134  -1.825  0.00  0.00    +0.246 C 
ATOM     16  N   LIG    1        4.252  -2.480  -3.054  0.00  0.00    -0.309 N 
ATOM     17  H   LIG    1        5.112  -2.412  -3.578  0.00  0.00    +0.149 HD
ATOM     18  O   LIG    1        3.311  -3.055  -1.067  0.00  0.00    -0.270 OA
BRANCH  16  19
ATOM     19  C   LIG    1        3.163  -1.580  -3.451  0.00  0.00    +0.132 C 
BRANCH  19  20
ATOM     20  C   LIG    1        3.305  -1.029  -4.880  0.00  0.00    +0.174 C 
BRANCH  20  21
ATOM     21  O   LIG    1        3.283  -2.059  -5.862  0.00  0.00    -0.394 OA
ATOM     22  H   LIG    1        3.938  -2.730  -5.609  0.00  0.00    +0.209 HD
ENDBRANCH  20  21
ENDBRANCH  19  20
ENDBRANCH  16  19
ENDBRANCH   4  15
BRANCH   7  23
ATOM     23  C   LIG    1        7.082  -4.811   2.047  0.00  0.00    +0.339 C 
ATOM     24  O   LIG    1        6.222  -5.019   2.860  0.00  0.00    -0.245 OA
BRANCH  23  25
ATOM     25  O   LIG    1        8.361  -5.241   2.242  0.00  0.00    -0.477 OA
ATOM     26  H   LIG    1        9.044  -5.000   1.593  0.00  0.00    +0.295 HD
ENDBRANCH  23  25
ENDBRANCH   7  23
TORSDOF 7
