REMARK  Name = *****
REMARK                            x       y       z     vdW  Elec       q    Type
REMARK                         _______ _______ _______ _____ _____    ______ ____
ROOT
ATOM      1  C   LIG    1        5.082  -0.115  -3.338  0.00  0.00    -0.008 A 
ATOM      2  C   LIG    1        5.189   0.973  -4.237  0.00  0.00    +0.008 A 
ATOM      3  C   LIG    1        5.305   0.714  -5.620  0.00  0.00    +0.091 A 
ATOM      4  N   LIG    1        5.234   1.772  -6.541  0.00  0.00    -0.319 N 
ATOM      5  H   LIG    1        5.219   1.543  -7.528  0.00  0.00    +0.169 HD
ATOM      6  C   LIG    1        5.066   3.082  -6.191  0.00  0.00    +0.249 C 
ATOM      7  C   LIG    1        5.137   3.371  -4.739  0.00  0.00    +0.071 C 
ATOM      8  O   LIG    1        4.901   3.976  -7.001  0.00  0.00    -0.268 OA
ATOM      9  C   LIG    1        5.433  -0.588  -6.104  0.00  0.00    +0.141 A 
ATOM     10  C   LIG    1        5.393  -1.662  -5.230  0.00  0.00    +0.048 A 
ATOM     11  C   LIG    1        5.192   2.388  -3.831  0.00  0.00    +0.015 C 
ATOM     12  C   LIG    1        5.186  -1.426  -3.867  0.00  0.00    +0.010 A 
ENDROOT
BRANCH   9  13
ATOM     13  O   LIG    1        5.589  -0.783  -7.449  0.00  0.00    -0.505 OA
ATOM     14  H   LIG    1        5.800  -1.719  -7.606  0.00  0.00    +0.292 HD
ENDBRANCH   9  13
BRANCH   1  15
ATOM     15  C   LIG    1        4.675   0.074  -1.876  0.00  0.00    +0.162 C 
BRANCH  15  16
ATOM     16  O   LIG    1        3.249  -0.084  -1.903  0.00  0.00    -0.386 OA
ATOM     17  H   LIG    1        3.066  -1.018  -2.084  0.00  0.00    +0.210 HD
ENDBRANCH  15  16
BRANCH  15  18
ATOM     18  C   LIG    1        5.341  -0.884  -0.812  0.00  0.00    +0.087 C 
BRANCH  18  20
ATOM     19  C   LIG    1        7.488   0.536  -0.408  0.00  0.00    +0.005 C 
ATOM     20  C   LIG    1        6.893  -0.791  -0.868  0.00  0.00    +0.018 C 
ENDBRANCH  18  20
BRANCH  18  21
ATOM     21  N   LIG    1        4.930  -0.698   0.611  0.00  0.00    -0.308 NA
ATOM     22  H   LIG    1        5.423  -1.390   1.178  0.00  0.00    +0.122 HD
BRANCH  21  23
ATOM     23  C   LIG    1        3.493  -0.777   0.922  0.00  0.00    +0.048 C 
ATOM     24  C   LIG    1        3.265  -0.554   2.428  0.00  0.00    +0.024 C 
ATOM     25  C   LIG    1        2.881  -2.129   0.550  0.00  0.00    +0.024 C 
ENDBRANCH  21  23
ENDBRANCH  18  21
ENDBRANCH  15  18
ENDBRANCH   1  15
TORSDOF 7
