REMARK  Name = *****
REMARK                            x       y       z     vdW  Elec       q    Type
REMARK                         _______ _______ _______ _____ _____    ______ ____
ROOT
ATOM      1  C   LIG    1        5.281  -1.653   2.446  0.00  0.00    +0.096 C 
ENDROOT
BRANCH   1   2
ATOM      2  N   LIG    1        5.816  -0.428   1.857  0.00  0.00    -0.314 NA
ATOM      3  H   LIG    1        6.825  -0.368   1.969  0.00  0.00    +0.122 HD
BRANCH   2   4
ATOM      4  C   LIG    1        5.334  -0.009   0.549  0.00  0.00    +0.096 C 
BRANCH   4   5
ATOM      5  C   LIG    1        5.851  -0.830  -0.646  0.00  0.00    +0.092 C 
BRANCH   5   6
ATOM      6  N   LIG    1        5.248  -2.161  -0.741  0.00  0.00    -0.329 NA
ATOM      7  H   LIG    1        4.424  -2.151  -1.313  0.00  0.00    +0.118 HD
ATOM      8  H   LIG    1        4.871  -2.367   0.187  0.00  0.00    +0.118 HD
ENDBRANCH   5   6
ENDBRANCH   4   5
ENDBRANCH   2   4
ENDBRANCH   1   2
BRANCH   1   9
ATOM      9  C   LIG    1        5.992  -3.052   2.259  0.00  0.00    +0.096 C 
BRANCH   9  10
ATOM     10  N   LIG    1        7.421  -3.299   2.516  0.00  0.00    -0.314 NA
ATOM     11  H   LIG    1        7.707  -4.036   1.885  0.00  0.00    +0.122 HD
BRANCH  10  12
ATOM     12  C   LIG    1        7.734  -3.770   3.874  0.00  0.00    +0.096 C 
BRANCH  12  13
ATOM     13  C   LIG    1        8.026  -2.607   4.796  0.00  0.00    +0.092 C 
BRANCH  13  14
ATOM     14  N   LIG    1        6.833  -1.870   5.160  0.00  0.00    -0.329 NA
ATOM     15  H   LIG    1        6.680  -1.865   6.127  0.00  0.00    +0.118 HD
ATOM     16  H   LIG    1        6.030  -2.299   4.746  0.00  0.00    +0.118 HD
ENDBRANCH  13  14
ENDBRANCH  12  13
ENDBRANCH  10  12
ENDBRANCH   9  10
ENDBRANCH   1   9
TORSDOF 9
