REMARK  Name = *****
REMARK                            x       y       z     vdW  Elec       q    Type
REMARK                         _______ _______ _______ _____ _____    ______ ____
ROOT
ATOM      1  C   LIG    1       -0.234   5.849   2.242  0.00  0.00    +0.122 A 
ATOM      2  C   LIG    1        1.069   5.715   2.729  0.00  0.00    +0.070 A 
ATOM      3  C   LIG    1        1.351   5.716   4.108  0.00  0.00    +0.051 A 
ATOM      4  N   LIG    1        2.729   5.749   4.503  0.00  0.00    -0.298 N 
ATOM      5  C   LIG    1        3.111   6.395   5.714  0.00  0.00    +0.048 A 
ATOM      6  C   LIG    1        2.237   6.524   6.813  0.00  0.00    +0.034 A 
ATOM      7  S   LIG    1        0.541   5.963   6.759  0.00  0.00    -0.086 S 
ATOM      8  C   LIG    1        2.709   7.084   8.011  0.00  0.00    +0.017 A 
ATOM      9  C   LIG    1        4.015   7.566   8.104  0.00  0.00    +0.001 A 
ATOM     10  C   LIG    1        4.847   7.532   6.991  0.00  0.00    +0.002 A 
ATOM     11  C   LIG    1        4.394   6.955   5.807  0.00  0.00    +0.024 A 
ATOM     12  C   LIG    1        0.284   5.827   4.999  0.00  0.00    +0.034 A 
ATOM     13  C   LIG    1       -1.042   5.856   4.514  0.00  0.00    +0.020 A 
ATOM     14  C   LIG    1       -1.284   5.862   3.132  0.00  0.00    +0.047 A 
ENDROOT
BRANCH   1  16
ATOM     15  C   LIG    1        0.505   6.633   0.147  0.00  0.00    +0.277 C 
ATOM     16  O   LIG    1       -0.526   5.984   0.909  0.00  0.00    -0.495 OA
ENDBRANCH   1  16
BRANCH   4  17
ATOM     17  C   LIG    1        3.425   4.415   4.360  0.00  0.00    +0.115 C 
BRANCH  17  18
ATOM     18  C   LIG    1        4.711   4.448   3.462  0.00  0.00    +0.018 C 
ATOM     19  C   LIG    1        4.389   4.948   2.059  0.00  0.00    +0.010 C 
BRANCH  18  20
ATOM     20  C   LIG    1        5.381   3.033   3.414  0.00  0.00    +0.088 C 
BRANCH  20  21
ATOM     21  N   LIG    1        6.687   2.876   2.728  0.00  0.00    -0.308 NA
ATOM     22  C   LIG    1        6.752   3.318   1.336  0.00  0.00    +0.104 C 
ATOM     23  C   LIG    1        7.168   1.490   2.794  0.00  0.00    +0.104 C 
ENDBRANCH  20  21
ENDBRANCH  18  20
ENDBRANCH  17  18
ENDBRANCH   4  17
TORSDOF 5
