REMARK  Name = *****
REMARK                            x       y       z     vdW  Elec       q    Type
REMARK                         _______ _______ _______ _____ _____    ______ ____
ROOT
ATOM      1  C   LIG    1       -4.345  -5.654   1.882  0.00  0.00    +0.183 C 
ATOM      2  C   LIG    1       -5.078  -6.887   2.599  0.00  0.00    +0.021 C 
ATOM      3  C   LIG    1       -5.933  -7.710   1.582  0.00  0.00    +0.016 C 
ATOM      4  C   LIG    1       -6.181  -6.289   3.537  0.00  0.00    +0.003 C 
ATOM      5  C   LIG    1       -5.940  -6.441   5.075  0.00  0.00    -0.000 C 
ATOM      6  C   LIG    1       -5.355  -7.828   5.493  0.00  0.00    +0.035 C 
ATOM      7  C   LIG    1       -4.058  -8.101   4.693  0.00  0.00    +0.120 C 
ATOM      8  C   LIG    1       -6.375  -9.041   5.750  0.00  0.00    +0.013 C 
ATOM      9  C   LIG    1       -5.718 -10.005   6.793  0.00  0.00    +0.020 C 
ATOM     10  C   LIG    1       -7.732  -8.621   6.368  0.00  0.00    -0.056 C 
ATOM     11  C   LIG    1       -8.716  -9.551   6.454  0.00  0.00    +0.051 C 
ATOM     12  C   LIG    1       -9.091  -9.992   5.063  0.00  0.00    +0.179 C 
ATOM     13  O   LIG    1      -10.253 -10.270   4.751  0.00  0.00    -0.288 OA
ATOM     14  C   LIG    1       -7.960 -10.181   4.122  0.00  0.00    +0.047 C 
ATOM     15  C   LIG    1       -8.207  -7.205   6.154  0.00  0.00    +0.032 C 
ATOM     16  C   LIG    1       -6.709  -9.804   4.468  0.00  0.00    -0.012 C 
ATOM     17  C   LIG    1       -7.106  -6.152   6.056  0.00  0.00    +0.008 C 
ATOM     18  C   LIG    1       -6.443  -4.885   2.895  0.00  0.00    +0.009 C 
ATOM     19  C   LIG    1       -4.098  -7.907   3.184  0.00  0.00    +0.043 C 
ATOM     20  C   LIG    1       -5.533  -4.711   1.642  0.00  0.00    +0.057 C 
ENDROOT
BRANCH   1  21
ATOM     21  C   LIG    1       -3.248  -4.794   2.664  0.00  0.00    +0.214 C 
ATOM     22  O   LIG    1       -3.477  -3.617   2.987  0.00  0.00    -0.289 OA
BRANCH  21  23
ATOM     23  C   LIG    1       -1.839  -5.359   2.976  0.00  0.00    +0.310 C 
BRANCH  23  24
ATOM     24  O   LIG    1       -1.084  -4.360   3.715  0.00  0.00    -0.457 OA
BRANCH  24  25
ATOM     25  C   LIG    1       -0.225  -3.560   3.017  0.00  0.00    +0.307 C 
ATOM     26  O   LIG    1        0.551  -3.969   2.159  0.00  0.00    -0.251 OA
BRANCH  25  27
ATOM     27  C   LIG    1       -0.542  -2.109   3.317  0.00  0.00    +0.117 C 
ATOM     28  C   LIG    1        0.571  -1.267   3.911  0.00  0.00    +0.015 C 
ENDBRANCH  25  27
ENDBRANCH  24  25
ENDBRANCH  23  24
ENDBRANCH  21  23
ENDBRANCH   1  21
BRANCH   7  29
ATOM     29  O   LIG    1       -3.543  -9.405   4.935  0.00  0.00    -0.391 OA
ATOM     30  H   LIG    1       -2.765  -9.552   4.370  0.00  0.00    +0.210 HD
ENDBRANCH   7  29
BRANCH   1  31
ATOM     31  O   LIG    1       -3.575  -6.048   0.682  0.00  0.00    -0.419 OA
BRANCH  31  32
ATOM     32  C   LIG    1       -4.042  -6.709  -0.394  0.00  0.00    +0.511 C 
ATOM     33  O   LIG    1       -5.158  -6.635  -0.897  0.00  0.00    -0.203 OA
BRANCH  32  34
ATOM     34  O   LIG    1       -3.106  -7.647  -0.684  0.00  0.00    -0.434 OA
BRANCH  34  36
ATOM     35  C   LIG    1       -3.494  -9.072  -2.645  0.00  0.00    +0.048 C 
ATOM     36  C   LIG    1       -3.553  -8.940  -1.139  0.00  0.00    +0.232 C 
ENDBRANCH  34  36
ENDBRANCH  32  34
ENDBRANCH  31  32
ENDBRANCH   1  31
TORSDOF 10
