REMARK  Name = *****
REMARK                            x       y       z     vdW  Elec       q    Type
REMARK                         _______ _______ _______ _____ _____    ______ ____
ROOT
ATOM      1  C   LIG    1        4.752   2.621  -1.743  0.00  0.00    -0.015 A 
ATOM      2  C   LIG    1        3.951   2.669  -2.894  0.00  0.00    +0.051 A 
ATOM      3  C   LIG    1        3.984   3.785  -3.725  0.00  0.00    +0.117 A 
ATOM      4  C   LIG    1        4.798   4.873  -3.431  0.00  0.00    +0.045 A 
ATOM      5  C   LIG    1        5.598   4.837  -2.288  0.00  0.00    +0.004 A 
ATOM      6  C   LIG    1        5.577   3.721  -1.450  0.00  0.00    +0.006 A 
ENDROOT
BRANCH   3   7
ATOM      7  O   LIG    1        3.183   3.773  -4.829  0.00  0.00    -0.507 OA
ATOM      8  H   LIG    1        3.317   4.602  -5.318  0.00  0.00    +0.292 HD
ENDBRANCH   3   7
BRANCH   1   9
ATOM      9  C   LIG    1        4.713   1.421  -0.819  0.00  0.00    +0.158 C 
BRANCH   9  10
ATOM     10  O   LIG    1        3.385   1.247  -0.307  0.00  0.00    -0.386 OA
ATOM     11  H   LIG    1        2.955   2.120  -0.325  0.00  0.00    +0.210 HD
ENDBRANCH   9  10
BRANCH   9  12
ATOM     12  C   LIG    1        5.182   0.109  -1.499  0.00  0.00    +0.116 C 
BRANCH  12  14
ATOM     13  C   LIG    1        6.009  -1.017   0.501  0.00  0.00    +0.101 C 
ATOM     14  N   LIG    1        5.119  -1.097  -0.649  0.00  0.00    -0.316 NA
ATOM     15  H   LIG    1        4.157  -1.173  -0.309  0.00  0.00    +0.122 HD
ENDBRANCH  12  14
ENDBRANCH   9  12
ENDBRANCH   1   9
TORSDOF 5
