REMARK  Name = *****
REMARK                            x       y       z     vdW  Elec       q    Type
REMARK                         _______ _______ _______ _____ _____    ______ ____
ROOT
ATOM      1  C   LIG    1        1.127  -0.372  -0.643  0.00  0.00    +0.108 C 
ATOM      2  C   LIG    1        2.263   0.077   0.232  0.00  0.00    +0.123 C 
ATOM      3  C   LIG    1        1.696   0.501   1.585  0.00  0.00    +0.207 C 
ATOM      4  O   LIG    1        0.650   1.474   1.413  0.00  0.00    -0.454 OA
ATOM      5  C   LIG    1       -0.345   1.201   0.539  0.00  0.00    +0.336 C 
ATOM      6  O   LIG    1       -1.406   1.813   0.535  0.00  0.00    -0.245 OA
ATOM      7  C   LIG    1       -0.098   0.145  -0.458  0.00  0.00    +0.132 C 
ENDROOT
BRANCH   1   9
ATOM      8  C   LIG    1        0.460  -1.789  -2.451  0.00  0.00    +0.276 C 
ATOM      9  O   LIG    1        1.481  -1.326  -1.571  0.00  0.00    -0.499 OA
ENDBRANCH   1   9
BRANCH   3  10
ATOM     10  C   LIG    1        2.745   1.148   2.443  0.00  0.00    +0.018 C 
ATOM     11  C   LIG    1        3.142   0.674   3.635  0.00  0.00    +0.007 C 
BRANCH  11  12
ATOM     12  C   LIG    1        4.155   1.305   4.474  0.00  0.00    -0.029 C 
ATOM     13  C   LIG    1        5.294   2.045   3.942  0.00  0.00    +0.003 C 
ATOM     14  C   LIG    1        6.281   2.521   4.712  0.00  0.00    -0.026 C 
ATOM     15  C   LIG    1        6.314   2.329   6.196  0.00  0.00    +0.031 C 
ATOM     16  C   LIG    1        5.025   1.749   6.797  0.00  0.00    +0.032 C 
ATOM     17  C   LIG    1        4.060   1.152   5.810  0.00  0.00    -0.019 C 
ENDBRANCH  11  12
ENDBRANCH   3  10
TORSDOF 3
