REMARK  Name = *****
REMARK                            x       y       z     vdW  Elec       q    Type
REMARK                         _______ _______ _______ _____ _____    ______ ____
ROOT
ATOM      1  C   LIG    1       10.964  -1.780  -2.491  0.00  0.00    +0.218 C 
ATOM      2  N   LIG    1       10.091  -2.569  -1.973  0.00  0.00    -0.159 NA
ATOM      3  C   LIG    1        9.020  -2.017  -1.334  0.00  0.00    +0.354 C 
ATOM      4  O   LIG    1        7.978  -2.650  -1.185  0.00  0.00    -0.244 OA
ATOM      5  N   LIG    1        9.137  -0.717  -0.899  0.00  0.00    -0.256 N 
ATOM      6  C   LIG    1        9.971   0.046  -1.646  0.00  0.00    +0.209 C 
ATOM      7  N   LIG    1       10.858  -0.431  -2.445  0.00  0.00    -0.205 NA
ENDROOT
BRANCH   5   8
ATOM      8  C1* LIG    1        8.025  -0.128  -0.167  0.00  0.00    +0.228 C 
ATOM      9  O4* LIG    1        8.376   1.217   0.232  0.00  0.00    -0.348 OA
ATOM     10  C4* LIG    1        8.582   1.242   1.663  0.00  0.00    +0.175 C 
ATOM     11  C3* LIG    1        8.598  -0.206   2.125  0.00  0.00    +0.150 C 
ATOM     12  C2* LIG    1        7.660  -0.847   1.131  0.00  0.00    +0.088 C 
BRANCH  11  13
ATOM     13  O3* LIG    1        8.171  -0.372   3.465  0.00  0.00    -0.389 OA
ATOM     14  H3* LIG    1        7.240  -0.097   3.543  0.00  0.00    +0.210 HD
ENDBRANCH  11  13
BRANCH  10  15
ATOM     15  C5* LIG    1        9.880   1.982   1.973  0.00  0.00    +0.190 C 
BRANCH  15  16
ATOM     16  O5* LIG    1        9.783   3.333   1.522  0.00  0.00    -0.392 OA
ATOM     17  H5* LIG    1        9.443   3.294   0.609  0.00  0.00    +0.209 HD
ENDBRANCH  15  16
ENDBRANCH  10  15
ENDBRANCH   5   8
BRANCH   1  18
ATOM     18  N   LIG    1       12.035  -2.289  -3.142  0.00  0.00    -0.327 N 
ATOM     19  H   LIG    1       11.895  -3.240  -3.456  0.00  0.00    +0.145 HD
ATOM     20  H   LIG    1       12.414  -1.662  -3.839  0.00  0.00    +0.145 HD
ENDBRANCH   1  18
TORSDOF 5
