REMARK  Name = *****
REMARK                            x       y       z     vdW  Elec       q    Type
REMARK                         _______ _______ _______ _____ _____    ______ ____
ROOT
ATOM      1  C   LIG    1        3.015  -0.960  -1.370  0.00  0.00    +0.039 C 
ATOM      2  C   LIG    1        2.893   0.523  -1.819  0.00  0.00    +0.018 C 
ENDROOT
BRANCH   1   3
ATOM      3  C   LIG    1        1.578  -1.663  -1.466  0.00  0.00    -0.002 C 
ATOM      4  C   LIG    1        0.473  -0.785  -0.850  0.00  0.00    +0.008 C 
BRANCH   3   6
ATOM      5  C   LIG    1        0.220  -3.890  -1.423  0.00  0.00    +0.004 C 
ATOM      6  C   LIG    1        1.480  -3.135  -0.964  0.00  0.00    +0.000 C 
ENDBRANCH   3   6
ENDBRANCH   1   3
BRANCH   1   7
ATOM      7  C   LIG    1        4.026  -1.662  -2.332  0.00  0.00    +0.244 C 
BRANCH   7   8
ATOM      8  O   LIG    1        3.555  -1.497  -3.683  0.00  0.00    -0.450 OA
BRANCH   8   9
ATOM      9  C   LIG    1        4.449  -1.006  -4.570  0.00  0.00    +0.398 C 
ATOM     10  O   LIG    1        5.659  -0.992  -4.456  0.00  0.00    -0.227 OA
ATOM     11  N   LIG    1        3.787  -0.433  -5.603  0.00  0.00    -0.295 N 
ATOM     12  H   LIG    1        4.307   0.130  -6.258  0.00  0.00    +0.148 HD
ATOM     13  H   LIG    1        2.778  -0.439  -5.617  0.00  0.00    +0.148 HD
ENDBRANCH   8   9
ENDBRANCH   7   8
ENDBRANCH   1   7
BRANCH   1  14
ATOM     14  C   LIG    1        3.645  -0.914   0.043  0.00  0.00    +0.244 C 
BRANCH  14  15
ATOM     15  O   LIG    1        3.977  -2.230   0.486  0.00  0.00    -0.450 OA
BRANCH  15  16
ATOM     16  C   LIG    1        5.211  -2.372   1.036  0.00  0.00    +0.398 C 
ATOM     17  O   LIG    1        6.006  -1.523   1.326  0.00  0.00    -0.227 OA
ATOM     18  N   LIG    1        5.418  -3.710   1.177  0.00  0.00    -0.295 N 
ATOM     19  H   LIG    1        6.219  -4.021   1.711  0.00  0.00    +0.148 HD
ATOM     20  H   LIG    1        4.675  -4.376   0.943  0.00  0.00    +0.148 HD
ENDBRANCH  15  16
ENDBRANCH  14  15
ENDBRANCH   1  14
TORSDOF 8
