REMARK  Name = *****
REMARK                            x       y       z     vdW  Elec       q    Type
REMARK                         _______ _______ _______ _____ _____    ______ ____
ROOT
ATOM      1  C   LIG    1        4.692  -0.691   2.226  0.00  0.00    +0.008 C 
ATOM      2  C   LIG    1        4.722   0.660   2.936  0.00  0.00    -0.003 C 
ATOM      3  C   LIG    1        3.605   1.602   2.433  0.00  0.00    +0.067 C 
ATOM      4  C   LIG    1        3.175   2.398   3.693  0.00  0.00    -0.017 C 
ATOM      5  C   LIG    1        3.230   1.313   4.798  0.00  0.00    +0.002 C 
ATOM      6  C   LIG    1        1.996   0.363   4.870  0.00  0.00    +0.034 C 
ATOM      7  C   LIG    1        0.631   1.096   4.801  0.00  0.00    +0.153 C 
ATOM      8  C   LIG    1        0.629   2.023   3.555  0.00  0.00    +0.153 C 
ATOM      9  F   LIG    1        0.588   1.938   5.896  0.00  0.00    -0.238 F 
ATOM     10  C   LIG    1       -0.618   0.107   4.928  0.00  0.00    +0.044 C 
ATOM     11  C   LIG    1       -0.411  -0.977   6.027  0.00  0.00    -0.053 C 
ATOM     12  C   LIG    1       -1.375  -1.916   6.197  0.00  0.00    +0.051 C 
ATOM     13  C   LIG    1       -1.645  -2.657   4.908  0.00  0.00    +0.179 C 
ATOM     14  C   LIG    1       -1.380  -1.929   3.633  0.00  0.00    +0.047 C 
ATOM     15  O   LIG    1       -2.131  -3.780   4.910  0.00  0.00    -0.288 OA
ATOM     16  C   LIG    1        0.994  -1.510   6.211  0.00  0.00    +0.032 C 
ATOM     17  C   LIG    1       -1.889   0.928   5.293  0.00  0.00    +0.023 C 
ATOM     18  C   LIG    1       -0.936  -0.659   3.639  0.00  0.00    -0.009 C 
ATOM     19  C   LIG    1        2.058  -0.434   6.184  0.00  0.00    +0.011 C 
ATOM     20  C   LIG    1        4.173   3.536   4.021  0.00  0.00    +0.012 C 
ATOM     21  C   LIG    1        1.782   3.027   3.595  0.00  0.00    +0.042 C 
ATOM     22  C   LIG    1        4.514   0.528   4.455  0.00  0.00    +0.008 C 
ENDROOT
BRANCH   3  23
ATOM     23  C   LIG    1        4.073   2.459   1.255  0.00  0.00    +0.162 C 
ATOM     24  O   LIG    1        5.217   2.914   1.174  0.00  0.00    -0.295 OA
BRANCH  23  25
ATOM     25  C   LIG    1        3.049   2.773   0.170  0.00  0.00    +0.230 C 
BRANCH  25  26
ATOM     26  O   LIG    1        3.663   3.360  -0.967  0.00  0.00    -0.388 OA
ATOM     27  H   LIG    1        4.510   3.742  -0.655  0.00  0.00    +0.210 HD
ENDBRANCH  25  26
ENDBRANCH  23  25
ENDBRANCH   3  23
BRANCH   8  28
ATOM     28  O   LIG    1       -0.566   2.790   3.428  0.00  0.00    -0.389 OA
ATOM     29  H   LIG    1       -0.655   3.322   4.242  0.00  0.00    +0.210 HD
ENDBRANCH   8  28
TORSDOF 4
