REMARK  Name = *****
REMARK                            x       y       z     vdW  Elec       q    Type
REMARK                         _______ _______ _______ _____ _____    ______ ____
ROOT
ATOM      1  C   LIG    1        1.363   0.033   0.759  0.00  0.00    +0.141 C 
ATOM      2  N   LIG    1        2.640   0.056   0.087  0.00  0.00    -0.244 N 
ATOM      3  C   LIG    1        3.250   1.215  -0.300  0.00  0.00    +0.232 C 
ATOM      4  O   LIG    1        2.805   2.340  -0.112  0.00  0.00    -0.274 OA
ATOM      5  C   LIG    1        4.515   0.880  -1.084  0.00  0.00    +0.078 C 
ATOM      6  C   LIG    1        4.210   1.249  -2.550  0.00  0.00    +0.026 C 
ATOM      7  C   LIG    1        4.620  -0.648  -0.918  0.00  0.00    +0.117 C 
ATOM      8  C   LIG    1        3.317  -1.058  -0.303  0.00  0.00    +0.223 C 
ATOM      9  O   LIG    1        2.960  -2.218  -0.167  0.00  0.00    -0.275 OA
ENDROOT
BRANCH   5  10
ATOM     10  C   LIG    1        5.799   1.546  -0.586  0.00  0.00    -0.032 A 
ATOM     11  C   LIG    1        5.853   2.277   0.613  0.00  0.00    +0.005 A 
ATOM     12  C   LIG    1        7.050   2.848   1.057  0.00  0.00    +0.000 A 
ATOM     13  C   LIG    1        8.217   2.696   0.316  0.00  0.00    +0.000 A 
ATOM     14  C   LIG    1        8.191   1.970  -0.869  0.00  0.00    +0.000 A 
ATOM     15  C   LIG    1        6.996   1.396  -1.312  0.00  0.00    +0.005 A 
ENDBRANCH   5  10
TORSDOF 1
