REMARK  Name = *****
REMARK                            x       y       z     vdW  Elec       q    Type
REMARK                         _______ _______ _______ _____ _____    ______ ____
ROOT
ATOM      1  N   LIG    1        2.483   2.655  -0.884  0.00  0.00    -0.297 N 
ATOM      2  C   LIG    1        2.834   3.976  -0.457  0.00  0.00    +0.048 A 
ATOM      3  C   LIG    1        2.557   5.110  -1.252  0.00  0.00    +0.034 A 
ATOM      4  C   LIG    1        2.928   6.407  -0.835  0.00  0.00    +0.017 A 
ATOM      5  C   LIG    1        3.557   6.623   0.382  0.00  0.00    +0.001 A 
ATOM      6  C   LIG    1        3.821   5.534   1.196  0.00  0.00    +0.002 A 
ATOM      7  S   LIG    1        1.715   5.047  -2.811  0.00  0.00    -0.086 S 
ATOM      8  C   LIG    1        1.418   3.311  -3.024  0.00  0.00    +0.034 A 
ATOM      9  C   LIG    1        0.753   2.967  -4.218  0.00  0.00    +0.017 A 
ATOM     10  C   LIG    1        0.487   1.643  -4.545  0.00  0.00    +0.001 A 
ATOM     11  C   LIG    1        0.881   0.648  -3.669  0.00  0.00    +0.002 A 
ATOM     12  C   LIG    1        1.517   0.989  -2.473  0.00  0.00    +0.024 A 
ATOM     13  C   LIG    1        3.472   4.243   0.777  0.00  0.00    +0.024 A 
ATOM     14  C   LIG    1        1.814   2.322  -2.100  0.00  0.00    +0.048 A 
ENDROOT
BRANCH   1  15
ATOM     15  C   LIG    1        2.805   1.535   0.041  0.00  0.00    +0.129 C 
BRANCH  15  17
ATOM     16  C   LIG    1        4.615   0.494  -1.506  0.00  0.00    +0.026 C 
ATOM     17  C   LIG    1        4.274   1.002  -0.092  0.00  0.00    +0.071 C 
BRANCH  17  18
ATOM     18  N   LIG    1        4.663  -0.029   0.917  0.00  0.00    -0.304 NA
ATOM     19  C   LIG    1        3.975  -1.311   0.767  0.00  0.00    +0.105 C 
ATOM     20  C   LIG    1        4.544   0.456   2.291  0.00  0.00    +0.105 C 
ENDBRANCH  17  18
ENDBRANCH  15  17
ENDBRANCH   1  15
TORSDOF 3
