REMARK  Name = *****
REMARK                            x       y       z     vdW  Elec       q    Type
REMARK                         _______ _______ _______ _____ _____    ______ ____
ROOT
ATOM      1  C   LIG    1        4.949  -0.154  -3.093  0.00  0.00    +0.076 C 
ATOM      2  C   LIG    1        4.449  -0.888  -4.353  0.00  0.00    +0.023 C 
ATOM      3  C   LIG    1        4.681   0.586  -4.428  0.00  0.00    +0.027 C 
ENDROOT
BRANCH   1   4
ATOM      4  C   LIG    1        6.455  -0.260  -2.751  0.00  0.00    -0.032 A 
ATOM      5  C   LIG    1        7.096  -1.508  -2.640  0.00  0.00    +0.005 A 
ATOM      6  C   LIG    1        8.445  -1.629  -2.305  0.00  0.00    +0.000 A 
ATOM      7  C   LIG    1        9.221  -0.489  -2.152  0.00  0.00    +0.000 A 
ATOM      8  C   LIG    1        8.640   0.765  -2.324  0.00  0.00    +0.000 A 
ATOM      9  C   LIG    1        7.271   0.877  -2.600  0.00  0.00    +0.005 A 
ENDBRANCH   1   4
BRANCH   1  11
ATOM     10  N   LIG    1        3.675  -0.765  -0.956  0.00  0.00    -0.301 N 
ATOM     11  C   LIG    1        3.968   0.182  -1.958  0.00  0.00    +0.226 C 
ATOM     12  O   LIG    1        3.441   1.286  -1.972  0.00  0.00    -0.275 OA
BRANCH  10  14
ATOM     13  C   LIG    1        1.453  -1.255   0.102  0.00  0.00    +0.024 C 
ATOM     14  C   LIG    1        2.711  -0.391   0.091  0.00  0.00    +0.104 C 
ENDBRANCH  10  14
BRANCH  10  15
ATOM     15  C   LIG    1        4.204  -2.128  -0.915  0.00  0.00    +0.104 C 
ATOM     16  C   LIG    1        4.966  -2.455   0.365  0.00  0.00    +0.024 C 
ENDBRANCH  10  15
ENDBRANCH   1  11
BRANCH   2  17
ATOM     17  C   LIG    1        3.051  -1.366  -4.561  0.00  0.00    +0.082 C 
BRANCH  17  18
ATOM     18  N   LIG    1        3.032  -2.816  -4.433  0.00  0.00    -0.330 NA
ATOM     19  H   LIG    1        2.074  -3.136  -4.576  0.00  0.00    +0.118 HD
ATOM     20  H   LIG    1        3.564  -3.221  -5.204  0.00  0.00    +0.118 HD
ENDBRANCH  17  18
ENDBRANCH   2  17
TORSDOF 6
