REMARK  Name = *****
REMARK                            x       y       z     vdW  Elec       q    Type
REMARK                         _______ _______ _______ _____ _____    ______ ____
ROOT
ATOM      1  C   LIG    1        2.869   1.173   1.402  0.00  0.00    +0.399 C 
ENDROOT
BRANCH   1   2
ATOM      2  C   LIG    1        3.802   2.343   1.410  0.00  0.00    +0.075 A 
ATOM      3  C   LIG    1        3.545   3.516   0.740  0.00  0.00    +0.129 A 
ATOM      4  N   LIG    1        4.442   4.498   0.612  0.00  0.00    -0.218 NA
ATOM      5  C   LIG    1        5.633   4.327   1.215  0.00  0.00    +0.128 A 
ATOM      6  C   LIG    1        6.674   5.389   1.035  0.00  0.00    +0.088 C 
ATOM      7  N   LIG    1        5.963   3.244   1.931  0.00  0.00    -0.240 NA
ATOM      8  C   LIG    1        5.039   2.272   2.020  0.00  0.00    +0.126 A 
BRANCH   3   9
ATOM      9  N   LIG    1        2.313   3.765   0.128  0.00  0.00    -0.343 N 
ATOM     10  H   LIG    1        1.582   3.897   0.824  0.00  0.00    +0.144 HD
ATOM     11  H   LIG    1        2.425   4.664  -0.350  0.00  0.00    +0.144 HD
ENDBRANCH   3   9
ENDBRANCH   1   2
BRANCH   1  14
ATOM     12  C   LIG    1        3.540  -1.478   2.648  0.00  0.00    +0.122 C 
ATOM     13  C   LIG    1        3.726  -1.220   1.196  0.00  0.00    +0.192 A 
ATOM     14  N   LIG    1        3.465   0.042   0.662  0.00  0.00    -0.190 N 
ATOM     15  C   LIG    1        3.747   0.162  -0.628  0.00  0.00    +0.357 A 
ATOM     16  S   LIG    1        4.306  -1.311  -1.285  0.00  0.00    -0.027 S 
ATOM     17  C   LIG    1        4.142  -2.118   0.223  0.00  0.00    +0.064 A 
BRANCH  17  18
ATOM     18  C   LIG    1        4.486  -3.584   0.338  0.00  0.00    +0.076 C 
BRANCH  18  19
ATOM     19  C   LIG    1        3.278  -4.467   0.668  0.00  0.00    +0.161 C 
BRANCH  19  20
ATOM     20  O   LIG    1        2.711  -4.103   1.922  0.00  0.00    -0.395 OA
ATOM     21  H   LIG    1        1.974  -4.719   2.093  0.00  0.00    +0.209 HD
ENDBRANCH  19  20
ENDBRANCH  18  19
ENDBRANCH  17  18
ENDBRANCH   1  14
TORSDOF 6
