REMARK  Name = *****
REMARK                            x       y       z     vdW  Elec       q    Type
REMARK                         _______ _______ _______ _____ _____    ______ ____
ROOT
ATOM      1  C   LIG    1        9.456  -4.505   1.451  0.00  0.00    +0.132 C 
ENDROOT
BRANCH   1   2
ATOM      2  C   LIG    1        9.272  -4.061  -0.042  0.00  0.00    +0.173 C 
ATOM      3  C   LIG    1       10.293  -4.633  -1.041  0.00  0.00    +0.176 C 
ATOM      4  C   LIG    1       10.142  -4.032  -2.443  0.00  0.00    +0.177 C 
ATOM      5  C   LIG    1       10.115  -2.507  -2.385  0.00  0.00    +0.184 C 
ATOM      6  C   LIG    1        9.067  -2.018  -1.361  0.00  0.00    +0.207 C 
ATOM      7  O   LIG    1        9.347  -2.608  -0.075  0.00  0.00    -0.356 OA
BRANCH   3   8
ATOM      8  O   LIG    1       11.647  -4.410  -0.608  0.00  0.00    -0.387 OA
ATOM      9  H   LIG    1       11.682  -3.542  -0.162  0.00  0.00    +0.210 HD
ENDBRANCH   3   8
BRANCH   4  10
ATOM     10  O   LIG    1       11.250  -4.439  -3.271  0.00  0.00    -0.387 OA
ATOM     11  H   LIG    1       11.983  -4.644  -2.653  0.00  0.00    +0.210 HD
ENDBRANCH   4  10
BRANCH   5  12
ATOM     12  O   LIG    1        9.948  -1.965  -3.697  0.00  0.00    -0.386 OA
ATOM     13  H   LIG    1       10.501  -2.526  -4.280  0.00  0.00    +0.210 HD
ENDBRANCH   5  12
BRANCH   6  14
ATOM     14  S   LIG    1        7.316  -2.260  -1.872  0.00  0.00    -0.131 S 
ATOM     15  C   LIG    1        6.478  -1.411  -0.507  0.00  0.00    +0.087 C 
ENDBRANCH   6  14
ENDBRANCH   1   2
BRANCH   1  17
ATOM     16  C   LIG    1        8.463  -3.546   3.596  0.00  0.00    +0.231 C 
ATOM     17  N   LIG    1        8.360  -3.878   2.263  0.00  0.00    -0.306 N 
ATOM     18  H   LIG    1        7.417  -4.032   1.917  0.00  0.00    +0.149 HD
ATOM     19  O   LIG    1        9.509  -3.727   4.233  0.00  0.00    -0.274 OA
BRANCH  16  24
ATOM     20  C   LIG    1        6.367  -2.119   6.395  0.00  0.00    +0.005 C 
ATOM     21  C   LIG    1        5.387  -3.063   5.699  0.00  0.00    +0.088 C 
ATOM     22  N   LIG    1        6.202  -3.889   4.780  0.00  0.00    -0.294 NA
ATOM     23  C   LIG    1        6.822  -4.993   5.520  0.00  0.00    +0.105 C 
ATOM     24  C   LIG    1        7.193  -2.913   4.226  0.00  0.00    +0.143 C 
ATOM     25  C   LIG    1        7.491  -1.933   5.370  0.00  0.00    +0.033 C 
BRANCH  20  26
ATOM     26  C   LIG    1        5.743  -0.794   6.855  0.00  0.00    +0.004 C 
BRANCH  26  28
ATOM     27  C   LIG    1        4.027   0.329   8.333  0.00  0.00    +0.004 C 
ATOM     28  C   LIG    1        4.634  -0.994   7.892  0.00  0.00    -0.003 C 
ENDBRANCH  26  28
ENDBRANCH  20  26
ENDBRANCH  16  24
ENDBRANCH   1  17
BRANCH   1  29
ATOM     29  C   LIG    1        9.422  -6.040   1.694  0.00  0.00    +0.134 C 
ATOM     30  C   LIG    1       10.603  -6.854   1.174  0.00  0.00    +0.039 C 
BRANCH  29  31
ATOM     31  O   LIG    1        8.222  -6.569   1.116  0.00  0.00    -0.390 OA
ATOM     32  H   LIG    1        8.132  -7.485   1.436  0.00  0.00    +0.210 HD
ENDBRANCH  29  31
ENDBRANCH   1  29
TORSDOF 11
