REMARK  Name = *****
REMARK                            x       y       z     vdW  Elec       q    Type
REMARK                         _______ _______ _______ _____ _____    ______ ____
ROOT
ATOM      1  C   LIG    1        5.703   4.552   0.872  0.00  0.00    +0.048 C 
ATOM      2  C   LIG    1        6.480   3.286   1.097  0.00  0.00    -0.009 A 
ATOM      3  C   LIG    1        6.280   2.074   0.399  0.00  0.00    +0.126 A 
ATOM      4  C   LIG    1        7.048   0.940   0.754  0.00  0.00    -0.009 A 
ATOM      5  C   LIG    1        6.879  -0.377   0.045  0.00  0.00    +0.048 C 
ATOM      6  C   LIG    1        8.015   1.028   1.769  0.00  0.00    +0.007 A 
ATOM      7  C   LIG    1        8.221   2.227   2.444  0.00  0.00    +0.001 A 
ATOM      8  C   LIG    1        7.465   3.338   2.105  0.00  0.00    +0.007 A 
ENDROOT
BRANCH   3   9
ATOM      9  O   LIG    1        5.321   1.836  -0.556  0.00  0.00    -0.490 OA
BRANCH   9  10
ATOM     10  C   LIG    1        5.036   2.865  -1.506  0.00  0.00    +0.247 C 
BRANCH  10  11
ATOM     11  C   LIG    1        4.188   2.308  -2.673  0.00  0.00    +0.085 C 
ATOM     12  C   LIG    1        2.860   1.727  -2.180  0.00  0.00    +0.027 C 
BRANCH  11  13
ATOM     13  N   LIG    1        3.910   3.367  -3.658  0.00  0.00    -0.325 NA
ATOM     14  H   LIG    1        3.398   2.970  -4.446  0.00  0.00    +0.119 HD
ATOM     15  H   LIG    1        3.281   4.059  -3.247  0.00  0.00    +0.119 HD
ENDBRANCH  11  13
ENDBRANCH  10  11
ENDBRANCH   9  10
ENDBRANCH   3   9
TORSDOF 4
