REMARK  Name = *****
REMARK                            x       y       z     vdW  Elec       q    Type
REMARK                         _______ _______ _______ _____ _____    ______ ____
ROOT
ATOM      1  C   LIG    1        4.873  -0.651  -1.335  0.00  0.00    +0.119 C 
ATOM      2  N   LIG    1        5.516   0.658  -1.090  0.00  0.00    -0.330 N 
ATOM      3  H   LIG    1        5.278   1.463  -1.665  0.00  0.00    +0.147 HD
ATOM      4  C   LIG    1        6.793   0.698  -0.522  0.00  0.00    +0.133 C 
ATOM      5  C   LIG    1        7.390  -0.372   0.066  0.00  0.00    +0.149 C 
ATOM      6  N   LIG    1        8.633  -0.318   0.642  0.00  0.00    -0.199 NA
ATOM      7  C   LIG    1        9.274   0.805   0.623  0.00  0.00    +0.195 C 
ATOM      8  N   LIG    1        8.775   1.939   0.068  0.00  0.00    -0.294 N 
ATOM      9  H   LIG    1        9.334   2.772   0.011  0.00  0.00    +0.172 HD
ATOM     10  N   LIG    1        6.692  -1.586   0.083  0.00  0.00    -0.326 N 
ATOM     11  H   LIG    1        7.037  -2.173   0.837  0.00  0.00    +0.148 HD
ATOM     12  C   LIG    1        7.572   1.967  -0.568  0.00  0.00    +0.276 C 
ATOM     13  O   LIG    1        7.157   2.961  -1.161  0.00  0.00    -0.266 OA
ATOM     14  C   LIG    1        5.243  -1.601  -0.153  0.00  0.00    +0.128 C 
ENDROOT
BRANCH   7  15
ATOM     15  N   LIG    1       10.507   0.897   1.181  0.00  0.00    -0.329 N 
ATOM     16  H   LIG    1       10.724   1.761   1.659  0.00  0.00    +0.145 HD
ATOM     17  H   LIG    1       10.729   0.075   1.735  0.00  0.00    +0.145 HD
ENDBRANCH   7  15
BRANCH   1  18
ATOM     18  C   LIG    1        5.321  -1.204  -2.713  0.00  0.00    +0.164 C 
BRANCH  18  20
ATOM     19  C   LIG    1        3.202  -2.606  -3.151  0.00  0.00    +0.040 C 
ATOM     20  C   LIG    1        4.725  -2.576  -3.092  0.00  0.00    +0.142 C 
BRANCH  20  21
ATOM     21  O   LIG    1        5.205  -2.931  -4.398  0.00  0.00    -0.389 OA
ATOM     22  H   LIG    1        5.113  -2.117  -4.933  0.00  0.00    +0.210 HD
ENDBRANCH  20  21
ENDBRANCH  18  20
BRANCH  18  23
ATOM     23  O   LIG    1        4.953  -0.269  -3.755  0.00  0.00    -0.387 OA
ATOM     24  H   LIG    1        5.493   0.526  -3.589  0.00  0.00    +0.210 HD
ENDBRANCH  18  23
ENDBRANCH   1  18
TORSDOF 5
