REMARK  Name = *****
REMARK                            x       y       z     vdW  Elec       q    Type
REMARK                         _______ _______ _______ _____ _____    ______ ____
ROOT
ATOM      1  C   LIG    1        6.241  -0.161  -0.662  0.00  0.00    +0.005 C 
ATOM      2  C   LIG    1        6.802   1.060  -0.823  0.00  0.00    -0.001 C 
ENDROOT
BRANCH   1   7
ATOM      3  C   LIG    1        0.797  -0.767   1.297  0.00  0.00    +0.044 C 
ATOM      4  C   LIG    1        2.201  -0.575   0.799  0.00  0.00    -0.050 A 
ATOM      5  C   LIG    1        3.283  -0.545   1.686  0.00  0.00    +0.004 A 
ATOM      6  C   LIG    1        4.591  -0.382   1.213  0.00  0.00    +0.009 A 
ATOM      7  C   LIG    1        4.845  -0.268  -0.159  0.00  0.00    -0.016 A 
ATOM      8  C   LIG    1        3.759  -0.288  -1.047  0.00  0.00    +0.009 A 
ATOM      9  C   LIG    1        2.450  -0.439  -0.572  0.00  0.00    +0.004 A 
ENDBRANCH   1   7
BRANCH   1  10
ATOM     10  C   LIG    1        7.090  -1.349  -1.009  0.00  0.00    +0.072 A 
ATOM     11  N   LIG    1        8.443  -1.234  -0.831  0.00  0.00    -0.247 NA
ATOM     12  C   LIG    1        9.229  -2.258  -1.240  0.00  0.00    +0.065 A 
ATOM     13  C   LIG    1        8.714  -3.450  -1.728  0.00  0.00    +0.028 A 
ATOM     14  C   LIG    1        7.337  -3.585  -1.845  0.00  0.00    +0.004 A 
ATOM     15  C   LIG    1        6.513  -2.517  -1.501  0.00  0.00    +0.028 A 
BRANCH  12  16
ATOM     16  C   LIG    1       10.681  -2.048  -1.223  0.00  0.00    +0.035 C 
ATOM     17  C   LIG    1       11.443  -1.222  -0.491  0.00  0.00    +0.093 C 
BRANCH  17  18
ATOM     18  C   LIG    1       11.143  -0.293   0.619  0.00  0.00    +0.330 C 
ATOM     19  O   LIG    1       11.940   0.563   0.948  0.00  0.00    -0.246 OA
BRANCH  18  20
ATOM     20  O   LIG    1       10.038  -0.586   1.329  0.00  0.00    -0.477 OA
ATOM     21  H   LIG    1        9.382  -1.089   0.802  0.00  0.00    +0.295 HD
ENDBRANCH  18  20
ENDBRANCH  17  18
ENDBRANCH  12  16
ENDBRANCH   1  10
BRANCH   2  22
ATOM     22  C   LIG    1        6.260   2.420  -0.472  0.00  0.00    +0.112 C 
BRANCH  22  23
ATOM     23  N   LIG    1        7.197   3.156   0.383  0.00  0.00    -0.299 NA
ATOM     24  C   LIG    1        6.722   4.501   0.705  0.00  0.00    +0.085 C 
ATOM     25  C   LIG    1        7.655   4.917   1.828  0.00  0.00    +0.017 C 
ATOM     26  C   LIG    1        7.919   3.630   2.594  0.00  0.00    +0.017 C 
ATOM     27  C   LIG    1        7.445   2.508   1.677  0.00  0.00    +0.085 C 
ENDBRANCH  22  23
ENDBRANCH   2  22
TORSDOF 7
