REMARK  Name = *****
REMARK                            x       y       z     vdW  Elec       q    Type
REMARK                         _______ _______ _______ _____ _____    ______ ____
ROOT
ATOM      1  C   LIG    1        9.674   0.185   2.573  0.00  0.00    +0.201 C 
ATOM      2  O   LIG    1       10.900   0.253   2.579  0.00  0.00    -0.286 OA
ENDROOT
BRANCH   1   3
ATOM      3  C   LIG    1        9.003  -1.106   2.352  0.00  0.00    +0.049 A 
ATOM      4  C   LIG    1        9.631  -2.328   1.915  0.00  0.00    +0.030 A 
ATOM      5  C   LIG    1        8.629  -3.269   1.731  0.00  0.00    +0.139 A 
ATOM      6  N   LIG    1        8.751  -4.531   1.292  0.00  0.00    -0.237 NA
ATOM      7  C   LIG    1       10.043  -4.882   1.071  0.00  0.00    +0.121 A 
ATOM      8  C   LIG    1       11.182  -4.087   1.257  0.00  0.00    +0.001 A 
ATOM      9  N   LIG    1        7.447  -2.703   2.099  0.00  0.00    -0.345 N 
ATOM     10  H   LIG    1        6.561  -3.186   2.058  0.00  0.00    +0.167 HD
ATOM     11  C   LIG    1       10.950  -2.756   1.655  0.00  0.00    +0.022 A 
ATOM     12  C   LIG    1        7.670  -1.435   2.570  0.00  0.00    +0.097 A 
BRANCH   8  13
ATOM     13  C   LIG    1       12.551  -4.631   1.105  0.00  0.00    -0.016 A 
ATOM     14  C   LIG    1       12.843  -5.970   1.439  0.00  0.00    +0.010 A 
ATOM     15  C   LIG    1       14.145  -6.478   1.365  0.00  0.00    +0.020 A 
ATOM     16  C   LIG    1       15.184  -5.653   0.953  0.00  0.00    +0.041 A 
ATOM     17 CL   LIG    1       16.789  -6.265   0.892  0.00  0.00    -0.084 Cl
ATOM     18  C   LIG    1       14.928  -4.333   0.600  0.00  0.00    +0.020 A 
ATOM     19  C   LIG    1       13.624  -3.829   0.673  0.00  0.00    +0.010 A 
ENDBRANCH   8  13
ENDBRANCH   1   3
BRANCH   1  23
ATOM     20  C   LIG    1        8.761   3.651   3.816  0.00  0.00    +0.084 A 
ATOM     21  C   LIG    1        9.469   2.463   3.563  0.00  0.00    +0.159 A 
ATOM     22  F   LIG    1       10.701   2.350   4.083  0.00  0.00    -0.203 F 
ATOM     23  C   LIG    1        8.905   1.438   2.797  0.00  0.00    +0.094 A 
ATOM     24  C   LIG    1        7.652   1.676   2.228  0.00  0.00    +0.137 A 
ATOM     25  F   LIG    1        7.124   0.845   1.319  0.00  0.00    -0.205 F 
ATOM     26  C   LIG    1        6.907   2.814   2.545  0.00  0.00    +0.041 A 
ATOM     27  C   LIG    1        7.458   3.804   3.350  0.00  0.00    +0.030 A 
BRANCH  20  28
ATOM     28  N   LIG    1        9.424   4.792   4.386  0.00  0.00    -0.218 N 
ATOM     29  H   LIG    1       10.119   4.542   5.100  0.00  0.00    +0.173 HD
BRANCH  28  30
ATOM     30  S   LIG    1       10.252   5.771   3.247  0.00  0.00    +0.043 S 
ATOM     31  O   LIG    1       11.399   6.307   3.953  0.00  0.00    -0.155 OA
ATOM     32  O   LIG    1       10.387   5.034   1.998  0.00  0.00    -0.155 OA
BRANCH  30  33
ATOM     33  C   LIG    1        9.086   7.107   3.002  0.00  0.00    +0.188 C 
BRANCH  33  35
ATOM     34  C   LIG    1        8.586   9.222   1.716  0.00  0.00    +0.005 C 
ATOM     35  C   LIG    1        9.569   8.081   1.929  0.00  0.00    +0.021 C 
ENDBRANCH  33  35
ENDBRANCH  30  33
ENDBRANCH  28  30
ENDBRANCH  20  28
ENDBRANCH   1  23
TORSDOF 7
