REMARK  Name = *****
REMARK                            x       y       z     vdW  Elec       q    Type
REMARK                         _______ _______ _______ _____ _____    ______ ____
ROOT
ATOM      1  C   LIG    1        2.860   1.205  -0.404  0.00  0.00    +0.104 C 
ATOM      2  C   LIG    1        1.992   2.286  -1.106  0.00  0.00    +0.158 C 
ATOM      3  O   LIG    1        2.045   2.515  -2.319  0.00  0.00    -0.295 OA
ATOM      4  C   LIG    1        1.170   3.180  -0.194  0.00  0.00    +0.076 C 
ATOM      5  C   LIG    1        2.110   3.952   0.721  0.00  0.00    +0.008 C 
ATOM      6  C   LIG    1        3.069   3.015   1.451  0.00  0.00    +0.003 C 
ATOM      7  C   LIG    1        3.814   2.109   0.461  0.00  0.00    +0.035 C 
ENDROOT
BRANCH   1   8
ATOM      8  C   LIG    1        2.084   0.161   0.436  0.00  0.00    -0.002 A 
ATOM      9  C   LIG    1        0.793  -0.328   0.134  0.00  0.00    +0.046 A 
ATOM     10 CL   LIG    1       -0.128   0.148  -1.252  0.00  0.00    -0.083 Cl
ATOM     11  C   LIG    1        0.170  -1.293   0.945  0.00  0.00    +0.020 A 
ATOM     12  C   LIG    1        0.816  -1.813   2.061  0.00  0.00    +0.001 A 
ATOM     13  C   LIG    1        2.099  -1.386   2.360  0.00  0.00    +0.001 A 
ATOM     14  C   LIG    1        2.725  -0.431   1.553  0.00  0.00    +0.007 A 
ENDBRANCH   1   8
BRANCH   1  16
ATOM     15  C   LIG    1        3.168  -0.397  -2.299  0.00  0.00    +0.102 C 
ATOM     16  N   LIG    1        3.789   0.547  -1.376  0.00  0.00    -0.304 NA
ATOM     17  H   LIG    1        4.191   1.292  -1.951  0.00  0.00    +0.123 HD
ENDBRANCH   1  16
TORSDOF 2
