REMARK  Name = *****
REMARK                            x       y       z     vdW  Elec       q    Type
REMARK                         _______ _______ _______ _____ _____    ______ ____
ROOT
ATOM      1  C   LIG    1        0.403   0.677  -0.655  0.00  0.00    +0.009 C 
ATOM      2  C   LIG    1        1.895   0.564  -0.323  0.00  0.00    +0.009 C 
ATOM      3  C   LIG    1        2.387  -0.912  -0.220  0.00  0.00    +0.095 C 
ATOM      4  C   LIG    1        2.419  -1.525  -1.679  0.00  0.00    +0.130 C 
ATOM      5  N   LIG    1        3.071  -0.664  -2.704  0.00  0.00    -0.299 N 
ATOM      6  C   LIG    1        3.835  -1.252  -3.713  0.00  0.00    +0.230 C 
ATOM      7  O   LIG    1        4.041  -2.468  -3.745  0.00  0.00    -0.275 OA
ATOM      8  C   LIG    1        2.609   0.719  -2.745  0.00  0.00    +0.108 C 
ATOM      9  C   LIG    1        2.740   1.328  -1.361  0.00  0.00    +0.024 C 
ENDROOT
BRANCH   3  10
ATOM     10  N   LIG    1        1.559  -1.760   0.735  0.00  0.00    -0.313 N 
ATOM     11  C   LIG    1        2.155  -3.089   0.982  0.00  0.00    +0.131 C 
BRANCH  10  12
ATOM     12  C   LIG    1        1.335  -1.202   2.036  0.00  0.00    +0.134 A 
ATOM     13  C   LIG    1        0.199  -1.491   2.854  0.00  0.00    +0.059 A 
ATOM     14  C   LIG    1        0.151  -0.890   4.109  0.00  0.00    +0.143 A 
ATOM     15  N   LIG    1       -0.984  -1.288   4.760  0.00  0.00    -0.346 N 
ATOM     16  H   LIG    1       -1.230  -0.990   5.695  0.00  0.00    +0.167 HD
ATOM     17  C   LIG    1       -1.709  -2.120   3.950  0.00  0.00    +0.085 A 
ATOM     18  N   LIG    1        1.046  -0.051   4.643  0.00  0.00    -0.218 NA
ATOM     19  C   LIG    1        2.066   0.162   3.801  0.00  0.00    +0.225 A 
ATOM     20  C   LIG    1       -1.008  -2.259   2.765  0.00  0.00    +0.032 A 
ATOM     21  N   LIG    1        2.267  -0.363   2.574  0.00  0.00    -0.220 NA
ENDBRANCH  10  12
ENDBRANCH   3  10
BRANCH   6  22
ATOM     22  C   LIG    1        4.471  -0.367  -4.773  0.00  0.00    +0.214 C 
BRANCH  22  23
ATOM     23  C   LIG    1        3.586  -0.210  -5.921  0.00  0.00    +0.072 C 
ATOM     24  N   LIG    1        2.896  -0.039  -6.846  0.00  0.00    -0.196 NA
ENDBRANCH  22  23
ENDBRANCH   6  22
TORSDOF 4
