REMARK  Name = *****
REMARK                            x       y       z     vdW  Elec       q    Type
REMARK                         _______ _______ _______ _____ _____    ______ ____
ROOT
ATOM      1  N   LIG    1        2.585   0.081   1.333  0.00  0.00    -0.309 NA
ATOM      2  H   LIG    1        3.586  -0.063   1.446  0.00  0.00    +0.122 HD
ENDROOT
BRANCH   1   4
ATOM      3  C   LIG    1        2.676  -1.121  -0.833  0.00  0.00    +0.029 C 
ATOM      4  C   LIG    1        2.258   0.170  -0.107  0.00  0.00    +0.081 C 
BRANCH   4   5
ATOM      5  C   LIG    1        2.885   1.391  -0.784  0.00  0.00    -0.023 A 
ATOM      6  C   LIG    1        2.100   2.471  -1.298  0.00  0.00    -0.013 A 
ATOM      7  C   LIG    1        2.776   3.603  -1.834  0.00  0.00    -0.018 A 
ATOM      8  C   LIG    1        2.047   4.693  -2.335  0.00  0.00    +0.008 A 
ATOM      9  C   LIG    1        0.655   4.696  -2.331  0.00  0.00    +0.001 A 
ATOM     10  C   LIG    1       -0.028   3.602  -1.821  0.00  0.00    +0.001 A 
ATOM     11  C   LIG    1        4.175   3.639  -1.865  0.00  0.00    +0.008 A 
ATOM     12  C   LIG    1        4.932   2.582  -1.375  0.00  0.00    +0.001 A 
ATOM     13  C   LIG    1        0.684   2.511  -1.315  0.00  0.00    +0.009 A 
ATOM     14  C   LIG    1        4.293   1.474  -0.833  0.00  0.00    +0.006 A 
ENDBRANCH   4   5
ENDBRANCH   1   4
BRANCH   1  15
ATOM     15  C   LIG    1        2.171   1.280   2.075  0.00  0.00    +0.082 C 
BRANCH  15  16
ATOM     16  C   LIG    1        2.519   1.159   3.562  0.00  0.00    +0.020 C 
BRANCH  16  17
ATOM     17  C   LIG    1        2.080   2.416   4.324  0.00  0.00    +0.036 C 
BRANCH  17  18
ATOM     18  C   LIG    1        2.396   2.343   5.800  0.00  0.00    -0.047 A 
ATOM     19  C   LIG    1        1.467   1.797   6.698  0.00  0.00    +0.016 A 
ATOM     20  C   LIG    1        1.746   1.721   8.074  0.00  0.00    +0.055 A 
ATOM     21  C   LIG    1        2.979   2.194   8.543  0.00  0.00    +0.012 A 
ATOM     22  C   LIG    1        3.910   2.736   7.657  0.00  0.00    +0.001 A 
ATOM     23  C   LIG    1        3.620   2.811   6.293  0.00  0.00    +0.003 A 
BRANCH  20  24
ATOM     24  C   LIG    1        0.722   1.142   9.018  0.00  0.00    +0.417 C 
ATOM     25  F   LIG    1        0.399  -0.146   8.713  0.00  0.00    -0.166 F 
ATOM     26  F   LIG    1       -0.452   1.834   9.003  0.00  0.00    -0.166 F 
ATOM     27  F   LIG    1        1.125   1.125  10.320  0.00  0.00    -0.166 F 
ENDBRANCH  20  24
ENDBRANCH  17  18
ENDBRANCH  16  17
ENDBRANCH  15  16
ENDBRANCH   1  15
TORSDOF 7
