REMARK  Name = *****
REMARK                            x       y       z     vdW  Elec       q    Type
REMARK                         _______ _______ _______ _____ _____    ______ ____
ROOT
ATOM      1  C   LIG    1       -5.271   9.942  -3.015  0.00  0.00    +0.015 C 
ATOM      2  C   LIG    1       -3.738  10.021  -2.904  0.00  0.00    +0.009 C 
ATOM      3  C   LIG    1       -3.208  11.470  -3.167  0.00  0.00    +0.132 C 
ATOM      4  C   LIG    1       -1.731  11.277  -3.524  0.00  0.00    +0.043 C 
ATOM      5  C   LIG    1       -1.623   9.857  -4.094  0.00  0.00    +0.007 C 
ATOM      6  C   LIG    1       -3.040   9.247  -4.048  0.00  0.00    +0.002 C 
ATOM      7  C   LIG    1       -3.011   7.707  -3.932  0.00  0.00    -0.000 C 
ATOM      8  C   LIG    1       -4.273   7.045  -4.539  0.00  0.00    +0.008 C 
ATOM      9  C   LIG    1       -5.037   6.034  -3.677  0.00  0.00    +0.032 C 
ATOM     10  C   LIG    1       -4.243   5.263  -2.652  0.00  0.00    -0.056 C 
ATOM     11  C   LIG    1       -2.771   5.612  -2.478  0.00  0.00    +0.013 C 
ATOM     12  C   LIG    1       -1.956   4.925  -3.605  0.00  0.00    +0.020 C 
ATOM     13  C   LIG    1       -2.194   5.027  -1.196  0.00  0.00    -0.012 C 
ATOM     14  C   LIG    1       -2.830   4.158  -0.406  0.00  0.00    +0.047 C 
ATOM     15  C   LIG    1       -4.209   3.719  -0.720  0.00  0.00    +0.179 C 
ATOM     16  O   LIG    1       -4.774   2.869  -0.057  0.00  0.00    -0.288 OA
ATOM     17  C   LIG    1       -4.883   4.388  -1.855  0.00  0.00    +0.051 C 
ATOM     18  C   LIG    1       -2.625   7.177  -2.526  0.00  0.00    +0.035 C 
ATOM     19  C   LIG    1       -3.392   7.938  -1.407  0.00  0.00    +0.120 C 
ATOM     20  C   LIG    1       -3.283   9.463  -1.539  0.00  0.00    +0.042 C 
ENDROOT
BRANCH   3  21
ATOM     21  O   LIG    1       -3.834  11.990  -4.362  0.00  0.00    -0.380 OA
ATOM     22  H   LIG    1       -4.610  12.514  -4.065  0.00  0.00    +0.211 HD
ENDBRANCH   3  21
BRANCH   3  23
ATOM     23  C   LIG    1       -3.517  12.497  -2.060  0.00  0.00    +0.190 C 
ATOM     24  O   LIG    1       -4.591  13.114  -2.084  0.00  0.00    -0.292 OA
BRANCH  23  25
ATOM     25  C   LIG    1       -2.482  12.815  -0.996  0.00  0.00    +0.233 C 
BRANCH  25  26
ATOM     26  O   LIG    1       -1.581  13.810  -1.444  0.00  0.00    -0.387 OA
ATOM     27  H   LIG    1       -2.102  14.626  -1.573  0.00  0.00    +0.210 HD
ENDBRANCH  25  26
ENDBRANCH  23  25
ENDBRANCH   3  23
BRANCH  19  28
ATOM     28  O   LIG    1       -2.880   7.612  -0.114  0.00  0.00    -0.391 OA
ATOM     29  H   LIG    1       -1.925   7.792  -0.104  0.00  0.00    +0.210 HD
ENDBRANCH  19  28
TORSDOF 5
