REMARK  Name = *****
REMARK                            x       y       z     vdW  Elec       q    Type
REMARK                         _______ _______ _______ _____ _____    ______ ____
ROOT
ATOM      1  O   LIG    1        3.553  -3.615  -1.385  0.00  0.00    -0.226 OA
ATOM      2  C   LIG    1        4.184  -3.263  -0.389  0.00  0.00    +0.413 C 
ATOM      3  N   LIG    1        4.609  -4.131   0.641  0.00  0.00    -0.188 N 
ATOM      4  C   LIG    1        5.313  -3.642   1.802  0.00  0.00    +0.148 A 
ATOM      5  C   LIG    1        5.345  -4.351   3.009  0.00  0.00    +0.053 A 
ATOM      6  C   LIG    1        6.083  -3.840   4.088  0.00  0.00    +0.020 A 
ATOM      7  C   LIG    1        6.769  -2.642   3.960  0.00  0.00    +0.021 A 
ATOM      8  C   LIG    1        6.689  -1.993   2.750  0.00  0.00    +0.113 A 
ATOM      9  S   LIG    1        4.436  -5.839   3.294  0.00  0.00    -0.084 S 
ATOM     10  C   LIG    1        4.359  -6.426   1.625  0.00  0.00    +0.035 A 
ATOM     11  C   LIG    1        4.186  -7.813   1.458  0.00  0.00    +0.017 A 
ATOM     12  C   LIG    1        4.103  -8.376   0.189  0.00  0.00    +0.001 A 
ATOM     13  C   LIG    1        4.197  -7.554  -0.921  0.00  0.00    +0.002 A 
ATOM     14  C   LIG    1        4.362  -6.174  -0.758  0.00  0.00    +0.025 A 
ATOM     15  N   LIG    1        5.996  -2.470   1.693  0.00  0.00    -0.238 NA
ATOM     16  C   LIG    1        4.430  -5.566   0.516  0.00  0.00    +0.060 A 
ENDROOT
BRANCH   2  17
ATOM     17  O   LIG    1        4.481  -1.940  -0.206  0.00  0.00    -0.448 OA
BRANCH  17  18
ATOM     18  C   LIG    1        4.231  -1.068  -1.320  0.00  0.00    +0.262 C 
BRANCH  18  19
ATOM     19  C   LIG    1        5.270  -1.287  -2.416  0.00  0.00    +0.201 C 
BRANCH  19  20
ATOM     20  O   LIG    1        5.032  -0.412  -3.520  0.00  0.00    -0.375 OA
BRANCH  20  21
ATOM     21  C   LIG    1        5.915  -0.732  -4.602  0.00  0.00    +0.175 C 
BRANCH  21  22
ATOM     22  C   LIG    1        5.609   0.159  -5.814  0.00  0.00    +0.112 C 
BRANCH  22  23
ATOM     23  N   LIG    1        6.521  -0.037  -6.960  0.00  0.00    -0.300 NA
ATOM     24  C   LIG    1        6.571  -1.419  -7.465  0.00  0.00    +0.084 C 
ATOM     25  C   LIG    1        5.275  -1.868  -8.138  0.00  0.00    +0.015 C 
ATOM     26  C   LIG    1        4.897  -0.921  -9.272  0.00  0.00    +0.002 C 
ATOM     27  C   LIG    1        4.913   0.536  -8.814  0.00  0.00    +0.015 C 
ATOM     28  C   LIG    1        6.203   0.885  -8.063  0.00  0.00    +0.084 C 
ENDBRANCH  22  23
ENDBRANCH  21  22
ENDBRANCH  20  21
ENDBRANCH  19  20
ENDBRANCH  18  19
ENDBRANCH  17  18
ENDBRANCH   2  17
TORSDOF 7
