REMARK  Name = *****
REMARK                            x       y       z     vdW  Elec       q    Type
REMARK                         _______ _______ _______ _____ _____    ______ ____
ROOT
ATOM      1  C   LIG    1        1.040   0.046   0.272  0.00  0.00    +0.027 C 
ATOM      2  C   LIG    1        2.470   0.276  -0.242  0.00  0.00    +0.084 C 
ATOM      3  C   LIG    1        3.230  -1.085  -0.388  0.00  0.00    +0.165 C 
ATOM      4  O   LIG    1        2.692  -1.835  -1.502  0.00  0.00    -0.369 OA
ATOM      5  C   LIG    1        2.733  -1.089  -2.725  0.00  0.00    +0.176 C 
ATOM      6  C   LIG    1        1.966   0.234  -2.613  0.00  0.00    +0.109 C 
ATOM      7  N   LIG    1        2.438   1.073  -1.495  0.00  0.00    -0.309 NA
ATOM      8  H   LIG    1        3.397   1.351  -1.711  0.00  0.00    +0.122 HD
ENDROOT
BRANCH   3   9
ATOM      9  C   LIG    1        4.756  -1.057  -0.460  0.00  0.00    -0.017 A 
ATOM     10  C   LIG    1        5.436  -2.262  -0.721  0.00  0.00    +0.006 A 
ATOM     11  C   LIG    1        6.830  -2.310  -0.781  0.00  0.00    +0.000 A 
ATOM     12  C   LIG    1        7.573  -1.154  -0.570  0.00  0.00    +0.000 A 
ATOM     13  C   LIG    1        6.922   0.046  -0.297  0.00  0.00    +0.000 A 
ATOM     14  C   LIG    1        5.525   0.094  -0.237  0.00  0.00    +0.006 A 
ENDBRANCH   3   9
TORSDOF 1
