REMARK  Name = *****
REMARK                            x       y       z     vdW  Elec       q    Type
REMARK                         _______ _______ _______ _____ _____    ______ ____
ROOT
ATOM      1  O   LIG    1       10.080  -4.928  -3.258  0.00  0.00    -0.267 OA
ATOM      2  C   LIG    1        9.535  -3.980  -2.699  0.00  0.00    +0.267 C 
ATOM      3  C   LIG    1       10.279  -2.822  -2.140  0.00  0.00    +0.094 C 
ATOM      4  I   LIG    1       12.321  -2.774  -2.222  0.00  0.00    -0.037 I 
ATOM      5  C   LIG    1        9.565  -1.829  -1.595  0.00  0.00    +0.113 C 
ATOM      6  N   LIG    1        8.183  -1.839  -1.528  0.00  0.00    -0.273 N 
ATOM      7  C   LIG    1        7.446  -2.925  -1.984  0.00  0.00    +0.331 C 
ATOM      8  O   LIG    1        6.224  -3.010  -1.900  0.00  0.00    -0.246 OA
ATOM      9  N   LIG    1        8.175  -3.937  -2.553  0.00  0.00    -0.274 N 
ATOM     10  H   LIG    1        7.655  -4.719  -2.919  0.00  0.00    +0.173 HD
ENDROOT
BRANCH   6  11
ATOM     11  C1* LIG    1        7.431  -0.725  -0.949  0.00  0.00    +0.226 C 
ATOM     12  O4* LIG    1        8.171   0.503  -1.103  0.00  0.00    -0.348 OA
ATOM     13  C4* LIG    1        8.382   1.071   0.207  0.00  0.00    +0.175 C 
ATOM     14  C3* LIG    1        8.213  -0.072   1.196  0.00  0.00    +0.150 C 
ATOM     15  C2* LIG    1        7.132  -0.897   0.538  0.00  0.00    +0.088 C 
BRANCH  14  16
ATOM     16  O3* LIG    1        7.851   0.359   2.496  0.00  0.00    -0.389 OA
ATOM     17  H3* LIG    1        7.015   0.856   2.450  0.00  0.00    +0.210 HD
ENDBRANCH  14  16
BRANCH  13  18
ATOM     18  C5* LIG    1        9.767   1.712   0.256  0.00  0.00    +0.190 C 
BRANCH  18  19
ATOM     19  O5* LIG    1        9.847   2.754  -0.717  0.00  0.00    -0.392 OA
ATOM     20  H5* LIG    1        9.492   2.381  -1.546  0.00  0.00    +0.209 HD
ENDBRANCH  18  19
ENDBRANCH  13  18
ENDBRANCH   6  11
TORSDOF 4
