REMARK  Name = *****
REMARK                            x       y       z     vdW  Elec       q    Type
REMARK                         _______ _______ _______ _____ _____    ______ ____
ROOT
ATOM      1  C   LIG    1        3.028   1.391   0.433  0.00  0.00    +0.072 C 
ATOM      2  C   LIG    1        4.471   0.829   0.394  0.00  0.00    +0.230 C 
ATOM      3  O   LIG    1        5.132   0.552   1.393  0.00  0.00    -0.274 OA
ATOM      4  N   LIG    1        5.012   0.560  -0.841  0.00  0.00    -0.256 N 
ATOM      5  H   LIG    1        5.939   0.156  -0.826  0.00  0.00    +0.158 HD
ATOM      6  C   LIG    1        4.508   0.841  -2.082  0.00  0.00    +0.219 C 
ATOM      7  O   LIG    1        5.131   0.532  -3.101  0.00  0.00    -0.275 OA
ATOM      8  C   LIG    1        3.145   1.473  -2.135  0.00  0.00    +0.097 C 
ATOM      9  C   LIG    1        2.831   2.244  -0.855  0.00  0.00    +0.030 C 
ENDROOT
BRANCH   1  10
ATOM     10  C   LIG    1        2.787   2.334   1.639  0.00  0.00    -0.032 A 
ATOM     11  C   LIG    1        1.510   2.525   2.193  0.00  0.00    +0.006 A 
ATOM     12  C   LIG    1        1.302   3.392   3.278  0.00  0.00    +0.023 A 
ATOM     13  C   LIG    1        2.364   4.076   3.867  0.00  0.00    +0.025 A 
ATOM     14  C   LIG    1        3.617   3.970   3.272  0.00  0.00    +0.023 A 
ATOM     15  C   LIG    1        3.828   3.111   2.183  0.00  0.00    +0.006 A 
BRANCH  13  16
ATOM     16  N   LIG    1        2.131   5.026   4.869  0.00  0.00    -0.358 N 
ATOM     17  H   LIG    1        1.314   4.827   5.437  0.00  0.00    +0.142 HD
ATOM     18  H   LIG    1        2.949   5.222   5.438  0.00  0.00    +0.142 HD
ENDBRANCH  13  16
ENDBRANCH   1  10
BRANCH   1  20
ATOM     19  C   LIG    1        2.161  -0.821   1.545  0.00  0.00    +0.005 C 
ATOM     20  C   LIG    1        2.061   0.162   0.383  0.00  0.00    +0.017 C 
ENDBRANCH   1  20
TORSDOF 3
