REMARK  Name = *****
REMARK                            x       y       z     vdW  Elec       q    Type
REMARK                         _______ _______ _______ _____ _____    ______ ____
ROOT
ATOM      1  C   LIG    1      -10.034  -4.780   6.432  0.00  0.00    +0.132 A 
ATOM      2  C   LIG    1       -9.228  -3.957   5.616  0.00  0.00    +0.075 A 
ATOM      3  C   LIG    1       -8.291  -4.499   4.582  0.00  0.00    +0.202 C 
ATOM      4  C   LIG    1       -7.402  -3.578   3.820  0.00  0.00    +0.078 A 
ATOM      5  C   LIG    1       -7.413  -2.220   4.113  0.00  0.00    +0.078 A 
ATOM      6  C   LIG    1       -8.407  -1.670   5.050  0.00  0.00    +0.198 C 
ATOM      7  O   LIG    1       -8.462  -0.460   5.230  0.00  0.00    -0.286 OA
ATOM      8  C   LIG    1       -6.455  -1.374   3.537  0.00  0.00    +0.132 A 
ATOM      9  C   LIG    1       -5.501  -1.864   2.630  0.00  0.00    +0.007 A 
ATOM     10  C   LIG    1       -4.355  -0.943   2.243  0.00  0.00    +0.082 C 
ATOM     11  C   LIG    1       -3.289  -1.533   1.317  0.00  0.00    +0.130 C 
ATOM     12  C   LIG    1       -3.249  -3.071   1.440  0.00  0.00    +0.079 C 
ATOM     13  C   LIG    1       -4.604  -3.717   1.136  0.00  0.00    +0.158 C 
ATOM     14  C   LIG    1       -5.574  -3.209   2.203  0.00  0.00    +0.030 A 
ATOM     15  C   LIG    1       -6.505  -4.061   2.838  0.00  0.00    +0.135 A 
ATOM     16  O   LIG    1       -8.211  -5.693   4.331  0.00  0.00    -0.286 OA
ATOM     17  C   LIG    1       -9.311  -2.572   5.779  0.00  0.00    +0.037 A 
ATOM     18  C   LIG    1      -10.230  -1.998   6.670  0.00  0.00    +0.012 A 
ATOM     19  C   LIG    1      -11.065  -2.809   7.425  0.00  0.00    +0.004 A 
ATOM     20  C   LIG    1      -10.961  -4.193   7.312  0.00  0.00    +0.046 A 
ENDROOT
BRANCH  11  21
ATOM     21  C   LIG    1       -1.891  -0.980   1.658  0.00  0.00    +0.162 C 
ATOM     22  O   LIG    1       -0.957  -1.710   2.002  0.00  0.00    -0.295 OA
ATOM     23  C   LIG    1       -1.682   0.510   1.551  0.00  0.00    +0.089 C 
ENDBRANCH  11  21
BRANCH   1  25
ATOM     24  C   LIG    1      -10.207  -6.896   7.500  0.00  0.00    +0.277 C 
ATOM     25  O   LIG    1       -9.913  -6.141   6.326  0.00  0.00    -0.494 OA
ENDBRANCH   1  25
BRANCH   8  26
ATOM     26  O   LIG    1       -6.367  -0.043   3.866  0.00  0.00    -0.506 OA
ATOM     27  H   LIG    1       -7.140   0.194   4.426  0.00  0.00    +0.292 HD
ENDBRANCH   8  26
BRANCH  11  28
ATOM     28  O   LIG    1       -3.569  -1.055  -0.003  0.00  0.00    -0.381 OA
ATOM     29  H   LIG    1       -3.192  -1.708  -0.625  0.00  0.00    +0.211 HD
ENDBRANCH  11  28
BRANCH  15  30
ATOM     30  O   LIG    1       -6.466  -5.393   2.503  0.00  0.00    -0.506 OA
ATOM     31  H   LIG    1       -7.112  -5.875   3.072  0.00  0.00    +0.292 HD
ENDBRANCH  15  30
BRANCH  13  32
ATOM     32  O   LIG    1       -5.123  -3.401  -0.171  0.00  0.00    -0.343 OA
BRANCH  32  33
ATOM     33  C   LIG    1       -4.329  -3.875  -1.272  0.00  0.00    +0.253 C 
ATOM     34  O   LIG    1       -3.071  -3.198  -1.266  0.00  0.00    -0.346 OA
ATOM     35  C   LIG    1       -2.141  -3.541  -2.282  0.00  0.00    +0.148 C 
ATOM     36  C   LIG    1       -1.524  -4.912  -2.024  0.00  0.00    +0.040 C 
ATOM     37  C   LIG    1       -2.754  -3.275  -3.662  0.00  0.00    +0.160 C 
ATOM     38  C   LIG    1       -4.184  -3.846  -3.817  0.00  0.00    +0.087 C 
ATOM     39  C   LIG    1       -5.038  -3.523  -2.581  0.00  0.00    +0.082 C 
BRANCH  38  40
ATOM     40  N   LIG    1       -4.214  -5.284  -4.124  0.00  0.00    -0.325 NA
ATOM     41  H   LIG    1       -3.856  -5.440  -5.066  0.00  0.00    +0.119 HD
ATOM     42  H   LIG    1       -3.652  -5.834  -3.483  0.00  0.00    +0.119 HD
ENDBRANCH  38  40
BRANCH  37  43
ATOM     43  O   LIG    1       -1.896  -3.702  -4.717  0.00  0.00    -0.388 OA
ATOM     44  H   LIG    1       -1.910  -4.672  -4.732  0.00  0.00    +0.210 HD
ENDBRANCH  37  43
ENDBRANCH  32  33
ENDBRANCH  13  32
TORSDOF 9
