REMARK  Name = *****
REMARK                            x       y       z     vdW  Elec       q    Type
REMARK                         _______ _______ _______ _____ _____    ______ ____
ROOT
ATOM      1  C   LIG    1        8.771  -7.292   5.959  0.00  0.00    +0.041 C 
ENDROOT
BRANCH   1   2
ATOM      2  C   LIG    1        7.579  -6.421   5.561  0.00  0.00    +0.003 C 
BRANCH   2   3
ATOM      3  C   LIG    1        7.562  -5.070   6.282  0.00  0.00    +0.000 C 
BRANCH   3   4
ATOM      4  C   LIG    1        6.407  -4.155   5.869  0.00  0.00    -0.000 C 
BRANCH   4   5
ATOM      5  C   LIG    1        4.991  -4.662   6.163  0.00  0.00    -0.000 C 
BRANCH   5   6
ATOM      6  C   LIG    1        4.682  -4.922   7.643  0.00  0.00    -0.000 C 
BRANCH   6   7
ATOM      7  C   LIG    1        3.225  -5.356   7.877  0.00  0.00    -0.000 C 
BRANCH   7   8
ATOM      8  C   LIG    1        2.890  -6.706   7.222  0.00  0.00    -0.000 C 
BRANCH   8   9
ATOM      9  C   LIG    1        1.460  -7.151   7.547  0.00  0.00    -0.000 C 
BRANCH   9  11
ATOM     10  C   LIG    1       -0.311  -8.945   7.322  0.00  0.00    +0.004 C 
ATOM     11  C   LIG    1        1.125  -8.544   7.000  0.00  0.00    -0.003 C 
ENDBRANCH   9  11
ENDBRANCH   8   9
ENDBRANCH   7   8
ENDBRANCH   6   7
ENDBRANCH   5   6
ENDBRANCH   4   5
ENDBRANCH   3   4
ENDBRANCH   2   3
ENDBRANCH   1   2
BRANCH   1  12
ATOM     12  C   LIG    1        8.819  -7.626   7.448  0.00  0.00    +0.232 C 
BRANCH  12  13
ATOM     13  O   LIG    1        9.948  -8.471   7.718  0.00  0.00    -0.463 OA
BRANCH  13  14
ATOM     14  C   LIG    1       11.152  -7.849   7.819  0.00  0.00    +0.331 C 
ATOM     15  O   LIG    1       11.340  -6.650   7.657  0.00  0.00    -0.249 OA
BRANCH  14  16
ATOM     16  C   LIG    1       12.247  -8.828   8.032  0.00  0.00    +0.318 C 
BRANCH  16  17
ATOM     17  S   LIG    1       11.968  -9.645   9.572  0.00  0.00    +0.090 S 
ATOM     18  O   LIG    1       10.971 -10.672   9.448  0.00  0.00    -0.147 OA
ATOM     19  O   LIG    1       11.960  -8.685  10.662  0.00  0.00    -0.147 OA
BRANCH  17  20
ATOM     20  O   LIG    1       13.395 -10.397   9.686  0.00  0.00    -0.254 OA
ATOM     21  H   LIG    1       13.585 -10.548  10.636  0.00  0.00    +0.244 HD
ENDBRANCH  17  20
ENDBRANCH  16  17
ENDBRANCH  14  16
ENDBRANCH  13  14
ENDBRANCH  12  13
ENDBRANCH   1  12
TORSDOF 15
