REMARK  Name = *****
REMARK                            x       y       z     vdW  Elec       q    Type
REMARK                         _______ _______ _______ _____ _____    ______ ____
ROOT
ATOM      1  C   LIG    1        9.752  -1.356   4.835  0.00  0.00    +0.065 C 
ATOM      2  C   LIG    1        9.505  -2.903   5.065  0.00  0.00    +0.096 C 
ATOM      3  C   LIG    1        9.514  -3.306   6.577  0.00  0.00    +0.065 C 
ATOM      4  C   LIG    1       10.165  -2.510   7.462  0.00  0.00    +0.016 C 
ATOM      5  C   LIG    1       10.284  -2.781   8.953  0.00  0.00    +0.061 C 
ATOM      6  N   LIG    1       10.740  -1.324   7.016  0.00  0.00    -0.321 N 
ATOM      7  H   LIG    1       11.080  -0.715   7.759  0.00  0.00    +0.152 HD
ATOM      8  C   LIG    1       10.355  -0.671   5.844  0.00  0.00    +0.016 C 
ATOM      9  C   LIG    1       10.491   0.828   5.891  0.00  0.00    +0.061 C 
ENDROOT
BRANCH   2  10
ATOM     10  C   LIG    1       10.476  -3.704   4.236  0.00  0.00    -0.029 A 
ATOM     11  C   LIG    1       11.367  -4.603   4.821  0.00  0.00    +0.088 A 
ATOM     12  C   LIG    1       12.311  -5.229   4.023  0.00  0.00    +0.273 A 
ATOM     13  C   LIG    1       12.349  -4.994   2.643  0.00  0.00    +0.084 A 
ATOM     14  C   LIG    1       11.424  -4.139   2.054  0.00  0.00    +0.007 A 
ATOM     15  C   LIG    1       10.484  -3.512   2.847  0.00  0.00    +0.005 A 
BRANCH  12  16
ATOM     16  N   LIG    1       13.299  -6.097   4.657  0.00  0.00    +0.080 N 
ATOM     17  O   LIG    1       13.225  -6.265   5.884  0.00  0.00    -0.576 OA
ATOM     18  O   LIG    1       14.164  -6.602   3.929  0.00  0.00    +0.041 OA
ENDBRANCH  12  16
ENDBRANCH   2  10
BRANCH   1  19
ATOM     19  C   LIG    1        8.897  -0.658   3.734  0.00  0.00    +0.338 C 
ATOM     20  O   LIG    1        8.233  -1.274   2.901  0.00  0.00    -0.245 OA
BRANCH  19  21
ATOM     21  O   LIG    1        8.604   0.615   4.132  0.00  0.00    -0.459 OA
BRANCH  21  22
ATOM     22  C   LIG    1        7.230   1.096   4.342  0.00  0.00    +0.260 C 
BRANCH  22  23
ATOM     23  C   LIG    1        6.588   0.740   5.728  0.00  0.00    +0.200 C 
BRANCH  23  25
ATOM     24  C   LIG    1        7.112  -1.482   5.936  0.00  0.00    +0.194 C 
ATOM     25  O   LIG    1        6.057  -0.581   5.904  0.00  0.00    -0.380 OA
ENDBRANCH  23  25
ENDBRANCH  22  23
ENDBRANCH  21  22
ENDBRANCH  19  21
ENDBRANCH   1  19
BRANCH   3  26
ATOM     26  C   LIG    1        8.714  -4.470   7.022  0.00  0.00    +0.338 C 
ATOM     27  O   LIG    1        8.296  -4.620   8.221  0.00  0.00    -0.245 OA
BRANCH  26  28
ATOM     28  O   LIG    1        8.416  -5.292   6.013  0.00  0.00    -0.457 OA
BRANCH  28  29
ATOM     29  C   LIG    1        7.026  -5.581   5.750  0.00  0.00    +0.260 C 
BRANCH  29  30
ATOM     30  C   LIG    1        6.309  -6.254   6.872  0.00  0.00    +0.014 C 
ATOM     31  C   LIG    1        5.673  -7.434   6.807  0.00  0.00    +0.007 C 
BRANCH  31  32
ATOM     32  C   LIG    1        5.009  -8.034   7.976  0.00  0.00    -0.025 A 
ATOM     33  C   LIG    1        4.426  -7.262   8.992  0.00  0.00    +0.008 A 
ATOM     34  C   LIG    1        3.797  -7.867  10.081  0.00  0.00    +0.001 A 
ATOM     35  C   LIG    1        3.738  -9.255  10.164  0.00  0.00    +0.000 A 
ATOM     36  C   LIG    1        4.311 -10.035   9.162  0.00  0.00    +0.001 A 
ATOM     37  C   LIG    1        4.938  -9.428   8.070  0.00  0.00    +0.008 A 
ENDBRANCH  31  32
ENDBRANCH  29  30
ENDBRANCH  28  29
ENDBRANCH  26  28
ENDBRANCH   3  26
TORSDOF 12
