REMARK  Name = *****
REMARK                            x       y       z     vdW  Elec       q    Type
REMARK                         _______ _______ _______ _____ _____    ______ ____
ROOT
ATOM      1  C   LIG    1        0.726   3.318  -1.003  0.00  0.00    +0.122 A 
ATOM      2  C   LIG    1        2.132   3.004  -1.070  0.00  0.00    +0.070 A 
ATOM      3  C   LIG    1        2.871   2.151  -1.872  0.00  0.00    +0.057 A 
ATOM      4  C   LIG    1        2.280   1.835  -2.946  0.00  0.00    +0.092 A 
ATOM      5  C   LIG    1        0.849   2.140  -3.110  0.00  0.00    +0.006 A 
ATOM      6  C   LIG    1        0.211   1.559  -4.136  0.00  0.00    +0.012 A 
ATOM      7  C   LIG    1        0.926   0.782  -5.051  0.00  0.00    +0.020 A 
ATOM      8  C   LIG    1        2.297   0.623  -4.882  0.00  0.00    +0.111 A 
ATOM      9  N   LIG    1        2.970   1.104  -3.868  0.00  0.00    -0.253 NA
ATOM     10  C   LIG    1        0.117   2.918  -2.132  0.00  0.00    +0.055 A 
ENDROOT
BRANCH   1  12
ATOM     11  C   LIG    1       -0.186   3.753   1.529  0.00  0.00    +0.277 C 
ATOM     12  O   LIG    1       -0.037   3.998  -0.003  0.00  0.00    -0.495 OA
ENDBRANCH   1  12
BRANCH   3  13
ATOM     13  N   LIG    1        4.184   1.832  -1.364  0.00  0.00    -0.340 N 
ATOM     14  H   LIG    1        4.615   1.179  -2.033  0.00  0.00    +0.146 HD
BRANCH  13  15
ATOM     15  C   LIG    1        4.474   1.498   0.087  0.00  0.00    +0.067 C 
ATOM     16  C   LIG    1        4.653  -0.034   0.158  0.00  0.00    +0.027 C 
BRANCH  15  17
ATOM     17  C   LIG    1        3.503   1.903   1.268  0.00  0.00    +0.023 C 
BRANCH  17  18
ATOM     18  C   LIG    1        3.408   3.411   1.781  0.00  0.00    +0.017 C 
BRANCH  18  19
ATOM     19  C   LIG    1        2.433   4.303   1.076  0.00  0.00    +0.078 C 
BRANCH  19  20
ATOM     20  N   LIG    1        2.092   5.680   1.316  0.00  0.00    -0.330 NA
ATOM     21  H   LIG    1        1.466   5.936   0.516  0.00  0.00    +0.118 HD
ATOM     22  H   LIG    1        2.961   6.139   1.020  0.00  0.00    +0.118 HD
ENDBRANCH  19  20
ENDBRANCH  18  19
ENDBRANCH  17  18
ENDBRANCH  15  17
ENDBRANCH  13  15
ENDBRANCH   3  13
TORSDOF 7
