REMARK  Name = *****
REMARK                            x       y       z     vdW  Elec       q    Type
REMARK                         _______ _______ _______ _____ _____    ______ ____
ROOT
ATOM      1  C   LIG    1        0.826  -0.086   0.018  0.00  0.00    +0.012 C 
ATOM      2  C   LIG    1        2.367  -0.048   0.001  0.00  0.00    -0.020 C 
ATOM      3  C   LIG    1        2.978   1.091  -0.861  0.00  0.00    +0.032 C 
ATOM      4  C   LIG    1        4.451   0.674  -0.846  0.00  0.00    +0.140 C 
ATOM      5  C   LIG    1        4.536  -0.839  -0.823  0.00  0.00    +0.079 C 
ATOM      6  O   LIG    1        5.412   1.427  -0.879  0.00  0.00    -0.297 OA
ATOM      7  C   LIG    1        2.720   2.516  -0.432  0.00  0.00    +0.019 C 
ATOM      8  C   LIG    1        2.524   0.748  -2.299  0.00  0.00    +0.015 C 
ATOM      9  C   LIG    1        2.533  -0.797  -2.304  0.00  0.00    +0.005 C 
ATOM     10  C   LIG    1        3.019  -1.153  -0.876  0.00  0.00    +0.003 C 
ATOM     11  C   LIG    1        2.819  -0.053   1.476  0.00  0.00    +0.012 C 
ENDROOT
TORSDOF 0
