REMARK  Name = *****
REMARK                            x       y       z     vdW  Elec       q    Type
REMARK                         _______ _______ _______ _____ _____    ______ ____
ROOT
ATOM      1  N   LIG    1        4.621  -1.190  -0.624  0.00  0.00    -0.297 NA
ATOM      2  C   LIG    1        5.710  -0.668   0.225  0.00  0.00    +0.100 C 
ATOM      3  C   LIG    1        6.152   0.725  -0.238  0.00  0.00    +0.100 C 
ATOM      4  N   LIG    1        7.264   1.225   0.611  0.00  0.00    -0.290 NA
ATOM      5  C   LIG    1        8.436   1.497  -0.275  0.00  0.00    +0.100 C 
ATOM      6  C   LIG    1        9.208   0.187  -0.619  0.00  0.00    +0.100 C 
ATOM      7  N   LIG    1        8.698  -0.562  -1.786  0.00  0.00    -0.290 NA
ATOM      8  C   LIG    1        9.061  -1.994  -1.684  0.00  0.00    +0.100 C 
ATOM      9  C   LIG    1        8.292  -3.004  -2.591  0.00  0.00    +0.100 C 
ATOM     10  N   LIG    1        7.067  -3.601  -1.970  0.00  0.00    -0.290 NA
ATOM     11  C   LIG    1        5.940  -2.640  -2.171  0.00  0.00    +0.100 C 
ATOM     12  C   LIG    1        4.946  -2.590  -0.984  0.00  0.00    +0.100 C 
ENDROOT
BRANCH   1  13
ATOM     13  C   LIG    1        3.316  -1.130   0.064  0.00  0.00    +0.115 C 
BRANCH  13  15
ATOM     14  C   LIG    1        2.463   1.076  -0.917  0.00  0.00    +0.039 C 
ATOM     15  C   LIG    1        2.726   0.273   0.353  0.00  0.00    +0.125 C 
BRANCH  15  16
ATOM     16  O   LIG    1        1.489   0.123   1.059  0.00  0.00    -0.391 OA
ATOM     17  H   LIG    1        0.943  -0.531   0.591  0.00  0.00    +0.210 HD
ENDBRANCH  15  16
ENDBRANCH  13  15
ENDBRANCH   1  13
BRANCH   4  18
ATOM     18  C   LIG    1        6.855   2.470   1.323  0.00  0.00    +0.205 C 
BRANCH  18  19
ATOM     19  C   LIG    1        5.732   2.278   2.332  0.00  0.00    +0.319 C 
ATOM     20  O   LIG    1        4.959   3.156   2.659  0.00  0.00    -0.250 OA
BRANCH  19  21
ATOM     21  O   LIG    1        5.675   1.046   2.919  0.00  0.00    -0.480 OA
ATOM     22  H   LIG    1        6.364   0.460   2.549  0.00  0.00    +0.295 HD
ENDBRANCH  19  21
ENDBRANCH  18  19
ENDBRANCH   4  18
BRANCH   7  23
ATOM     23  C   LIG    1        9.062   0.055  -3.089  0.00  0.00    +0.205 C 
BRANCH  23  24
ATOM     24  C   LIG    1       10.552   0.143  -3.377  0.00  0.00    +0.319 C 
ATOM     25  O   LIG    1       11.192  -0.736  -3.963  0.00  0.00    -0.250 OA
BRANCH  24  26
ATOM     26  O   LIG    1       11.148   1.265  -2.923  0.00  0.00    -0.480 OA
ATOM     27  H   LIG    1       10.547   1.880  -2.458  0.00  0.00    +0.295 HD
ENDBRANCH  24  26
ENDBRANCH  23  24
ENDBRANCH   7  23
BRANCH  10  28
ATOM     28  C   LIG    1        6.759  -4.896  -2.669  0.00  0.00    +0.205 C 
BRANCH  28  29
ATOM     29  C   LIG    1        7.813  -5.964  -2.372  0.00  0.00    +0.319 C 
ATOM     30  O   LIG    1        8.230  -6.805  -3.181  0.00  0.00    -0.250 OA
BRANCH  29  31
ATOM     31  O   LIG    1        8.249  -5.912  -1.083  0.00  0.00    -0.480 OA
ATOM     32  H   LIG    1        7.815  -5.138  -0.636  0.00  0.00    +0.295 HD
ENDBRANCH  29  31
ENDBRANCH  28  29
ENDBRANCH  10  28
TORSDOF 12
