REMARK  Name = *****
REMARK                            x       y       z     vdW  Elec       q    Type
REMARK                         _______ _______ _______ _____ _____    ______ ____
ROOT
ATOM      1  C   LIG    1        3.381  -0.948   0.981  0.00  0.00    +0.027 C 
ATOM      2  C   LIG    1        2.462  -0.007   0.163  0.00  0.00    +0.086 C 
ENDROOT
BRANCH   2   3
ATOM      3  N   LIG    1        2.949   0.099  -1.257  0.00  0.00    -0.297 NA
ATOM      4  C   LIG    1        3.255  -1.196  -1.896  0.00  0.00    +0.085 C 
ATOM      5  C   LIG    1        2.012  -2.066  -2.115  0.00  0.00    +0.019 C 
ATOM      6  C   LIG    1        0.956  -1.341  -2.968  0.00  0.00    -0.004 C 
ATOM      7  C   LIG    1        0.731   0.092  -2.445  0.00  0.00    +0.019 C 
ATOM      8  C   LIG    1        2.054   0.823  -2.179  0.00  0.00    +0.085 C 
BRANCH   6   9
ATOM      9  C   LIG    1       -0.388  -2.099  -3.014  0.00  0.00    +0.038 C 
BRANCH   9  10
ATOM     10  C   LIG    1       -0.325  -3.446  -3.697  0.00  0.00    -0.047 A 
ATOM     11  C   LIG    1       -0.531  -3.556  -5.079  0.00  0.00    +0.003 A 
ATOM     12  C   LIG    1       -0.474  -4.803  -5.707  0.00  0.00    +0.000 A 
ATOM     13  C   LIG    1       -0.203  -5.950  -4.962  0.00  0.00    +0.000 A 
ATOM     14  C   LIG    1        0.003  -5.852  -3.588  0.00  0.00    +0.000 A 
ATOM     15  C   LIG    1       -0.062  -4.608  -2.958  0.00  0.00    +0.003 A 
ENDBRANCH   9  10
ENDBRANCH   6   9
ENDBRANCH   2   3
BRANCH   2  16
ATOM     16  C   LIG    1        2.363   1.369   0.950  0.00  0.00    +0.161 C 
BRANCH  16  17
ATOM     17  C   LIG    1        1.810   1.227   2.364  0.00  0.00    -0.017 A 
ATOM     18  C   LIG    1        0.523   0.703   2.595  0.00  0.00    +0.010 A 
ATOM     19  C   LIG    1        0.037   0.559   3.896  0.00  0.00    +0.046 A 
ATOM     20  C   LIG    1        0.823   0.936   4.971  0.00  0.00    +0.117 A 
ATOM     21  C   LIG    1        2.095   1.468   4.773  0.00  0.00    +0.046 A 
ATOM     22  C   LIG    1        2.581   1.617   3.470  0.00  0.00    +0.010 A 
BRANCH  20  23
ATOM     23  O   LIG    1        0.311   0.770   6.225  0.00  0.00    -0.507 OA
ATOM     24  H   LIG    1        0.962   1.088   6.871  0.00  0.00    +0.292 HD
ENDBRANCH  20  23
ENDBRANCH  16  17
BRANCH  16  25
ATOM     25  O   LIG    1        1.518   2.335   0.323  0.00  0.00    -0.386 OA
ATOM     26  H   LIG    1        0.741   1.862  -0.010  0.00  0.00    +0.210 HD
ENDBRANCH  16  25
ENDBRANCH   2  16
TORSDOF 7
