REMARK  Name = *****
REMARK                            x       y       z     vdW  Elec       q    Type
REMARK                         _______ _______ _______ _____ _____    ______ ____
ROOT
ATOM      1  C   LIG    1        9.943   4.602   1.519  0.00  0.00    +0.031 C 
ENDROOT
BRANCH   1   2
ATOM      2  C   LIG    1       10.237   3.495   0.497  0.00  0.00    +0.086 C 
BRANCH   2   6
ATOM      3  N   LIG    1        9.849   3.592  -3.193  0.00  0.00    -0.327 N 
ATOM      4  C   LIG    1       10.309   2.389  -2.451  0.00  0.00    +0.120 C 
ATOM      5  C   LIG    1       11.466   2.747  -1.475  0.00  0.00    +0.103 C 
ATOM      6  N   LIG    1       11.201   3.880  -0.551  0.00  0.00    -0.299 NA
ATOM      7  C   LIG    1       10.768   5.030  -1.381  0.00  0.00    +0.103 C 
ATOM      8  C   LIG    1        9.563   4.740  -2.301  0.00  0.00    +0.120 C 
BRANCH   3  16
ATOM      9 CL   LIG    1       10.015   1.077  -9.556  0.00  0.00    -0.084 Cl
ATOM     10  C   LIG    1        9.712   1.712  -7.984  0.00  0.00    +0.043 A 
ATOM     11  C   LIG    1        8.400   1.955  -7.583  0.00  0.00    +0.048 A 
ATOM     12  C   LIG    1        8.121   2.468  -6.326  0.00  0.00    +0.074 A 
ATOM     13  N   LIG    1        6.831   2.677  -6.032  0.00  0.00    -0.255 NA
ATOM     14  C   LIG    1        6.540   3.189  -4.825  0.00  0.00    +0.113 A 
ATOM     15  C   LIG    1        7.484   3.497  -3.868  0.00  0.00    +0.043 A 
ATOM     16  C   LIG    1        8.842   3.285  -4.146  0.00  0.00    +0.041 A 
ATOM     17  C   LIG    1        9.178   2.752  -5.425  0.00  0.00    +0.021 A 
ATOM     18  C   LIG    1       10.505   2.509  -5.863  0.00  0.00    +0.013 A 
ATOM     19  C   LIG    1       10.767   1.984  -7.132  0.00  0.00    +0.021 A 
ENDBRANCH   3  16
ENDBRANCH   2   6
ENDBRANCH   1   2
BRANCH   1  20
ATOM     20  C   LIG    1       11.193   5.077   2.278  0.00  0.00    +0.086 C 
BRANCH  20  21
ATOM     21  N   LIG    1       10.896   6.158   3.241  0.00  0.00    -0.299 NA
ATOM     22  C   LIG    1       12.115   6.552   3.999  0.00  0.00    +0.103 C 
ATOM     23  C   LIG    1       13.192   7.321   3.182  0.00  0.00    +0.120 C 
ATOM     24  N   LIG    1       12.590   8.505   2.520  0.00  0.00    -0.327 N 
ATOM     25  C   LIG    1       11.382   8.155   1.732  0.00  0.00    +0.120 C 
ATOM     26  C   LIG    1       10.364   7.388   2.605  0.00  0.00    +0.103 C 
BRANCH  24  27
ATOM     27  C   LIG    1       13.544   9.320   1.869  0.00  0.00    +0.041 A 
ATOM     28  C   LIG    1       14.341  10.249   2.604  0.00  0.00    +0.021 A 
ATOM     29  C   LIG    1       15.266  11.043   1.889  0.00  0.00    +0.074 A 
ATOM     30  C   LIG    1       16.054  11.970   2.560  0.00  0.00    +0.048 A 
ATOM     31  C   LIG    1       15.952  12.132   3.933  0.00  0.00    +0.043 A 
ATOM     32  C   LIG    1       15.052  11.372   4.666  0.00  0.00    +0.021 A 
ATOM     33 CL   LIG    1       16.940  13.291   4.737  0.00  0.00    -0.084 Cl
ATOM     34  N   LIG    1       15.431  10.964   0.561  0.00  0.00    -0.255 NA
ATOM     35  C   LIG    1       14.669  10.083  -0.110  0.00  0.00    +0.113 A 
ATOM     36  C   LIG    1       14.241  10.443   4.005  0.00  0.00    +0.013 A 
ATOM     37  C   LIG    1       13.737   9.257   0.483  0.00  0.00    +0.043 A 
ENDBRANCH  24  27
ENDBRANCH  20  21
ENDBRANCH   1  20
TORSDOF 6
