REMARK  Name = *****
REMARK                            x       y       z     vdW  Elec       q    Type
REMARK                         _______ _______ _______ _____ _____    ______ ____
ROOT
ATOM      1  C   LIG    1       17.452  -6.765 -13.051  0.00  0.00    +0.164 A 
ATOM      2  C   LIG    1       17.550  -7.953 -12.310  0.00  0.00    +0.162 A 
ATOM      3  C   LIG    1       17.294  -7.929 -10.930  0.00  0.00    +0.062 A 
ATOM      4  C   LIG    1       16.983  -6.715 -10.271  0.00  0.00    +0.044 A 
ATOM      5  C   LIG    1       16.915  -5.550 -11.016  0.00  0.00    +0.082 A 
ATOM      6  N   LIG    1       16.647  -4.364 -10.494  0.00  0.00    -0.214 NA
ATOM      7  C   LIG    1       16.441  -4.264  -9.181  0.00  0.00    +0.220 A 
ATOM      8  N   LIG    1       16.475  -5.326  -8.366  0.00  0.00    -0.199 NA
ATOM      9  C   LIG    1       16.733  -6.527  -8.908  0.00  0.00    +0.129 A 
ATOM     10  C   LIG    1       17.131  -5.585 -12.377  0.00  0.00    +0.078 A 
ENDROOT
BRANCH   7  11
ATOM     11  N   LIG    1       16.175  -2.994  -8.671  0.00  0.00    -0.297 N 
ATOM     12  C   LIG    1       15.744  -2.010  -9.698  0.00  0.00    +0.127 C 
ATOM     13  C   LIG    1       14.240  -2.180 -10.015  0.00  0.00    +0.127 C 
ATOM     14  N   LIG    1       13.478  -2.066  -8.763  0.00  0.00    -0.296 N 
ATOM     15  C   LIG    1       12.971  -0.812  -8.434  0.00  0.00    +0.244 C 
ATOM     16  O   LIG    1       12.871   0.082  -9.293  0.00  0.00    -0.273 OA
ATOM     17  C   LIG    1       13.855  -3.093  -7.776  0.00  0.00    +0.127 C 
ATOM     18  C   LIG    1       15.360  -2.989  -7.442  0.00  0.00    +0.127 C 
BRANCH  15  19
ATOM     19  C   LIG    1       12.600  -0.540  -6.956  0.00  0.00    +0.204 C 
ATOM     20  O   LIG    1       11.556  -1.406  -6.490  0.00  0.00    -0.367 OA
ATOM     21  C   LIG    1       10.343  -0.645  -6.388  0.00  0.00    +0.161 C 
ATOM     22  C   LIG    1       10.614   0.707  -7.010  0.00  0.00    +0.031 C 
ATOM     23  C   LIG    1       12.086   0.875  -6.725  0.00  0.00    +0.043 C 
ENDBRANCH  15  19
ENDBRANCH   7  11
BRANCH   9  24
ATOM     24  N   LIG    1       16.743  -7.592  -8.001  0.00  0.00    -0.343 N 
ATOM     25  H   LIG    1       16.076  -8.306  -8.271  0.00  0.00    +0.144 HD
ATOM     26  H   LIG    1       16.516  -7.200  -7.089  0.00  0.00    +0.144 HD
ENDBRANCH   9  24
BRANCH   1  28
ATOM     27  C   LIG    1       17.548  -5.564 -15.113  0.00  0.00    +0.277 C 
ATOM     28  O   LIG    1       17.663  -6.797 -14.405  0.00  0.00    -0.491 OA
ENDBRANCH   1  28
BRANCH   2  29
ATOM     29  O   LIG    1       17.847  -9.202 -12.788  0.00  0.00    -0.491 OA
ATOM     30  C   LIG    1       18.705  -9.254 -13.922  0.00  0.00    +0.277 C 
ENDBRANCH   2  29
TORSDOF 5
