REMARK  Name = *****
REMARK                            x       y       z     vdW  Elec       q    Type
REMARK                         _______ _______ _______ _____ _____    ______ ____
ROOT
ATOM      1  C   LIG    1        5.103   1.425  -2.675  0.00  0.00    +0.299 C 
ATOM      2  C   LIG    1        5.997   2.654  -2.556  0.00  0.00    +0.253 C 
ATOM      3  O   LIG    1        6.422   3.087  -1.483  0.00  0.00    -0.273 OA
ATOM      4  N   LIG    1        6.238   3.409  -3.679  0.00  0.00    -0.283 N 
ATOM      5  H   LIG    1        6.683   4.291  -3.453  0.00  0.00    +0.155 HD
ATOM      6  C   LIG    1        5.679   3.237  -4.952  0.00  0.00    +0.043 A 
ATOM      7  C   LIG    1        5.249   2.008  -5.471  0.00  0.00    +0.023 A 
ATOM      8  C   LIG    1        4.501   1.970  -6.657  0.00  0.00    +0.032 A 
ATOM      9  C   LIG    1        4.306   3.141  -7.386  0.00  0.00    +0.042 A 
ATOM     10  C   LIG    1        4.846   4.346  -6.944  0.00  0.00    +0.022 A 
ATOM     11 CL   LIG    1        3.436   3.090  -8.868  0.00  0.00    -0.084 Cl
ATOM     12  C   LIG    1        5.729   0.724  -4.880  0.00  0.00    +0.079 C 
ATOM     13  C   LIG    1        5.523   4.395  -5.725  0.00  0.00    +0.025 A 
ATOM     14  N   LIG    1        5.678   0.444  -3.620  0.00  0.00    -0.259 NA
ENDROOT
BRANCH  12  15
ATOM     15  C   LIG    1        6.349  -0.308  -5.787  0.00  0.00    +0.036 A 
ATOM     16  C   LIG    1        7.047   0.033  -6.953  0.00  0.00    +0.133 A 
ATOM     17  F   LIG    1        7.218   1.312  -7.315  0.00  0.00    -0.205 F 
ATOM     18  C   LIG    1        7.615  -0.948  -7.768  0.00  0.00    +0.039 A 
ATOM     19  C   LIG    1        7.514  -2.291  -7.414  0.00  0.00    +0.003 A 
ATOM     20  C   LIG    1        6.847  -2.647  -6.243  0.00  0.00    +0.001 A 
ATOM     21  C   LIG    1        6.269  -1.663  -5.432  0.00  0.00    +0.013 A 
ENDBRANCH  12  15
BRANCH   1  22
ATOM     22  C   LIG    1        4.911   0.748  -1.324  0.00  0.00    +0.341 C 
ATOM     23  O   LIG    1        3.821   0.662  -0.754  0.00  0.00    -0.248 OA
BRANCH  22  24
ATOM     24  O   LIG    1        6.082   0.241  -0.839  0.00  0.00    -0.463 OA
BRANCH  24  26
ATOM     25  C   LIG    1        5.557  -1.831   0.288  0.00  0.00    +0.048 C 
ATOM     26  C   LIG    1        6.018  -0.395   0.444  0.00  0.00    +0.229 C 
ENDBRANCH  24  26
ENDBRANCH  22  24
ENDBRANCH   1  22
TORSDOF 4
