REMARK  Name = *****
REMARK                            x       y       z     vdW  Elec       q    Type
REMARK                         _______ _______ _______ _____ _____    ______ ____
ROOT
ATOM      1  C   LIG    1        3.242  -1.213   0.214  0.00  0.00    +0.120 A 
ATOM      2  C   LIG    1        2.608  -2.446   0.377  0.00  0.00    +0.049 A 
ATOM      3  C   LIG    1        3.309  -3.631   0.134  0.00  0.00    +0.049 A 
ATOM      4  C   LIG    1        4.638  -3.580  -0.271  0.00  0.00    +0.117 A 
ATOM      5  C   LIG    1        5.283  -2.360  -0.438  0.00  0.00    +0.049 A 
ATOM      6  C   LIG    1        4.579  -1.179  -0.194  0.00  0.00    +0.049 A 
ENDROOT
BRANCH   1   8
ATOM      7  C   LIG    1        1.319   0.035   0.843  0.00  0.00    +0.277 C 
ATOM      8  O   LIG    1        2.676   0.016   0.417  0.00  0.00    -0.495 OA
ENDBRANCH   1   8
BRANCH   4   9
ATOM      9  O   LIG    1        5.280  -4.761  -0.495  0.00  0.00    -0.507 OA
ATOM     10  H   LIG    1        6.192  -4.569  -0.768  0.00  0.00    +0.292 HD
ENDBRANCH   4   9
TORSDOF 2
