REMARK  Name = *****
REMARK                            x       y       z     vdW  Elec       q    Type
REMARK                         _______ _______ _______ _____ _____    ______ ____
ROOT
ATOM      1  C   LIG    1       -0.715  -2.863   2.878  0.00  0.00    +0.256 C 
ATOM      2  N   LIG    1       -0.775  -1.422   2.755  0.00  0.00    -0.180 N 
ATOM      3  C   LIG    1       -1.349  -1.042   1.577  0.00  0.00    +0.318 C 
ATOM      4  N   LIG    1       -1.830   0.160   1.468  0.00  0.00    -0.079 NA
ATOM      5  C   LIG    1       -1.523   0.726   2.836  0.00  0.00    +0.334 C 
ATOM      6  C   LIG    1       -1.418  -2.169   0.674  0.00  0.00    +0.075 A 
ATOM      7  C   LIG    1       -1.817  -2.252  -0.642  0.00  0.00    +0.016 A 
ATOM      8  C   LIG    1       -1.809  -3.522  -1.221  0.00  0.00    +0.001 A 
ATOM      9  C   LIG    1       -1.422  -4.654  -0.475  0.00  0.00    +0.001 A 
ATOM     10  C   LIG    1       -1.037  -4.543   0.867  0.00  0.00    +0.012 A 
ATOM     11  C   LIG    1       -1.151  -0.470   3.755  0.00  0.00    +0.279 C 
ATOM     12  C   LIG    1       -1.033  -3.282   1.443  0.00  0.00    +0.045 A 
ENDROOT
BRANCH   1  13
ATOM     13  C   LIG    1        0.645  -3.331   3.373  0.00  0.00    +0.031 A 
ATOM     14  C   LIG    1        0.757  -4.394   4.289  0.00  0.00    +0.012 A 
ATOM     15  C   LIG    1        2.007  -4.843   4.725  0.00  0.00    +0.020 A 
ATOM     16  C   LIG    1        3.166  -4.237   4.247  0.00  0.00    +0.041 A 
ATOM     17 CL   LIG    1        4.703  -4.791   4.783  0.00  0.00    -0.084 Cl
ATOM     18  C   LIG    1        3.086  -3.189   3.335  0.00  0.00    +0.020 A 
ATOM     19  C   LIG    1        1.835  -2.742   2.899  0.00  0.00    +0.012 A 
ENDBRANCH   1  13
BRANCH   1  20
ATOM     20  O   LIG    1       -1.763  -3.300   3.726  0.00  0.00    -0.346 OA
ATOM     21  H   LIG    1       -2.578  -3.057   3.259  0.00  0.00    +0.215 HD
ENDBRANCH   1  20
TORSDOF 2
