REMARK  Name = *****
REMARK                            x       y       z     vdW  Elec       q    Type
REMARK                         _______ _______ _______ _____ _____    ______ ____
ROOT
ATOM      1  N   LIG    1        4.099  -0.298  -1.136  0.00  0.00    -0.279 NA
ATOM      2  C   LIG    1        4.971   0.629  -1.310  0.00  0.00    +0.082 C 
ATOM      3  C   LIG    1        5.609   1.619  -0.351  0.00  0.00    +0.059 C 
ATOM      4  C   LIG    1        6.468   2.509  -0.860  0.00  0.00    +0.055 C 
ATOM      5  C   LIG    1        6.949   2.508  -2.256  0.00  0.00    +0.090 C 
ATOM      6  C   LIG    1        6.235   1.661  -3.264  0.00  0.00    +0.075 C 
ATOM      7  N   LIG    1        6.606   1.866  -4.631  0.00  0.00    -0.306 N 
ATOM      8  C   LIG    1        7.965   2.335  -4.803  0.00  0.00    +0.072 C 
ATOM      9  C   LIG    1        8.612   3.027  -3.753  0.00  0.00    +0.088 C 
ATOM     10  C   LIG    1        9.920   3.492  -3.899  0.00  0.00    +0.030 C 
ATOM     11  C   LIG    1       10.632   3.256  -5.070  0.00  0.00    +0.002 C 
ATOM     12  C   LIG    1       10.033   2.530  -6.098  0.00  0.00    +0.002 C 
ATOM     13  C   LIG    1        8.716   2.067  -5.966  0.00  0.00    +0.028 C 
ATOM     14  N   LIG    1        8.011   3.208  -2.495  0.00  0.00    -0.244 NA
ATOM     15  C   LIG    1        5.405   0.751  -2.737  0.00  0.00    +0.057 C 
ENDROOT
BRANCH   7  16
ATOM     16  C   LIG    1        5.589   2.013  -5.668  0.00  0.00    +0.047 A 
ATOM     17  C   LIG    1        4.332   1.380  -5.628  0.00  0.00    +0.027 A 
ATOM     18  C   LIG    1        3.346   1.568  -6.609  0.00  0.00    +0.022 A 
ATOM     19  C   LIG    1        3.588   2.408  -7.681  0.00  0.00    +0.041 A 
ATOM     20 CL   LIG    1        2.378   2.639  -8.879  0.00  0.00    -0.084 Cl
ATOM     21  C   LIG    1        4.807   3.063  -7.771  0.00  0.00    +0.022 A 
ATOM     22  C   LIG    1        5.787   2.874  -6.777  0.00  0.00    +0.027 A 
ENDBRANCH   7  16
BRANCH   1  24
ATOM     23  C   LIG    1        2.209   0.058   0.370  0.00  0.00    +0.032 C 
ATOM     24  C   LIG    1        3.475  -0.747   0.098  0.00  0.00    +0.100 C 
ATOM     25  C   LIG    1        3.065  -2.212  -0.113  0.00  0.00    +0.032 C 
ENDBRANCH   1  24
BRANCH   3  26
ATOM     26  N   LIG    1        5.237   1.574   0.996  0.00  0.00    -0.313 N 
ATOM     27  H   LIG    1        4.237   1.675   1.111  0.00  0.00    +0.152 HD
BRANCH  26  28
ATOM     28  C   LIG    1        5.983   2.071   2.090  0.00  0.00    +0.031 A 
ATOM     29  C   LIG    1        7.373   1.909   2.184  0.00  0.00    +0.024 A 
ATOM     30  C   LIG    1        8.098   2.484   3.235  0.00  0.00    +0.022 A 
ATOM     31  C   LIG    1        7.430   3.198   4.225  0.00  0.00    +0.041 A 
ATOM     32 CL   LIG    1        8.319   3.949   5.493  0.00  0.00    -0.084 Cl
ATOM     33  C   LIG    1        6.044   3.312   4.189  0.00  0.00    +0.022 A 
ATOM     34  C   LIG    1        5.324   2.750   3.127  0.00  0.00    +0.024 A 
ENDBRANCH  26  28
ENDBRANCH   3  26
TORSDOF 4
