REMARK  Name = *****
REMARK                            x       y       z     vdW  Elec       q    Type
REMARK                         _______ _______ _______ _____ _____    ______ ____
ROOT
ATOM      1  N   LIG    1        9.098   1.762  -1.164  0.00  0.00    -0.087 NA
ATOM      2  C   LIG    1        9.500   2.994  -1.031  0.00  0.00    +0.108 C 
ENDROOT
BRANCH   2   3
ATOM      3  C   LIG    1       10.851   3.354  -1.618  0.00  0.00    +0.020 A 
ATOM      4  C   LIG    1       11.219   4.602  -2.144  0.00  0.00    +0.051 A 
ATOM      5 CL   LIG    1       10.122   5.908  -2.399  0.00  0.00    -0.083 Cl
ATOM      6  C   LIG    1       12.532   4.826  -2.593  0.00  0.00    +0.040 A 
ATOM      7  C   LIG    1       13.470   3.799  -2.567  0.00  0.00    +0.042 A 
ATOM      8 CL   LIG    1       15.062   4.077  -3.157  0.00  0.00    -0.084 Cl
ATOM      9  C   LIG    1       13.115   2.544  -2.092  0.00  0.00    +0.021 A 
ATOM     10  C   LIG    1       11.818   2.326  -1.613  0.00  0.00    +0.013 A 
ENDBRANCH   2   3
BRANCH   1  11
ATOM     11  O   LIG    1        7.857   1.548  -0.536  0.00  0.00    -0.389 OA
BRANCH  11  12
ATOM     12  C   LIG    1        7.711   0.174  -0.164  0.00  0.00    +0.299 C 
BRANCH  12  18
ATOM     13 CL   LIG    1       10.020  -0.555   5.370  0.00  0.00    -0.084 Cl
ATOM     14  C   LIG    1        9.339  -0.363   3.801  0.00  0.00    +0.042 A 
ATOM     15  C   LIG    1        8.011   0.029   3.665  0.00  0.00    +0.040 A 
ATOM     16  C   LIG    1        7.463   0.196   2.389  0.00  0.00    +0.049 A 
ATOM     17 CL   LIG    1        5.816   0.706   2.293  0.00  0.00    -0.083 Cl
ATOM     18  C   LIG    1        8.236  -0.036   1.238  0.00  0.00    +0.011 A 
ATOM     19  C   LIG    1        9.576  -0.429   1.403  0.00  0.00    +0.010 A 
ATOM     20  C   LIG    1       10.125  -0.592   2.676  0.00  0.00    +0.020 A 
ENDBRANCH  12  18
ENDBRANCH  11  12
ENDBRANCH   1  11
BRANCH   2  21
ATOM     21  C   LIG    1        8.717   4.029  -0.218  0.00  0.00    +0.182 C 
BRANCH  21  22
ATOM     22  N   LIG    1        9.465   4.573   0.902  0.00  0.00    -0.331 N 
ATOM     23  C   LIG    1       10.363   3.907   1.688  0.00  0.00    +0.199 A 
ATOM     24  N   LIG    1       10.847   4.688   2.627  0.00  0.00    -0.244 NA
ATOM     25  C   LIG    1       10.194   5.884   2.477  0.00  0.00    +0.130 A 
ATOM     26  C   LIG    1        9.316   5.830   1.420  0.00  0.00    +0.107 A 
ENDBRANCH  21  22
ENDBRANCH   2  21
TORSDOF 6
