REMARK  Name = *****
REMARK                            x       y       z     vdW  Elec       q    Type
REMARK                         _______ _______ _______ _____ _____    ______ ____
ROOT
ATOM      1  C   LIG    1        0.720   3.633  -6.527  0.00  0.00    +0.015 C 
ATOM      2  C   LIG    1        1.460   4.597  -5.568  0.00  0.00    +0.008 C 
ATOM      3  C   LIG    1        2.871   4.872  -6.168  0.00  0.00    +0.183 C 
ATOM      4  C   LIG    1        3.679   3.610  -5.766  0.00  0.00    +0.045 C 
ATOM      5  C   LIG    1        2.935   2.965  -4.574  0.00  0.00    +0.008 C 
ATOM      6  C   LIG    1        1.887   4.006  -4.208  0.00  0.00    +0.002 C 
ATOM      7  C   LIG    1        0.781   3.679  -3.198  0.00  0.00    -0.003 C 
ATOM      8  C   LIG    1       -0.088   2.444  -3.482  0.00  0.00    +0.008 C 
ATOM      9  C   LIG    1       -1.175   2.248  -2.417  0.00  0.00    +0.032 C 
ATOM     10  C   LIG    1       -1.984   3.515  -2.244  0.00  0.00    -0.060 C 
ATOM     11  C   LIG    1       -1.187   4.766  -1.889  0.00  0.00    -0.007 C 
ATOM     12  C   LIG    1       -0.499   4.572  -0.504  0.00  0.00    +0.016 C 
ATOM     13  C   LIG    1       -2.095   6.020  -1.703  0.00  0.00    +0.019 C 
ATOM     14  C   LIG    1       -3.357   6.059  -2.551  0.00  0.00    +0.080 C 
ATOM     15  C   LIG    1       -4.102   4.755  -2.483  0.00  0.00    +0.156 C 
ATOM     16  O   LIG    1       -5.327   4.693  -2.558  0.00  0.00    -0.293 OA
ATOM     17  C   LIG    1       -3.310   3.506  -2.462  0.00  0.00    +0.046 C 
ATOM     18  C   LIG    1       -0.071   4.977  -2.974  0.00  0.00    +0.002 C 
ATOM     19  C   LIG    1       -0.569   5.538  -4.330  0.00  0.00    +0.005 C 
ATOM     20  C   LIG    1        0.578   5.828  -5.316  0.00  0.00    +0.011 C 
ENDROOT
BRANCH   3  21
ATOM     21  O   LIG    1        3.452   6.043  -5.545  0.00  0.00    -0.461 OA
BRANCH  21  22
ATOM     22  C   LIG    1        4.546   6.584  -6.151  0.00  0.00    +0.307 C 
ATOM     23  O   LIG    1        5.075   6.142  -7.163  0.00  0.00    -0.251 OA
BRANCH  22  24
ATOM     24  C   LIG    1        5.004   7.809  -5.384  0.00  0.00    +0.121 C 
BRANCH  24  25
ATOM     25  C   LIG    1        6.251   8.454  -6.002  0.00  0.00    +0.015 C 
BRANCH  25  26
ATOM     26  C   LIG    1        6.727   9.702  -5.245  0.00  0.00    -0.010 C 
ATOM     27  C   LIG    1        7.123   9.437  -3.789  0.00  0.00    +0.003 C 
ATOM     28  C   LIG    1        8.138  10.525  -3.481  0.00  0.00    +0.000 C 
ATOM     29  C   LIG    1        8.975  10.568  -4.747  0.00  0.00    +0.000 C 
ATOM     30  C   LIG    1        7.971  10.355  -5.880  0.00  0.00    +0.003 C 
ENDBRANCH  25  26
ENDBRANCH  24  25
ENDBRANCH  22  24
ENDBRANCH  21  22
ENDBRANCH   3  21
TORSDOF 5
