REMARK  Name = *****
REMARK                            x       y       z     vdW  Elec       q    Type
REMARK                         _______ _______ _______ _____ _____    ______ ____
ROOT
ATOM      1  C   LIG    1        2.687   0.890  -3.398  0.00  0.00    +0.161 A 
ATOM      2  C   LIG    1        3.106   0.323  -4.611  0.00  0.00    +0.158 A 
ATOM      3  N   LIG    1        2.821   0.856  -5.818  0.00  0.00    -0.236 NA
ATOM      4  C   LIG    1        2.098   2.001  -5.841  0.00  0.00    +0.121 A 
ATOM      5  C   LIG    1        1.657   2.659  -4.707  0.00  0.00    +0.007 A 
ATOM      6  C   LIG    1        1.954   2.074  -3.476  0.00  0.00    +0.059 A 
ENDROOT
BRANCH   5   7
ATOM      7  C   LIG    1        0.887   3.884  -4.747  0.00  0.00    +0.021 A 
ATOM      8  C   LIG    1        0.001   4.237  -5.745  0.00  0.00    +0.117 A 
ATOM      9  N   LIG    1       -0.645   5.358  -5.299  0.00  0.00    -0.268 N 
ATOM     10  N   LIG    1       -0.127   5.841  -4.153  0.00  0.00    -0.179 NA
ATOM     11  C   LIG    1        0.776   4.931  -3.805  0.00  0.00    +0.143 A 
BRANCH   9  12
ATOM     12  C   LIG    1       -1.870   5.917  -5.867  0.00  0.00    +0.110 C 
ATOM     13  C   LIG    1       -2.920   6.279  -4.804  0.00  0.00    +0.042 C 
ATOM     14  C   LIG    1       -2.669   7.642  -4.161  0.00  0.00    +0.083 C 
ATOM     15  N   LIG    1       -2.493   8.698  -5.160  0.00  0.00    -0.316 NA
ATOM     16  H   LIG    1       -3.349   8.800  -5.704  0.00  0.00    +0.122 HD
ATOM     17  C   LIG    1       -1.371   8.393  -6.050  0.00  0.00    +0.083 C 
ATOM     18  C   LIG    1       -1.599   7.091  -6.811  0.00  0.00    +0.042 C 
ENDBRANCH   9  12
ENDBRANCH   5   7
BRANCH   2  19
ATOM     19  N   LIG    1        3.924  -0.805  -4.654  0.00  0.00    -0.340 N 
ATOM     20  H   LIG    1        3.545  -1.555  -4.091  0.00  0.00    +0.144 HD
ATOM     21  H   LIG    1        4.034  -1.053  -5.635  0.00  0.00    +0.144 HD
ENDBRANCH   2  19
BRANCH   1  22
ATOM     22  O   LIG    1        2.953   0.219  -2.226  0.00  0.00    -0.481 OA
BRANCH  22  24
ATOM     23  C   LIG    1        4.562   1.409  -0.880  0.00  0.00    +0.057 C 
ATOM     24  C   LIG    1        3.094   0.990  -1.017  0.00  0.00    +0.204 C 
BRANCH  24  25
ATOM     25  C   LIG    1        2.402   0.252   0.135  0.00  0.00    +0.032 A 
ATOM     26  C   LIG    1        3.046  -0.568   1.088  0.00  0.00    +0.084 A 
ATOM     27 CL   LIG    1        4.725  -0.975   1.040  0.00  0.00    -0.080 Cl
ATOM     28  C   LIG    1        2.324  -1.137   2.155  0.00  0.00    +0.142 A 
ATOM     29  F   LIG    1        2.948  -1.883   3.081  0.00  0.00    -0.204 F 
ATOM     30  C   LIG    1        0.958  -0.951   2.296  0.00  0.00    +0.041 A 
ATOM     31  C   LIG    1        0.290  -0.193   1.354  0.00  0.00    +0.023 A 
ATOM     32  C   LIG    1        0.994   0.397   0.293  0.00  0.00    +0.049 A 
ATOM     33 CL   LIG    1       -0.004   1.319  -0.780  0.00  0.00    -0.083 Cl
ENDBRANCH  24  25
ENDBRANCH  22  24
ENDBRANCH   1  22
TORSDOF 6
