REMARK  Name = *****
REMARK                            x       y       z     vdW  Elec       q    Type
REMARK                         _______ _______ _______ _____ _____    ______ ____
ROOT
ATOM      1  C   LIG    1       -3.616   2.029   0.731  0.00  0.00    +0.111 C 
ATOM      2  C   LIG    1       -2.616   3.088   0.273  0.00  0.00    -0.005 C 
ATOM      3  C   LIG    1       -3.107   4.375   0.032  0.00  0.00    +0.009 C 
ATOM      4  C   LIG    1       -2.310   5.403  -0.442  0.00  0.00    +0.049 C 
ATOM      5  C   LIG    1       -0.949   5.199  -0.694  0.00  0.00    +0.026 C 
ATOM      6  C   LIG    1       -0.445   3.905  -0.479  0.00  0.00    +0.002 C 
ATOM      7  N   LIG    1       -3.151   6.488  -0.589  0.00  0.00    -0.349 NA
ATOM      8  C   LIG    1       -2.765   7.771  -1.131  0.00  0.00    +0.149 C 
ATOM      9  C   LIG    1       -4.436   6.156  -0.210  0.00  0.00    +0.090 C 
ATOM     10  C   LIG    1       -4.431   4.835   0.172  0.00  0.00    -0.020 C 
ATOM     11  C   LIG    1       -5.507   3.898   0.610  0.00  0.00    +0.059 C 
ATOM     12  C   LIG    1       -1.261   2.865  -0.017  0.00  0.00    +0.007 C 
ATOM     13  C   LIG    1       -4.918   2.678   1.411  0.00  0.00    +0.097 C 
ATOM     14  N   LIG    1       -6.048   1.736   1.648  0.00  0.00    -0.299 NA
ATOM     15  C   LIG    1       -6.385   1.583   3.059  0.00  0.00    +0.105 C 
ATOM     16  C   LIG    1       -5.884   0.423   1.022  0.00  0.00    +0.091 C 
ATOM     17  C   LIG    1       -5.410   0.551  -0.421  0.00  0.00    +0.044 C 
ATOM     18  C   LIG    1       -4.024   1.219  -0.528  0.00  0.00    +0.049 C 
ENDROOT
BRANCH   1  20
ATOM     19  C   LIG    1       -2.517   1.599   2.866  0.00  0.00    +0.195 C 
ATOM     20  O   LIG    1       -2.963   1.083   1.616  0.00  0.00    -0.370 OA
ENDBRANCH   1  20
BRANCH  17  21
ATOM     21  C   LIG    1       -5.433  -0.820  -1.105  0.00  0.00    +0.237 C 
BRANCH  21  22
ATOM     22  O   LIG    1       -5.100  -0.672  -2.491  0.00  0.00    -0.461 OA
BRANCH  22  23
ATOM     23  C   LIG    1       -6.123  -0.389  -3.334  0.00  0.00    +0.341 C 
ATOM     24  O   LIG    1       -7.309  -0.352  -3.068  0.00  0.00    -0.245 OA
BRANCH  23  25
ATOM     25  C   LIG    1       -5.558  -0.131  -4.672  0.00  0.00    +0.078 A 
ATOM     26  C   LIG    1       -4.224   0.253  -4.851  0.00  0.00    +0.033 A 
ATOM     27  C   LIG    1       -3.752   0.470  -6.138  0.00  0.00    +0.037 A 
ATOM     28 BR   LIG    1       -1.957   0.973  -6.417  0.00  0.00    -0.049 Br
ATOM     29  C   LIG    1       -4.626   0.306  -7.202  0.00  0.00    +0.126 A 
ATOM     30  N   LIG    1       -5.927  -0.050  -7.059  0.00  0.00    -0.261 NA
ATOM     31  C   LIG    1       -6.367  -0.256  -5.789  0.00  0.00    +0.125 A 
ENDBRANCH  23  25
ENDBRANCH  22  23
ENDBRANCH  21  22
ENDBRANCH  17  21
TORSDOF 5
