REMARK  Name = *****
REMARK                            x       y       z     vdW  Elec       q    Type
REMARK                         _______ _______ _______ _____ _____    ______ ____
ROOT
ATOM      1  C   LIG    1        4.451   2.194   1.780  0.00  0.00    -0.000 C 
ATOM      2  C   LIG    1        5.016   2.411   2.983  0.00  0.00    -0.066 C 
ATOM      3  C   LIG    1        4.299   2.160   4.309  0.00  0.00    +0.021 C 
ATOM      4  C   LIG    1        2.807   1.796   4.267  0.00  0.00    +0.009 C 
ATOM      5  C   LIG    1        2.210   2.362   5.544  0.00  0.00    +0.005 C 
ATOM      6  C   LIG    1        2.954   3.692   5.789  0.00  0.00    -0.002 C 
ATOM      7  C   LIG    1        4.426   3.350   5.329  0.00  0.00    -0.022 C 
ATOM      8  C   LIG    1        5.201   2.808   6.569  0.00  0.00    +0.012 C 
ATOM      9  C   LIG    1        5.239   4.530   4.765  0.00  0.00    +0.008 C 
ATOM     10  C   LIG    1        6.542   4.136   4.070  0.00  0.00    +0.005 C 
ATOM     11  C   LIG    1        6.438   2.889   3.194  0.00  0.00    +0.031 C 
ENDROOT
BRANCH   1  19
ATOM     12  C   LIG    1        2.072   2.535  -0.617  0.00  0.00    +0.015 C 
ATOM     13  C   LIG    1        3.112   1.754  -0.945  0.00  0.00    -0.023 C 
ATOM     14  C   LIG    1        3.032   0.407  -1.638  0.00  0.00    +0.147 C 
ATOM     15  C   LIG    1        3.818   0.432  -2.955  0.00  0.00    +0.067 C 
ATOM     16  C   LIG    1        5.243   0.967  -2.784  0.00  0.00    +0.122 C 
ATOM     17  C   LIG    1        5.294   2.285  -1.994  0.00  0.00    +0.067 C 
ATOM     18  C   LIG    1        4.492   2.184  -0.712  0.00  0.00    -0.040 C 
ATOM     19  C   LIG    1        5.066   2.390   0.483  0.00  0.00    +0.004 C 
BRANCH  14  20
ATOM     20  O   LIG    1        1.684   0.030  -1.907  0.00  0.00    -0.387 OA
ATOM     21  H   LIG    1        1.314   0.695  -2.511  0.00  0.00    +0.210 HD
ENDBRANCH  14  20
BRANCH  16  22
ATOM     22  O   LIG    1        6.066  -0.022  -2.161  0.00  0.00    -0.391 OA
ATOM     23  H   LIG    1        5.858  -0.045  -1.210  0.00  0.00    +0.210 HD
ENDBRANCH  16  22
ENDBRANCH   1  19
BRANCH   6  24
ATOM     24  C   LIG    1        2.149   4.918   5.205  0.00  0.00    -0.010 C 
ATOM     25  C   LIG    1        1.936   4.878   3.689  0.00  0.00    +0.008 C 
BRANCH  24  26
ATOM     26  C   LIG    1        2.689   6.290   5.686  0.00  0.00    +0.004 C 
BRANCH  26  27
ATOM     27  C   LIG    1        1.823   7.538   5.405  0.00  0.00    +0.003 C 
BRANCH  27  28
ATOM     28  C   LIG    1        0.414   7.546   6.020  0.00  0.00    +0.034 C 
BRANCH  28  29
ATOM     29  C   LIG    1       -0.393   8.841   5.731  0.00  0.00    +0.060 C 
ATOM     30  C   LIG    1        0.342  10.105   6.190  0.00  0.00    +0.041 C 
ATOM     31  C   LIG    1       -1.779   8.764   6.388  0.00  0.00    +0.041 C 
BRANCH  29  32
ATOM     32  O   LIG    1       -0.594   8.943   4.318  0.00  0.00    -0.389 OA
ATOM     33  H   LIG    1       -1.173   9.709   4.153  0.00  0.00    +0.210 HD
ENDBRANCH  29  32
ENDBRANCH  28  29
ENDBRANCH  27  28
ENDBRANCH  26  27
ENDBRANCH  24  26
ENDBRANCH   6  24
TORSDOF 9
