REMARK  Name = *****
REMARK                            x       y       z     vdW  Elec       q    Type
REMARK                         _______ _______ _______ _____ _____    ______ ____
ROOT
ATOM      1  C   LIG    1       -8.767   0.417   4.375  0.00  0.00    +0.044 C 
ATOM      2  C   LIG    1       -7.534   1.198   4.858  0.00  0.00    +0.006 C 
ATOM      3  C   LIG    1       -6.971   0.340   5.992  0.00  0.00    -0.001 C 
ATOM      4  C   LIG    1       -6.219   1.302   6.901  0.00  0.00    +0.034 C 
ATOM      5  C   LIG    1       -6.843   2.647   6.642  0.00  0.00    -0.073 C 
ATOM      6  C   LIG    1       -6.528   3.741   7.358  0.00  0.00    -0.027 C 
ATOM      7  C   LIG    1       -8.171  -0.344   6.652  0.00  0.00    +0.036 C 
ATOM      8  C   LIG    1       -7.778   2.586   5.462  0.00  0.00    +0.035 C 
ATOM      9  C   LIG    1       -9.319  -0.289   5.640  0.00  0.00    +0.122 C 
ENDROOT
BRANCH   1  11
ATOM     10  C   LIG    1       -9.454   1.870   2.438  0.00  0.00    +0.000 C 
ATOM     11  C   LIG    1       -9.766   1.209   3.566  0.00  0.00    -0.022 C 
BRANCH  10  12
ATOM     12  C   LIG    1      -10.431   2.668   1.617  0.00  0.00    +0.141 C 
BRANCH  12  13
ATOM     13  C   LIG    1      -11.129   1.831   0.519  0.00  0.00    +0.030 C 
ATOM     14  C   LIG    1      -10.117   1.234  -0.474  0.00  0.00    +0.011 C 
BRANCH  13  15
ATOM     15  C   LIG    1      -12.187   2.679  -0.219  0.00  0.00    +0.095 C 
BRANCH  15  18
ATOM     16  C   LIG    1      -14.171   0.144  -2.816  0.00  0.00    +0.106 C 
ATOM     17  C   LIG    1      -13.542   1.116  -1.911  0.00  0.00    -0.106 C 
ATOM     18  C   LIG    1      -12.978   1.850  -1.162  0.00  0.00    -0.102 C 
ENDBRANCH  15  18
ENDBRANCH  13  15
ENDBRANCH  12  13
BRANCH  12  19
ATOM     19  O   LIG    1       -9.707   3.743   1.022  0.00  0.00    -0.388 OA
ATOM     20  H   LIG    1       -9.351   4.279   1.752  0.00  0.00    +0.210 HD
ENDBRANCH  12  19
ENDBRANCH  10  12
ENDBRANCH   1  11
BRANCH   9  21
ATOM     21  O   LIG    1      -10.435   0.373   6.228  0.00  0.00    -0.391 OA
ATOM     22  H   LIG    1      -10.138   1.239   6.556  0.00  0.00    +0.210 HD
ENDBRANCH   9  21
BRANCH   6  23
ATOM     23  C   LIG    1       -6.986   5.138   7.044  0.00  0.00    +0.028 C 
BRANCH  23  24
ATOM     24  C   LIG    1       -6.507   6.162   8.084  0.00  0.00    +0.015 C 
BRANCH  24  25
ATOM     25  C   LIG    1       -6.946   7.582   7.737  0.00  0.00    +0.121 C 
BRANCH  25  26
ATOM     26  C   LIG    1       -8.447   7.701   7.694  0.00  0.00    +0.307 C 
ATOM     27  O   LIG    1       -9.182   7.568   8.663  0.00  0.00    -0.251 OA
BRANCH  26  28
ATOM     28  O   LIG    1       -8.861   7.965   6.424  0.00  0.00    -0.457 OA
BRANCH  28  29
ATOM     29  C   LIG    1      -10.278   8.054   6.291  0.00  0.00    +0.311 C 
BRANCH  29  30
ATOM     30  C   LIG    1      -10.945   6.678   6.180  0.00  0.00    +0.200 C 
ATOM     31  O   LIG    1      -10.384   5.716   5.653  0.00  0.00    -0.288 OA
BRANCH  30  32
ATOM     32  C   LIG    1      -12.345   6.527   6.671  0.00  0.00    +0.021 A 
ATOM     33  C   LIG    1      -13.184   5.562   6.095  0.00  0.00    +0.011 A 
ATOM     34  C   LIG    1      -14.504   5.429   6.540  0.00  0.00    +0.001 A 
ATOM     35  C   LIG    1      -14.982   6.242   7.568  0.00  0.00    +0.000 A 
ATOM     36  C   LIG    1      -14.143   7.181   8.159  0.00  0.00    +0.001 A 
ATOM     37  C   LIG    1      -12.829   7.320   7.716  0.00  0.00    +0.011 A 
ENDBRANCH  30  32
ENDBRANCH  29  30
ENDBRANCH  28  29
ENDBRANCH  26  28
ENDBRANCH  25  26
ENDBRANCH  24  25
ENDBRANCH  23  24
ENDBRANCH   6  23
TORSDOF 15
