REMARK  Name = *****
REMARK                            x       y       z     vdW  Elec       q    Type
REMARK                         _______ _______ _______ _____ _____    ______ ____
ROOT
ATOM      1  C   LIG    1        2.977  -1.339  -0.736  0.00  0.00    +0.158 C 
ATOM      2  N   LIG    1        2.752  -2.689  -0.312  0.00  0.00    -0.293 N 
ATOM      3  H   LIG    1        1.931  -2.893   0.241  0.00  0.00    +0.151 HD
ATOM      4  C   LIG    1        3.160  -3.752  -1.066  0.00  0.00    +0.247 C 
ATOM      5  O   LIG    1        2.654  -4.861  -0.947  0.00  0.00    -0.270 OA
ATOM      6  C   LIG    1        4.262  -3.491  -2.010  0.00  0.00    +0.059 A 
ATOM      7  C   LIG    1        4.807  -2.204  -2.056  0.00  0.00    +0.042 A 
ATOM      8  C   LIG    1        5.930  -1.994  -2.865  0.00  0.00    +0.045 A 
ATOM      9  C   LIG    1        6.451  -3.026  -3.663  0.00  0.00    +0.069 A 
ATOM     10  C   LIG    1        5.859  -4.291  -3.631  0.00  0.00    +0.124 A 
ATOM     11 CL   LIG    1        7.826  -2.646  -4.636  0.00  0.00    -0.082 Cl
ATOM     12  C   LIG    1        4.763  -4.527  -2.797  0.00  0.00    +0.045 A 
ATOM     13  N   LIG    1        4.349  -1.197  -1.196  0.00  0.00    -0.325 N 
ATOM     14  H   LIG    1        4.560  -0.261  -1.533  0.00  0.00    +0.148 HD
ENDROOT
BRANCH  10  15
ATOM     15  S   LIG    1        6.493  -5.604  -4.618  0.00  0.00    +0.057 S 
ATOM     16  O   LIG    1        7.783  -5.995  -4.097  0.00  0.00    -0.153 OA
ATOM     17  O   LIG    1        6.248  -5.301  -6.005  0.00  0.00    -0.153 OA
BRANCH  15  18
ATOM     18  N   LIG    1        5.479  -6.904  -4.277  0.00  0.00    -0.203 NA
ATOM     19  H   LIG    1        6.008  -7.653  -3.828  0.00  0.00    +0.144 HD
ATOM     20  H   LIG    1        4.983  -7.192  -5.122  0.00  0.00    +0.144 HD
ENDBRANCH  15  18
ENDBRANCH  10  15
BRANCH   1  22
ATOM     21  C   LIG    1        3.578  -0.523   1.620  0.00  0.00    +0.007 C 
ATOM     22  C   LIG    1        2.689  -0.343   0.393  0.00  0.00    +0.038 C 
ENDBRANCH   1  22
TORSDOF 3
