REMARK  Name = *****
REMARK                            x       y       z     vdW  Elec       q    Type
REMARK                         _______ _______ _______ _____ _____    ______ ____
ROOT
ATOM      1  C   LIG    1        5.973   2.892   3.309  0.00  0.00    +0.213 C 
ENDROOT
BRANCH   1   2
ATOM      2  C   LIG    1        5.527   3.760   2.122  0.00  0.00    -0.001 A 
ATOM      3  C   LIG    1        6.328   3.837   0.966  0.00  0.00    +0.007 A 
ATOM      4  C   LIG    1        5.922   4.584  -0.140  0.00  0.00    +0.000 A 
ATOM      5  C   LIG    1        4.716   5.278  -0.106  0.00  0.00    +0.000 A 
ATOM      6  C   LIG    1        3.909   5.217   1.027  0.00  0.00    +0.000 A 
ATOM      7  C   LIG    1        4.308   4.460   2.131  0.00  0.00    +0.007 A 
ENDBRANCH   1   2
BRANCH   1   8
ATOM      8  C   LIG    1        7.202   3.481   4.026  0.00  0.00    -0.001 A 
ATOM      9  C   LIG    1        7.048   4.513   4.977  0.00  0.00    +0.007 A 
ATOM     10  C   LIG    1        8.147   5.040   5.661  0.00  0.00    +0.000 A 
ATOM     11  C   LIG    1        9.427   4.568   5.392  0.00  0.00    +0.000 A 
ATOM     12  C   LIG    1        9.609   3.583   4.426  0.00  0.00    +0.000 A 
ATOM     13  C   LIG    1        8.510   3.050   3.744  0.00  0.00    +0.007 A 
ENDBRANCH   1   8
BRANCH   1  14
ATOM     14  C   LIG    1        6.127   1.393   2.876  0.00  0.00    +0.349 C 
ATOM     15  O   LIG    1        6.797   0.534   3.451  0.00  0.00    -0.247 OA
BRANCH  14  16
ATOM     16  O   LIG    1        5.297   1.090   1.821  0.00  0.00    -0.453 OA
BRANCH  16  20
ATOM     17  C   LIG    1        2.559  -0.918  -1.330  0.00  0.00    +0.192 C 
ATOM     18  N   LIG    1        3.081  -0.878   0.096  0.00  0.00    +0.244 N 
ATOM     19  C   LIG    1        4.572  -0.455   0.099  0.00  0.00    +0.178 C 
ATOM     20  C   LIG    1        5.069  -0.305   1.554  0.00  0.00    +0.225 C 
ATOM     21  C   LIG    1        3.973  -0.803   2.518  0.00  0.00    +0.045 C 
ATOM     22  C   LIG    1        3.585  -2.232   2.133  0.00  0.00    +0.058 C 
ATOM     23  C   LIG    1        2.726   0.087   2.371  0.00  0.00    +0.058 C 
ATOM     24  C   LIG    1        2.951  -2.265   0.742  0.00  0.00    +0.133 C 
ATOM     25  C   LIG    1        2.273   0.144   0.912  0.00  0.00    +0.133 C 
ENDBRANCH  16  20
ENDBRANCH  14  16
ENDBRANCH   1  14
BRANCH   1  26
ATOM     26  O   LIG    1        4.885   2.810   4.271  0.00  0.00    -0.370 OA
ATOM     27  H   LIG    1        5.296   2.658   5.142  0.00  0.00    +0.212 HD
ENDBRANCH   1  26
TORSDOF 6
