REMARK  Name = *****
REMARK                            x       y       z     vdW  Elec       q    Type
REMARK                         _______ _______ _______ _____ _____    ______ ____
ROOT
ATOM      1  C   LIG    1        5.185  -2.465   0.297  0.00  0.00    +0.240 C 
ATOM      2  S   LIG    1        6.625  -3.315   0.360  0.00  0.00    +0.007 S 
ENDROOT
BRANCH   1   3
ATOM      3  N   LIG    1        4.966  -1.072   0.151  0.00  0.00    -0.268 N 
ATOM      4  C   LIG    1        3.743  -0.660  -0.554  0.00  0.00    +0.139 C 
BRANCH   3   8
ATOM      5  C   LIG    1        5.885   3.844   0.602  0.00  0.00    +0.044 C 
ATOM      6  C   LIG    1        6.276   2.426   0.897  0.00  0.00    -0.049 A 
ATOM      7  C   LIG    1        5.487   1.357   0.421  0.00  0.00    +0.027 A 
ATOM      8  C   LIG    1        5.833   0.002   0.624  0.00  0.00    +0.037 A 
ATOM      9  C   LIG    1        7.012  -0.216   1.348  0.00  0.00    +0.023 A 
ATOM     10  C   LIG    1        7.813   0.833   1.818  0.00  0.00    +0.002 A 
ATOM     11  C   LIG    1        7.449   2.151   1.593  0.00  0.00    +0.003 A 
ENDBRANCH   3   8
ENDBRANCH   1   3
BRANCH   1  12
ATOM     12  O   LIG    1        3.969  -3.210   0.291  0.00  0.00    -0.435 OA
BRANCH  12  13
ATOM     13  C   LIG    1        3.555  -4.587   0.406  0.00  0.00    +0.131 A 
ATOM     14  C   LIG    1        4.222  -5.547   1.157  0.00  0.00    +0.055 A 
ATOM     15  C   LIG    1        3.768  -6.878   1.168  0.00  0.00    -0.014 A 
ATOM     16  C   LIG    1        2.587  -7.219   0.451  0.00  0.00    -0.018 A 
ATOM     17  C   LIG    1        2.147  -8.552   0.450  0.00  0.00    +0.008 A 
ATOM     18  C   LIG    1        2.859  -9.545   1.124  0.00  0.00    +0.001 A 
ATOM     19  C   LIG    1        4.017  -9.214   1.825  0.00  0.00    +0.001 A 
ATOM     20  C   LIG    1        1.901  -6.215  -0.245  0.00  0.00    +0.012 A 
ATOM     21  C   LIG    1        4.458  -7.890   1.853  0.00  0.00    +0.008 A 
ATOM     22  C   LIG    1        2.380  -4.904  -0.277  0.00  0.00    +0.047 A 
ENDBRANCH  12  13
ENDBRANCH   1  12
TORSDOF 4
