REMARK  Name = *****
REMARK                            x       y       z     vdW  Elec       q    Type
REMARK                         _______ _______ _______ _____ _____    ______ ____
ROOT
ATOM      1  C   LIG    1        1.793  -1.983   0.048  0.00  0.00    +0.078 C 
ATOM      2  C   LIG    1        0.510  -2.094   0.805  0.00  0.00    +0.023 A 
ATOM      3  C   LIG    1        0.105  -3.292   1.433  0.00  0.00    +0.044 A 
ATOM      4  C   LIG    1       -1.086  -3.267   2.184  0.00  0.00    +0.025 A 
ATOM      5  C   LIG    1       -1.863  -2.109   2.283  0.00  0.00    +0.022 A 
ATOM      6  C   LIG    1       -1.465  -0.952   1.627  0.00  0.00    +0.042 A 
ATOM      7 CL   LIG    1       -2.426   0.468   1.741  0.00  0.00    -0.084 Cl
ATOM      8  N   LIG    1        0.841  -4.527   1.330  0.00  0.00    -0.287 N 
ATOM      9  C   LIG    1        1.463  -4.928   0.132  0.00  0.00    +0.077 C 
ATOM     10  S   LIG    1        2.338  -6.358  -0.073  0.00  0.00    -0.038 S 
ATOM     11  C   LIG    1        1.303  -4.003  -1.077  0.00  0.00    +0.201 C 
ATOM     12  C   LIG    1       -0.291  -0.939   0.883  0.00  0.00    +0.032 A 
ATOM     13  N   LIG    1        2.158  -2.842  -0.849  0.00  0.00    -0.276 NA
ENDROOT
BRANCH   1  16
ATOM     14  F   LIG    1        2.124  -0.604   2.585  0.00  0.00    -0.205 F 
ATOM     15  C   LIG    1        2.815  -0.177   1.518  0.00  0.00    +0.133 A 
ATOM     16  C   LIG    1        2.707  -0.818   0.282  0.00  0.00    +0.036 A 
ATOM     17  C   LIG    1        3.509  -0.372  -0.780  0.00  0.00    +0.013 A 
ATOM     18  C   LIG    1        4.365   0.720  -0.615  0.00  0.00    +0.001 A 
ATOM     19  C   LIG    1        4.434   1.374   0.614  0.00  0.00    +0.003 A 
ATOM     20  C   LIG    1        3.663   0.920   1.684  0.00  0.00    +0.039 A 
ENDBRANCH   1  16
BRANCH   8  21
ATOM     21  C   LIG    1        0.887  -5.389   2.546  0.00  0.00    +0.224 C 
BRANCH  21  22
ATOM     22  C   LIG    1       -0.138  -6.526   2.612  0.00  0.00    +0.406 C 
ATOM     23  F   LIG    1       -0.945  -6.358   3.691  0.00  0.00    -0.169 F 
ATOM     24  F   LIG    1        0.455  -7.732   2.745  0.00  0.00    -0.169 F 
ATOM     25  F   LIG    1       -0.942  -6.572   1.527  0.00  0.00    -0.169 F 
ENDBRANCH  21  22
ENDBRANCH   8  21
TORSDOF 3
