REMARK  Name = *****
REMARK                            x       y       z     vdW  Elec       q    Type
REMARK                         _______ _______ _______ _____ _____    ______ ____
ROOT
ATOM      1  O   LIG    1        0.407   1.471  -0.522  0.00  0.00    -0.274 OA
ATOM      2  C   LIG    1        1.488   1.143  -0.046  0.00  0.00    +0.231 C 
ATOM      3  N   LIG    1        2.441   2.043   0.421  0.00  0.00    -0.284 N 
ATOM      4  H   LIG    1        3.069   1.553   1.054  0.00  0.00    +0.155 HD
ATOM      5  C   LIG    1        3.197   2.603  -0.631  0.00  0.00    +0.041 A 
ATOM      6  C   LIG    1        4.052   1.808  -1.425  0.00  0.00    +0.026 A 
ATOM      7  C   LIG    1        4.813   2.492  -2.404  0.00  0.00    +0.030 A 
ATOM      8  C   LIG    1        4.690   3.871  -2.597  0.00  0.00    +0.042 A 
ATOM      9  C   LIG    1        3.817   4.618  -1.815  0.00  0.00    +0.022 A 
ATOM     10 CL   LIG    1        5.631   4.651  -3.807  0.00  0.00    -0.084 Cl
ATOM     11  C   LIG    1        4.224   0.265  -1.240  0.00  0.00    +0.179 C 
ATOM     12  N   LIG    1        2.972  -0.495  -1.126  0.00  0.00    -0.256 NA
ATOM     13  C   LIG    1        2.443  -0.552  -2.474  0.00  0.00    +0.116 C 
ATOM     14  C   LIG    1        3.722  -0.769  -3.264  0.00  0.00    +0.178 C 
ATOM     15  O   LIG    1        4.794  -0.188  -2.495  0.00  0.00    -0.349 OA
ATOM     16  C   LIG    1        3.072   3.983  -0.826  0.00  0.00    +0.025 A 
ATOM     17  C   LIG    1        2.014  -0.279  -0.056  0.00  0.00    +0.184 C 
ENDROOT
BRANCH  11  18
ATOM     18  C   LIG    1        5.242  -0.121  -0.142  0.00  0.00    +0.022 A 
ATOM     19  C   LIG    1        5.596  -1.461   0.144  0.00  0.00    +0.049 A 
ATOM     20 CL   LIG    1        4.956  -2.835  -0.694  0.00  0.00    -0.083 Cl
ATOM     21  C   LIG    1        6.522  -1.768   1.156  0.00  0.00    +0.020 A 
ATOM     22  C   LIG    1        7.129  -0.762   1.899  0.00  0.00    +0.001 A 
ATOM     23  C   LIG    1        6.820   0.561   1.628  0.00  0.00    +0.001 A 
ATOM     24  C   LIG    1        5.898   0.875   0.624  0.00  0.00    +0.009 A 
ENDBRANCH  11  18
TORSDOF 1
