REMARK  Name = *****
REMARK                            x       y       z     vdW  Elec       q    Type
REMARK                         _______ _______ _______ _____ _____    ______ ____
ROOT
ATOM      1  C   LIG    1        8.468  -0.686  -1.628  0.00  0.00    -0.000 C 
ATOM      2  C   LIG    1        7.286  -1.192  -2.021  0.00  0.00    -0.066 C 
ATOM      3  C   LIG    1        6.467  -2.250  -1.271  0.00  0.00    +0.021 C 
ATOM      4  C   LIG    1        6.976  -2.814   0.061  0.00  0.00    +0.009 C 
ATOM      5  C   LIG    1        6.354  -4.202   0.133  0.00  0.00    +0.005 C 
ATOM      6  C   LIG    1        6.551  -4.769  -1.291  0.00  0.00    +0.002 C 
ATOM      7  C   LIG    1        6.179  -3.514  -2.179  0.00  0.00    -0.022 C 
ATOM      8  C   LIG    1        4.654  -3.586  -2.470  0.00  0.00    +0.012 C 
ATOM      9  C   LIG    1        6.909  -3.397  -3.534  0.00  0.00    +0.008 C 
ATOM     10  C   LIG    1        6.680  -2.071  -4.273  0.00  0.00    +0.005 C 
ATOM     11  C   LIG    1        6.610  -0.868  -3.336  0.00  0.00    +0.031 C 
ENDROOT
BRANCH   1  15
ATOM     12  C   LIG    1       11.726   1.021  -4.182  0.00  0.00    +0.012 C 
ATOM     13  C   LIG    1       11.340   1.488  -2.978  0.00  0.00    -0.051 C 
ATOM     14  C   LIG    1       10.520   0.690  -2.057  0.00  0.00    -0.042 C 
ATOM     15  C   LIG    1        9.329   0.181  -2.422  0.00  0.00    +0.004 C 
ATOM     16  C   LIG    1       11.170   0.539  -0.704  0.00  0.00    +0.066 C 
ATOM     17  C   LIG    1       11.570   1.898  -0.116  0.00  0.00    +0.119 C 
ATOM     18  C   LIG    1       12.476   2.670  -1.077  0.00  0.00    +0.036 C 
ATOM     19  C   LIG    1       11.816   2.821  -2.447  0.00  0.00    +0.037 C 
BRANCH  17  20
ATOM     20  O   LIG    1       12.241   1.715   1.129  0.00  0.00    -0.392 OA
ATOM     21  H   LIG    1       12.930   1.042   1.002  0.00  0.00    +0.210 HD
ENDBRANCH  17  20
ENDBRANCH   1  15
BRANCH   6  22
ATOM     22  C   LIG    1        7.960  -5.436  -1.437  0.00  0.00    +0.012 C 
ATOM     23  C   LIG    1        8.236  -6.050  -2.823  0.00  0.00    +0.012 C 
BRANCH  22  24
ATOM     24  C   LIG    1        8.113  -6.599  -0.460  0.00  0.00    -0.027 C 
ATOM     25  C   LIG    1        9.001  -6.654   0.550  0.00  0.00    -0.027 C 
BRANCH  25  26
ATOM     26  C   LIG    1        9.330  -7.885   1.387  0.00  0.00    +0.011 C 
ATOM     27  C   LIG    1        9.355  -9.145   0.501  0.00  0.00    +0.012 C 
BRANCH  26  28
ATOM     28  C   LIG    1        8.435  -8.075   2.647  0.00  0.00    -0.011 C 
ATOM     29  C   LIG    1        8.349  -6.809   3.511  0.00  0.00    +0.008 C 
ATOM     30  C   LIG    1        8.932  -9.225   3.540  0.00  0.00    +0.008 C 
ENDBRANCH  26  28
ENDBRANCH  25  26
ENDBRANCH  22  24
ENDBRANCH   6  22
TORSDOF 6
