REMARK  Name = *****
REMARK                            x       y       z     vdW  Elec       q    Type
REMARK                         _______ _______ _______ _____ _____    ______ ____
ROOT
ATOM      1  C   LIG    1        3.849   3.481  -0.521  0.00  0.00    +0.242 C 
ATOM      2  N   LIG    1        4.044   2.835   0.683  0.00  0.00    -0.313 N 
ATOM      3  H   LIG    1        3.228   2.379   1.081  0.00  0.00    +0.149 HD
ATOM      4  O   LIG    1        4.773   3.854  -1.239  0.00  0.00    -0.273 OA
ENDROOT
BRANCH   1   5
ATOM      5  C   LIG    1        2.365   3.752  -0.912  0.00  0.00    +0.208 C 
BRANCH   5   7
ATOM      6  C   LIG    1        1.606   4.718   1.351  0.00  0.00    +0.016 C 
ATOM      7  C   LIG    1        1.713   4.960  -0.166  0.00  0.00    +0.023 C 
ATOM      8  C   LIG    1        0.272   5.211  -0.681  0.00  0.00    +0.016 C 
BRANCH   7   9
ATOM      9  C   LIG    1        2.568   6.223  -0.424  0.00  0.00    +0.165 C 
BRANCH   9  10
ATOM     10  O   LIG    1        2.004   7.382   0.179  0.00  0.00    -0.394 OA
ATOM     11  H   LIG    1        1.291   7.702  -0.400  0.00  0.00    +0.209 HD
ENDBRANCH   9  10
ENDBRANCH   7   9
ENDBRANCH   5   7
BRANCH   5  12
ATOM     12  O   LIG    1        1.588   2.564  -0.747  0.00  0.00    -0.382 OA
ATOM     13  H   LIG    1        1.877   1.950  -1.449  0.00  0.00    +0.210 HD
ENDBRANCH   5  12
ENDBRANCH   1   5
BRANCH   2  14
ATOM     14  C   LIG    1        5.361   2.482   1.218  0.00  0.00    +0.115 C 
BRANCH  14  15
ATOM     15  C   LIG    1        6.291   3.670   1.455  0.00  0.00    +0.139 C 
BRANCH  15  16
ATOM     16  C   LIG    1        7.624   3.221   1.971  0.00  0.00    +0.306 C 
ATOM     17  O   LIG    1        7.849   2.728   3.075  0.00  0.00    -0.251 OA
BRANCH  16  18
ATOM     18  O   LIG    1        8.625   3.397   1.087  0.00  0.00    -0.481 OA
ATOM     19  H   LIG    1        9.432   3.067   1.538  0.00  0.00    +0.295 HD
ENDBRANCH  16  18
ENDBRANCH  15  16
ENDBRANCH  14  15
ENDBRANCH   2  14
TORSDOF 9
