REMARK  Name = *****
REMARK                            x       y       z     vdW  Elec       q    Type
REMARK                         _______ _______ _______ _____ _____    ______ ____
ROOT
ATOM      1  C   LIG    1        6.373  -1.161  -2.134  0.00  0.00    +0.076 A 
ATOM      2  C   LIG    1        6.785  -2.486  -2.348  0.00  0.00    +0.140 A 
ATOM      3  N   LIG    1        8.055  -2.840  -2.651  0.00  0.00    -0.216 NA
ATOM      4  C   LIG    1        8.977  -1.856  -2.735  0.00  0.00    +0.121 A 
ATOM      5  C   LIG    1        8.635  -0.523  -2.554  0.00  0.00    +0.045 A 
ATOM      6  C   LIG    1        7.338  -0.172  -2.219  0.00  0.00    +0.030 A 
ENDROOT
BRANCH   1   8
ATOM      7  C   LIG    1        4.405   0.319  -1.889  0.00  0.00    +0.405 C 
ATOM      8  N   LIG    1        5.022  -0.896  -1.841  0.00  0.00    -0.248 N 
ATOM      9  H   LIG    1        4.412  -1.693  -1.732  0.00  0.00    +0.158 HD
ATOM     10  O   LIG    1        4.895   1.380  -2.260  0.00  0.00    -0.226 OA
BRANCH   7  11
ATOM     11  O   LIG    1        3.120   0.196  -1.456  0.00  0.00    -0.450 OA
BRANCH  11  13
ATOM     12  C   LIG    1        2.799   2.224  -0.160  0.00  0.00    +0.048 C 
ATOM     13  C   LIG    1        2.389   1.424  -1.391  0.00  0.00    +0.230 C 
ENDBRANCH  11  13
ENDBRANCH   7  11
ENDBRANCH   1   8
BRANCH   2  14
ATOM     14  N   LIG    1        5.847  -3.530  -2.238  0.00  0.00    -0.342 N 
ATOM     15  H   LIG    1        5.479  -3.557  -1.294  0.00  0.00    +0.144 HD
ATOM     16  H   LIG    1        6.355  -4.386  -2.446  0.00  0.00    +0.144 HD
ENDBRANCH   2  14
BRANCH   4  17
ATOM     17  N   LIG    1       10.288  -2.229  -3.024  0.00  0.00    -0.325 N 
ATOM     18  H   LIG    1       10.359  -3.240  -2.934  0.00  0.00    +0.148 HD
BRANCH  17  19
ATOM     19  C   LIG    1       11.370  -1.487  -2.393  0.00  0.00    +0.138 C 
BRANCH  19  20
ATOM     20  C   LIG    1       11.685  -2.067  -1.040  0.00  0.00    -0.030 A 
ATOM     21  C   LIG    1       10.926  -1.724   0.093  0.00  0.00    +0.008 A 
ATOM     22  C   LIG    1       11.205  -2.310   1.326  0.00  0.00    +0.039 A 
ATOM     23  C   LIG    1       12.239  -3.232   1.424  0.00  0.00    +0.123 A 
ATOM     24  F   LIG    1       12.507  -3.798   2.607  0.00  0.00    -0.205 F 
ATOM     25  C   LIG    1       12.997  -3.585   0.313  0.00  0.00    +0.039 A 
ATOM     26  C   LIG    1       12.719  -3.005  -0.921  0.00  0.00    +0.008 A 
ENDBRANCH  19  20
ENDBRANCH  17  19
ENDBRANCH   4  17
TORSDOF 7
