REMARK  Name = *****
REMARK                            x       y       z     vdW  Elec       q    Type
REMARK                         _______ _______ _______ _____ _____    ______ ____
ROOT
ATOM      1  C   LIG    1        8.030   3.437  -5.529  0.00  0.00    +0.127 A 
ATOM      2  C   LIG    1        8.832   2.620  -4.707  0.00  0.00    +0.013 A 
ATOM      3  C   LIG    1        8.962   1.144  -4.971  0.00  0.00    +0.049 C 
ATOM      4  C   LIG    1        9.476   3.230  -3.619  0.00  0.00    +0.060 A 
ATOM      5  N   LIG    1        9.388   4.564  -3.383  0.00  0.00    -0.259 NA
ATOM      6  C   LIG    1        8.633   5.315  -4.201  0.00  0.00    +0.114 A 
ATOM      7  C   LIG    1        7.945   4.804  -5.278  0.00  0.00    +0.065 A 
ENDROOT
BRANCH   1   8
ATOM      8  O   LIG    1        7.370   2.809  -6.554  0.00  0.00    -0.491 OA
BRANCH   8   9
ATOM      9  C   LIG    1        6.481   3.593  -7.352  0.00  0.00    +0.231 C 
BRANCH   9  10
ATOM     10  C   LIG    1        5.873   2.692  -8.415  0.00  0.00    +0.069 C 
BRANCH  10  11
ATOM     11  C   LIG    1        5.011   1.584  -7.813  0.00  0.00    +0.163 C 
BRANCH  11  13
ATOM     12  C   LIG    1        5.293   0.061  -9.627  0.00  0.00    +0.193 C 
ATOM     13  O   LIG    1        4.378   0.798  -8.825  0.00  0.00    -0.383 OA
ENDBRANCH  11  13
ENDBRANCH  10  11
ENDBRANCH   9  10
ENDBRANCH   8   9
ENDBRANCH   1   8
BRANCH   4  14
ATOM     14  C   LIG    1       10.275   2.468  -2.589  0.00  0.00    +0.167 C 
BRANCH  14  15
ATOM     15  S   LIG    1        9.260   1.793  -1.232  0.00  0.00    +0.095 S 
ATOM     16  O   LIG    1        8.075   1.068  -1.803  0.00  0.00    -0.249 OA
BRANCH  15  17
ATOM     17  C   LIG    1        8.657   3.306  -0.637  0.00  0.00    +0.198 A 
ATOM     18  N   LIG    1        7.341   3.671  -0.758  0.00  0.00    -0.331 N 
ATOM     19  H   LIG    1        6.632   3.103  -1.189  0.00  0.00    +0.168 HD
ATOM     20  C   LIG    1        7.210   4.937  -0.252  0.00  0.00    +0.067 A 
ATOM     21  C   LIG    1        8.486   5.256   0.202  0.00  0.00    +0.090 A 
ATOM     22  C   LIG    1        8.696   6.493   0.827  0.00  0.00    +0.030 A 
ATOM     23  C   LIG    1        7.610   7.367   0.968  0.00  0.00    +0.002 A 
ATOM     24  C   LIG    1        6.345   7.026   0.478  0.00  0.00    +0.002 A 
ATOM     25  C   LIG    1        6.116   5.797  -0.149  0.00  0.00    +0.028 A 
ATOM     26  N   LIG    1        9.373   4.234  -0.048  0.00  0.00    -0.220 NA
ENDBRANCH  15  17
ENDBRANCH  14  15
ENDBRANCH   4  14
TORSDOF 8
