REMARK  Name = *****
REMARK                            x       y       z     vdW  Elec       q    Type
REMARK                         _______ _______ _______ _____ _____    ______ ____
ROOT
ATOM      1  C   LIG    1        3.526   2.304  -0.208  0.00  0.00    +0.019 A 
ATOM      2  C   LIG    1        3.877   1.718  -1.434  0.00  0.00    +0.035 A 
ATOM      3  C   LIG    1        4.342   2.468  -2.541  0.00  0.00    +0.049 A 
ATOM      4  N   LIG    1        4.832   1.855  -3.738  0.00  0.00    -0.297 N 
ATOM      5  C   LIG    1        5.258   2.560  -4.912  0.00  0.00    +0.048 A 
ATOM      6  C   LIG    1        5.228   3.969  -4.985  0.00  0.00    +0.034 A 
ATOM      7  S   LIG    1        4.803   5.026  -3.629  0.00  0.00    -0.086 S 
ATOM      8  C   LIG    1        5.564   4.653  -6.173  0.00  0.00    +0.017 A 
ATOM      9  C   LIG    1        5.960   3.966  -7.311  0.00  0.00    +0.001 A 
ATOM     10  C   LIG    1        6.051   2.587  -7.258  0.00  0.00    +0.002 A 
ATOM     11  C   LIG    1        5.715   1.903  -6.079  0.00  0.00    +0.024 A 
ATOM     12  C   LIG    1        4.337   3.869  -2.373  0.00  0.00    +0.034 A 
ATOM     13  C   LIG    1        3.957   4.461  -1.152  0.00  0.00    +0.017 A 
ATOM     14  C   LIG    1        3.576   3.684  -0.065  0.00  0.00    +0.012 A 
ENDROOT
BRANCH   1  16
ATOM     15  C   LIG    1        2.565   0.120   0.779  0.00  0.00    +0.091 C 
ATOM     16  C   LIG    1        3.166   1.486   0.985  0.00  0.00    +0.160 C 
ATOM     17  O   LIG    1        3.346   1.943   2.106  0.00  0.00    -0.292 OA
ENDBRANCH   1  16
BRANCH   4  18
ATOM     18  C   LIG    1        4.845   0.361  -3.809  0.00  0.00    +0.129 C 
BRANCH  18  19
ATOM     19  C   LIG    1        6.232  -0.297  -3.450  0.00  0.00    +0.071 C 
ATOM     20  C   LIG    1        6.622   0.021  -1.990  0.00  0.00    +0.026 C 
BRANCH  19  21
ATOM     21  N   LIG    1        6.214  -1.781  -3.685  0.00  0.00    -0.304 NA
ATOM     22  C   LIG    1        7.422  -2.461  -3.192  0.00  0.00    +0.105 C 
ATOM     23  C   LIG    1        6.063  -2.111  -5.109  0.00  0.00    +0.105 C 
ENDBRANCH  19  21
ENDBRANCH  18  19
ENDBRANCH   4  18
TORSDOF 4
