REMARK  Name = *****
REMARK                            x       y       z     vdW  Elec       q    Type
REMARK                         _______ _______ _______ _____ _____    ______ ____
ROOT
ATOM      1  C   LIG    1        6.029  -4.202   5.486  0.00  0.00    -0.041 C 
ATOM      2  C   LIG    1        6.423  -4.962   6.325  0.00  0.00    -0.059 C 
ENDROOT
BRANCH   2   3
ATOM      3  C   LIG    1        6.899  -5.902   7.287  0.00  0.00    +0.026 A 
ATOM      4  C   LIG    1        6.591  -7.254   7.132  0.00  0.00    +0.022 A 
ATOM      5  C   LIG    1        7.038  -8.232   8.049  0.00  0.00    -0.027 A 
ATOM      6  C   LIG    1        6.651  -9.697   7.810  0.00  0.00    -0.008 C 
ATOM      7  C   LIG    1        7.417 -10.689   8.720  0.00  0.00    +0.022 C 
ATOM      8  C   LIG    1        7.388 -10.318  10.189  0.00  0.00    +0.075 C 
ATOM      9  S   LIG    1        8.395  -8.844  10.463  0.00  0.00    -0.125 S 
ATOM     10  C   LIG    1        5.129  -9.849   8.037  0.00  0.00    +0.016 C 
ATOM     11  C   LIG    1        6.967 -10.124   6.353  0.00  0.00    +0.016 C 
ATOM     12  C   LIG    1        7.786  -7.790   9.157  0.00  0.00    +0.012 A 
ATOM     13  C   LIG    1        8.104  -6.426   9.294  0.00  0.00    +0.016 A 
ATOM     14  C   LIG    1        7.667  -5.484   8.365  0.00  0.00    +0.018 A 
ENDBRANCH   2   3
BRANCH   1  18
ATOM     15  C   LIG    1        4.797  -1.698   2.412  0.00  0.00    +0.077 A 
ATOM     16  C   LIG    1        4.402  -3.025   2.522  0.00  0.00    +0.127 A 
ATOM     17  N   LIG    1        4.789  -3.845   3.531  0.00  0.00    -0.246 NA
ATOM     18  C   LIG    1        5.602  -3.306   4.466  0.00  0.00    +0.114 A 
ATOM     19  C   LIG    1        6.045  -1.994   4.451  0.00  0.00    +0.038 A 
ATOM     20  C   LIG    1        5.637  -1.177   3.401  0.00  0.00    +0.019 A 
BRANCH  15  21
ATOM     21  C   LIG    1        4.303  -0.900   1.271  0.00  0.00    +0.341 C 
ATOM     22  O   LIG    1        3.553  -1.335   0.413  0.00  0.00    -0.245 OA
BRANCH  21  23
ATOM     23  O   LIG    1        4.801   0.358   1.347  0.00  0.00    -0.461 OA
BRANCH  23  25
ATOM     24  C   LIG    1        5.214   1.130  -0.912  0.00  0.00    +0.048 C 
ATOM     25  C   LIG    1        4.362   1.272   0.335  0.00  0.00    +0.229 C 
ENDBRANCH  23  25
ENDBRANCH  21  23
ENDBRANCH  15  21
ENDBRANCH   1  18
TORSDOF 5
