REMARK  Name = *****
REMARK                            x       y       z     vdW  Elec       q    Type
REMARK                         _______ _______ _______ _____ _____    ______ ____
ROOT
ATOM      1  C   LIG    1        5.617   0.599   1.718  0.00  0.00    +0.035 A 
ATOM      2  C   LIG    1        6.197   0.090   0.541  0.00  0.00    -0.011 A 
ATOM      3  C   LIG    1        7.292   0.817  -0.168  0.00  0.00    +0.046 C 
ATOM      4  C   LIG    1        7.151   0.647  -1.663  0.00  0.00    +0.031 C 
ATOM      5  C   LIG    1        7.479  -0.780  -1.933  0.00  0.00    +0.044 C 
ATOM      6  C   LIG    1        6.577  -1.726  -1.179  0.00  0.00    +0.197 C 
ATOM      7  O   LIG    1        6.481  -2.912  -1.503  0.00  0.00    -0.287 OA
ATOM      8  C   LIG    1        8.502  -1.114  -2.742  0.00  0.00    +0.141 C 
ATOM      9  C   LIG    1        9.351  -0.051  -3.472  0.00  0.00    +0.190 C 
ATOM     10  C   LIG    1        8.551   1.256  -3.685  0.00  0.00    +0.061 C 
ATOM     11  C   LIG    1        9.366   2.424  -4.319  0.00  0.00    +0.129 C 
ATOM     12  C   LIG    1       10.862   2.373  -3.996  0.00  0.00    +0.127 C 
ATOM     13  C   LIG    1       11.460   1.428  -3.234  0.00  0.00    +0.121 C 
ATOM     14  C   LIG    1       10.633   0.306  -2.689  0.00  0.00    +0.210 C 
ATOM     15  O   LIG    1       10.980  -0.266  -1.647  0.00  0.00    -0.288 OA
ATOM     16  C   LIG    1        8.016   1.714  -2.329  0.00  0.00    +0.018 C 
ATOM     17  C   LIG    1        5.799  -1.165  -0.008  0.00  0.00    +0.070 A 
ATOM     18  C   LIG    1        4.721  -1.858   0.565  0.00  0.00    +0.149 A 
ATOM     19  C   LIG    1        4.071  -1.337   1.697  0.00  0.00    +0.078 A 
ATOM     20  C   LIG    1        4.540  -0.136   2.253  0.00  0.00    +0.050 A 
ENDROOT
BRANCH  13  21
ATOM     21  C   LIG    1       12.915   1.595  -2.909  0.00  0.00    +0.248 C 
ATOM     22  O   LIG    1       13.635   2.358  -3.518  0.00  0.00    -0.270 OA
ATOM     23  N   LIG    1       13.396   0.842  -1.874  0.00  0.00    -0.325 N 
ATOM     24  H   LIG    1       12.817   0.184  -1.366  0.00  0.00    +0.145 HD
ATOM     25  H   LIG    1       14.369   0.938  -1.623  0.00  0.00    +0.145 HD
ENDBRANCH  13  21
BRANCH  19  26
ATOM     26  N   LIG    1        2.969  -2.046   2.243  0.00  0.00    -0.281 N 
ATOM     27  H   LIG    1        2.682  -2.857   1.696  0.00  0.00    +0.155 HD
ATOM     28  C   LIG    1        2.365  -1.833   3.474  0.00  0.00    +0.231 C 
ATOM     29  O   LIG    1        2.713  -0.994   4.313  0.00  0.00    -0.274 OA
BRANCH  28  30
ATOM     30  C   LIG    1        1.204  -2.783   3.776  0.00  0.00    +0.178 C 
BRANCH  30  31
ATOM     31  N   LIG    1       -0.086  -2.203   3.352  0.00  0.00    -0.303 NA
ATOM     32  H   LIG    1       -0.018  -1.923   2.373  0.00  0.00    +0.123 HD
BRANCH  31  33
ATOM     33  C   LIG    1       -1.253  -3.093   3.536  0.00  0.00    +0.011 C 
ATOM     34  C   LIG    1       -1.068  -4.394   2.739  0.00  0.00    +0.027 C 
ATOM     35  C   LIG    1       -2.506  -2.377   2.985  0.00  0.00    +0.027 C 
ATOM     36  C   LIG    1       -1.503  -3.424   5.018  0.00  0.00    +0.027 C 
ENDBRANCH  31  33
ENDBRANCH  30  31
ENDBRANCH  28  30
ENDBRANCH  19  26
BRANCH   1  38
ATOM     37  C   LIG    1        6.592   2.939   1.796  0.00  0.00    +0.129 C 
ATOM     38  N   LIG    1        6.031   1.744   2.412  0.00  0.00    -0.336 N 
ATOM     39  C   LIG    1        6.559   1.471   3.753  0.00  0.00    +0.129 C 
ENDBRANCH   1  38
BRANCH  11  40
ATOM     40  N   LIG    1        8.970   2.662  -5.727  0.00  0.00    -0.298 NA
ATOM     41  C   LIG    1        9.503   3.902  -6.295  0.00  0.00    +0.105 C 
ATOM     42  C   LIG    1        9.212   1.545  -6.629  0.00  0.00    +0.105 C 
ENDBRANCH  11  40
BRANCH   8  43
ATOM     43  O   LIG    1        8.834  -2.429  -3.033  0.00  0.00    -0.507 OA
ATOM     44  H   LIG    1        8.191  -3.015  -2.574  0.00  0.00    +0.292 HD
ENDBRANCH   8  43
BRANCH   9  45
ATOM     45  O   LIG    1        9.760  -0.617  -4.715  0.00  0.00    -0.373 OA
ATOM     46  H   LIG    1        9.866  -1.575  -4.540  0.00  0.00    +0.211 HD
ENDBRANCH   9  45
BRANCH  12  47
ATOM     47  O   LIG    1       11.555   3.484  -4.472  0.00  0.00    -0.509 OA
ATOM     48  H   LIG    1       12.518   3.273  -4.508  0.00  0.00    +0.292 HD
ENDBRANCH  12  47
BRANCH  18  49
ATOM     49  O   LIG    1        4.260  -3.052   0.055  0.00  0.00    -0.504 OA
ATOM     50  H   LIG    1        4.892  -3.354  -0.635  0.00  0.00    +0.292 HD
ENDBRANCH  18  49
TORSDOF 11
