REMARK  Name = *****
REMARK                            x       y       z     vdW  Elec       q    Type
REMARK                         _______ _______ _______ _____ _____    ______ ____
ROOT
ATOM      1  C   UNK A  0       10.290  -0.626  -0.340  0.00  0.00    +0.028 A 
ATOM      2  C   UNK A  0       11.041  -1.789  -0.114  0.00  0.00    +0.024 A 
ATOM      3  C   UNK A  0       12.436  -1.802  -0.267  0.00  0.00    +0.015 A 
ATOM      4  C   UNK A  0       13.106  -0.630  -0.624  0.00  0.00    +0.037 A 
ATOM      5  C   UNK A  0       12.368   0.523  -0.893  0.00  0.00    +0.015 A 
ATOM      6  C   UNK A  0       10.983   0.524  -0.734  0.00  0.00    +0.024 A 
ENDROOT
BRANCH   4   7
ATOM      7  C   UNK A  0       14.585  -0.512  -0.593  0.00  0.00    +0.245 C 
ATOM      8  N   GLU A  1       15.331  -1.651  -0.803  0.00  0.00    -0.298 N 
ATOM      9  H   GLU A  1       14.872  -2.509  -1.091  0.00  0.00    +0.150 HD
ATOM     10  O   UNK A  0       15.111   0.582  -0.410  0.00  0.00    -0.270 OA
BRANCH   8  11
ATOM     11  CA  GLU A  1       16.792  -1.644  -0.643  0.00  0.00    +0.182 C 
BRANCH  11  12
ATOM     12  C   GLU A  1       17.523  -1.657  -2.009  0.00  0.00    +0.325 C 
ATOM     13  O   GLU A  1       18.578  -2.234  -2.228  0.00  0.00    -0.249 OA
BRANCH  12  14
ATOM     14  OXT GLU A  1       16.956  -0.846  -2.938  0.00  0.00    -0.479 OA
ATOM     15  HXT GLU A  1       16.232  -0.308  -2.556  0.00  0.00    +0.295 HD
ENDBRANCH  12  14
ENDBRANCH  11  12
BRANCH  11  16
ATOM     16  CB  GLU A  1       17.284  -2.776   0.274  0.00  0.00    +0.045 C 
BRANCH  16  17
ATOM     17  CG  GLU A  1       16.799  -2.739   1.728  0.00  0.00    +0.123 C 
BRANCH  17  18
ATOM     18  CD  GLU A  1       17.152  -1.501   2.498  0.00  0.00    +0.305 C 
ATOM     19  OE1 GLU A  1       18.200  -1.295   3.122  0.00  0.00    -0.251 OA
BRANCH  18  20
ATOM     20  OE2 GLU A  1       16.172  -0.584   2.475  0.00  0.00    -0.481 OA
ATOM     21  HE2 GLU A  1       16.518   0.183   2.981  0.00  0.00    +0.295 HD
ENDBRANCH  18  20
ENDBRANCH  17  18
ENDBRANCH  16  17
ENDBRANCH  11  16
ENDBRANCH   8  11
ENDBRANCH   4   7
BRANCH   1  22
ATOM     22  N   UNK A  0        8.937  -0.610   0.004  0.00  0.00    -0.338 N 
ATOM     23  H   UNK A  0        8.511  -1.538   0.003  0.00  0.00    +0.146 HD
BRANCH  22  24
ATOM     24  C   UNK A  0        8.034   0.373  -0.595  0.00  0.00    +0.158 C 
BRANCH  24  30
ATOM     25  C   UNK A  0        5.613  -2.386  -5.755  0.00  0.00    +0.218 A 
ATOM     26  N   UNK A  0        6.385  -1.312  -5.638  0.00  0.00    -0.193 NA
ATOM     27  C   UNK A  0        6.748  -0.931  -4.417  0.00  0.00    +0.187 A 
ATOM     28  C   UNK A  0        6.376  -1.610  -3.252  0.00  0.00    +0.170 A 
ATOM     29  N   UNK A  0        6.774  -1.212  -2.002  0.00  0.00    -0.240 NA
ATOM     30  C   UNK A  0        7.540  -0.098  -1.940  0.00  0.00    +0.077 A 
ATOM     31  C   UNK A  0        7.881   0.580  -3.095  0.00  0.00    +0.138 A 
ATOM     32  C   UNK A  0        5.553  -2.686  -3.527  0.00  0.00    +0.245 A 
ATOM     33  N   UNK A  0        7.496   0.173  -4.326  0.00  0.00    -0.232 NA
ATOM     34  N   UNK A  0        5.141  -3.095  -4.736  0.00  0.00    -0.178 NA
BRANCH  25  35
ATOM     35  N   UNK A  0        5.242  -2.756  -7.028  0.00  0.00    -0.327 N 
ATOM     36  H   UNK A  0        5.370  -1.981  -7.666  0.00  0.00    +0.145 HD
ATOM     37  H   UNK A  0        4.340  -3.209  -7.030  0.00  0.00    +0.145 HD
ENDBRANCH  25  35
BRANCH  32  38
ATOM     38  O   UNK A  0        5.037  -3.447  -2.516  0.00  0.00    -0.491 OA
ATOM     39  H   UNK A  0        4.482  -4.072  -3.014  0.00  0.00    +0.294 HD
ENDBRANCH  32  38
ENDBRANCH  24  30
ENDBRANCH  22  24
ENDBRANCH   1  22
TORSDOF 13
