REMARK  Name = *****
REMARK                            x       y       z     vdW  Elec       q    Type
REMARK                         _______ _______ _______ _____ _____    ______ ____
ROOT
ATOM      1  C   LIG    1        1.047   0.095   0.071  0.00  0.00    +0.121 C 
ATOM      2  S   LIG    1        2.843  -0.119   0.034  0.00  0.00    +0.016 S 
ATOM      3  O   LIG    1        3.256  -0.692   1.357  0.00  0.00    -0.258 OA
ATOM      4  C   LIG    1        3.240   1.646   0.057  0.00  0.00    +0.121 C 
ENDROOT
TORSDOF 0
