REMARK  Name = *****
REMARK                            x       y       z     vdW  Elec       q    Type
REMARK                         _______ _______ _______ _____ _____    ______ ____
ROOT
ATOM      1  C   LIG    1        3.010  -6.820   0.603  0.00  0.00    +0.215 C 
ATOM      2  C   LIG    1        3.331  -7.673   1.829  0.00  0.00    +0.074 C 
ATOM      3  C   LIG    1        1.505  -6.576   0.494  0.00  0.00    +0.271 C 
ATOM      4  O   LIG    1        0.787  -6.069   1.348  0.00  0.00    -0.270 OA
ATOM      5  N   LIG    1        1.127  -7.012  -0.758  0.00  0.00    -0.233 N 
ATOM      6  C   LIG    1        2.171  -7.833  -1.291  0.00  0.00    +0.269 C 
ATOM      7  C   LIG    1        1.808  -9.326  -1.109  0.00  0.00    +0.156 C 
ATOM      8  N   LIG    1        0.399  -9.645  -1.291  0.00  0.00    -0.290 N 
ATOM      9  C   LIG    1       -0.623  -8.785  -0.951  0.00  0.00    +0.237 C 
ATOM     10  O   LIG    1       -1.762  -9.196  -0.739  0.00  0.00    -0.274 OA
ATOM     11  C   LIG    1        0.209 -11.046  -1.598  0.00  0.00    +0.108 C 
ATOM     12  C   LIG    1        1.626 -11.593  -1.776  0.00  0.00    +0.021 C 
ATOM     13  C   LIG    1        2.490 -10.347  -2.008  0.00  0.00    +0.031 C 
ATOM     14  C   LIG    1       -0.288  -7.277  -1.111  0.00  0.00    +0.171 C 
ATOM     15  O   LIG    1        3.365  -7.571  -0.555  0.00  0.00    -0.299 OA
ENDROOT
BRANCH   1  17
ATOM     16  C   LIG    1        3.958  -4.761  -0.442  0.00  0.00    +0.224 C 
ATOM     17  N   LIG    1        3.781  -5.590   0.644  0.00  0.00    -0.280 N 
ATOM     18  H   LIG    1        3.931  -5.196   1.563  0.00  0.00    +0.152 HD
ATOM     19  O   LIG    1        3.486  -5.008  -1.553  0.00  0.00    -0.275 OA
BRANCH  16  35
ATOM     20  C   LIG    1        5.667  -0.655   0.478  0.00  0.00    +0.105 C 
ATOM     21  N   LIG    1        5.188  -1.629   1.464  0.00  0.00    -0.297 NA
ATOM     22  C   LIG    1        6.286  -2.390   2.130  0.00  0.00    +0.091 C 
ATOM     23  C   LIG    1        6.922  -3.485   1.216  0.00  0.00    -0.025 C 
ATOM     24  C   LIG    1        8.238  -4.042   1.625  0.00  0.00    -0.011 C 
ATOM     25  C   LIG    1        8.841  -3.395   2.714  0.00  0.00    +0.010 C 
ATOM     26  C   LIG    1       10.011  -3.865   3.291  0.00  0.00    +0.047 C 
ATOM     27  N   LIG    1       10.284  -3.029   4.353  0.00  0.00    -0.360 NA
ATOM     28  H   LIG    1       11.072  -3.132   4.977  0.00  0.00    +0.165 HD
ATOM     29  C   LIG    1        9.345  -2.023   4.424  0.00  0.00    +0.087 C 
ATOM     30  C   LIG    1       10.677  -4.984   2.790  0.00  0.00    +0.026 C 
ATOM     31  C   LIG    1       10.107  -5.612   1.674  0.00  0.00    +0.003 C 
ATOM     32  C   LIG    1        8.450  -2.223   3.399  0.00  0.00    -0.020 C 
ATOM     33  C   LIG    1        8.908  -5.159   1.105  0.00  0.00    +0.009 C 
ATOM     34  C   LIG    1        6.254  -3.961   0.144  0.00  0.00    -0.007 C 
ATOM     35  C   LIG    1        4.845  -3.521  -0.200  0.00  0.00    +0.112 C 
ATOM     36  C   LIG    1        7.278  -1.450   2.908  0.00  0.00    +0.060 C 
ATOM     37  C   LIG    1        4.233  -2.580   0.859  0.00  0.00    +0.101 C 
ENDBRANCH  16  35
ENDBRANCH   1  17
BRANCH   6  38
ATOM     38  O   LIG    1        2.388  -7.464  -2.625  0.00  0.00    -0.348 OA
ATOM     39  H   LIG    1        2.679  -6.532  -2.541  0.00  0.00    +0.214 HD
ENDBRANCH   6  38
BRANCH  14  40
ATOM     40  C   LIG    1       -0.601  -6.825  -2.558  0.00  0.00    +0.067 C 
BRANCH  40  41
ATOM     41  C   LIG    1       -2.049  -6.954  -2.985  0.00  0.00    -0.045 A 
ATOM     42  C   LIG    1       -2.954  -5.904  -2.791  0.00  0.00    +0.003 A 
ATOM     43  C   LIG    1       -4.287  -6.035  -3.190  0.00  0.00    +0.000 A 
ATOM     44  C   LIG    1       -4.732  -7.218  -3.778  0.00  0.00    +0.000 A 
ATOM     45  C   LIG    1       -3.843  -8.271  -3.974  0.00  0.00    +0.000 A 
ATOM     46  C   LIG    1       -2.509  -8.137  -3.586  0.00  0.00    +0.003 A 
ENDBRANCH  40  41
ENDBRANCH  14  40
TORSDOF 5
