REMARK  Name = *****
REMARK                            x       y       z     vdW  Elec       q    Type
REMARK                         _______ _______ _______ _____ _____    ______ ____
ROOT
ATOM      1  C   LIG    1        1.137  -0.064  -7.482  0.00  0.00    +0.014 C 
ATOM      2  C   LIG    1        1.229   1.192  -6.607  0.00  0.00    +0.037 C 
ATOM      3  C   LIG    1        2.684   1.719  -6.397  0.00  0.00    +0.127 C 
ATOM      4  C   LIG    1        3.559   1.080  -5.279  0.00  0.00    +0.056 C 
ATOM      5  C   LIG    1        4.004  -0.362  -5.559  0.00  0.00    +0.014 C 
ATOM      6  C   LIG    1        3.016   1.219  -3.826  0.00  0.00    +0.179 C 
ATOM      7  C   LIG    1        2.448   2.599  -3.508  0.00  0.00    +0.052 C 
ATOM      8  O   LIG    1        2.209   0.065  -3.483  0.00  0.00    -0.461 OA
ATOM      9  C   LIG    1        1.002   0.105  -2.868  0.00  0.00    +0.310 C 
ATOM     10  O   LIG    1        0.297   1.080  -2.738  0.00  0.00    -0.251 OA
ATOM     11  C   LIG    1        0.564  -1.286  -2.463  0.00  0.00    +0.152 C 
ATOM     12  C   LIG    1        1.404  -2.004  -1.408  0.00  0.00    +0.128 C 
ATOM     13  C   LIG    1        1.170  -1.621   0.064  0.00  0.00    +0.063 C 
ATOM     14  C   LIG    1        1.593  -0.222   0.542  0.00  0.00    +0.119 C 
ATOM     15  C   LIG    1        0.412   0.756   0.612  0.00  0.00    +0.062 C 
ATOM     16  C   LIG    1        0.746   2.085   1.309  0.00  0.00    +0.117 C 
ATOM     17  C   LIG    1       -0.346   3.148   1.093  0.00  0.00    +0.034 C 
ATOM     18  C   LIG    1       -0.346   3.801  -0.307  0.00  0.00    +0.036 C 
ATOM     19  C   LIG    1       -1.704   3.682  -1.015  0.00  0.00    +0.143 C 
ATOM     20  C   LIG    1       -1.772   4.492  -2.337  0.00  0.00    +0.150 C 
ATOM     21  C   LIG    1       -3.143   4.345  -3.018  0.00  0.00    +0.108 C 
ATOM     22  C   LIG    1       -3.045   4.283  -4.530  0.00  0.00    +0.138 C 
ATOM     23  O   LIG    1       -2.373   5.105  -5.159  0.00  0.00    -0.297 OA
ATOM     24  C   LIG    1       -3.717   3.118  -5.221  0.00  0.00    +0.106 C 
ATOM     25  C   LIG    1       -2.846   1.857  -5.244  0.00  0.00    +0.138 C 
ATOM     26  C   LIG    1       -3.617   0.512  -5.227  0.00  0.00    +0.155 C 
ATOM     27  C   LIG    1       -4.300   0.158  -3.877  0.00  0.00    +0.134 C 
ATOM     28  C   LIG    1       -4.869  -1.281  -3.732  0.00  0.00    +0.068 C 
ATOM     29  C   LIG    1       -6.250  -1.625  -4.356  0.00  0.00    +0.147 C 
ATOM     30  C   LIG    1       -6.216  -1.377  -5.857  0.00  0.00    +0.004 C 
ATOM     31  C   LIG    1       -6.858  -0.398  -6.515  0.00  0.00    -0.002 C 
ATOM     32  C   LIG    1       -6.642  -0.058  -7.908  0.00  0.00    -0.000 C 
ATOM     33  C   LIG    1       -7.470   0.766  -8.572  0.00  0.00    +0.000 C 
ATOM     34  C   LIG    1       -7.015   1.480  -9.744  0.00  0.00    +0.000 C 
ATOM     35  C   LIG    1       -6.434   2.672  -9.542  0.00  0.00    -0.000 C 
ATOM     36  C   LIG    1       -5.612   3.346 -10.509  0.00  0.00    -0.004 C 
ATOM     37  C   LIG    1       -4.830   4.368 -10.132  0.00  0.00    -0.026 C 
ATOM     38  C   LIG    1       -3.729   4.915 -10.987  0.00  0.00    +0.031 C 
ATOM     39  C   LIG    1       -2.408   5.046 -10.210  0.00  0.00    +0.031 C 
ATOM     40  C   LIG    1       -1.766   3.744  -9.789  0.00  0.00    -0.026 C 
ATOM     41  C   LIG    1       -1.125   3.593  -8.617  0.00  0.00    -0.005 C 
ATOM     42  C   LIG    1       -0.377   2.406  -8.249  0.00  0.00    -0.004 C 
ATOM     43  C   LIG    1        0.351   2.339  -7.119  0.00  0.00    -0.021 C 
ENDROOT
BRANCH   3  44
ATOM     44  O   LIG    1        3.421   1.714  -7.629  0.00  0.00    -0.391 OA
ATOM     45  H   LIG    1        3.490   0.798  -7.946  0.00  0.00    +0.210 HD
ENDBRANCH   3  44
BRANCH  12  46
ATOM     46  O   LIG    1        2.794  -1.984  -1.713  0.00  0.00    -0.391 OA
ATOM     47  H   LIG    1        3.122  -1.109  -1.407  0.00  0.00    +0.210 HD
ENDBRANCH  12  46
BRANCH  14  48
ATOM     48  O   LIG    1        2.628   0.287  -0.298  0.00  0.00    -0.392 OA
ATOM     49  H   LIG    1        2.730   1.231  -0.034  0.00  0.00    +0.210 HD
ENDBRANCH  14  48
BRANCH  16  50
ATOM     50  O   LIG    1        2.014   2.579   0.872  0.00  0.00    -0.392 OA
ATOM     51  H   LIG    1        2.155   3.435   1.315  0.00  0.00    +0.210 HD
ENDBRANCH  16  50
BRANCH  19  52
ATOM     52  O   LIG    1       -1.946   2.295  -1.275  0.00  0.00    -0.389 OA
ATOM     53  H   LIG    1       -1.291   2.028  -1.962  0.00  0.00    +0.210 HD
ENDBRANCH  19  52
BRANCH  20  54
ATOM     54  O   LIG    1       -0.720   4.061  -3.213  0.00  0.00    -0.389 OA
ATOM     55  H   LIG    1       -0.642   4.756  -3.902  0.00  0.00    +0.210 HD
ENDBRANCH  20  54
BRANCH  25  56
ATOM     56  O   LIG    1       -1.898   1.789  -4.174  0.00  0.00    -0.391 OA
ATOM     57  H   LIG    1       -1.289   2.563  -4.197  0.00  0.00    +0.210 HD
ENDBRANCH  25  56
BRANCH  26  58
ATOM     58  C   LIG    1       -2.658  -0.607  -5.609  0.00  0.00    +0.313 C 
ATOM     59  O   LIG    1       -2.975  -1.558  -6.311  0.00  0.00    -0.251 OA
BRANCH  58  60
ATOM     60  O   LIG    1       -1.436  -0.537  -5.030  0.00  0.00    -0.480 OA
ATOM     61  H   LIG    1       -1.332   0.293  -4.496  0.00  0.00    +0.295 HD
ENDBRANCH  58  60
ENDBRANCH  26  58
BRANCH  27  62
ATOM     62  O   LIG    1       -5.277   1.148  -3.556  0.00  0.00    -0.391 OA
ATOM     63  H   LIG    1       -6.085   0.730  -3.204  0.00  0.00    +0.210 HD
ENDBRANCH  27  62
BRANCH  29  64
ATOM     64  O   LIG    1       -7.346  -0.916  -3.739  0.00  0.00    -0.341 OA
BRANCH  64  65
ATOM     65  C   LIG    1       -7.582  -1.232  -2.349  0.00  0.00    +0.281 C 
ATOM     66  C   LIG    1       -8.350  -0.094  -1.645  0.00  0.00    +0.189 C 
ATOM     67  C   LIG    1       -9.849  -0.139  -1.974  0.00  0.00    +0.116 C 
ATOM     68  C   LIG    1      -10.367  -1.492  -1.466  0.00  0.00    +0.162 C 
ATOM     69  C   LIG    1       -9.543  -2.692  -1.986  0.00  0.00    +0.148 C 
ATOM     70  C   LIG    1      -10.134  -3.261  -3.268  0.00  0.00    +0.040 C 
ATOM     71  O   LIG    1       -8.124  -2.525  -2.129  0.00  0.00    -0.343 OA
BRANCH  67  72
ATOM     72  N   LIG    1      -10.155   0.120  -3.393  0.00  0.00    -0.323 NA
ATOM     73  H   LIG    1       -9.837   1.071  -3.600  0.00  0.00    +0.119 HD
ATOM     74  H   LIG    1       -9.525  -0.448  -3.973  0.00  0.00    +0.119 HD
ENDBRANCH  67  72
BRANCH  66  75
ATOM     75  O   LIG    1       -7.797   1.196  -1.939  0.00  0.00    -0.385 OA
ATOM     76  H   LIG    1       -7.076   1.348  -1.300  0.00  0.00    +0.210 HD
ENDBRANCH  66  75
BRANCH  68  77
ATOM     77  O   LIG    1      -10.302  -1.489  -0.024  0.00  0.00    -0.388 OA
ATOM     78  H   LIG    1      -11.020  -0.911   0.292  0.00  0.00    +0.210 HD
ENDBRANCH  68  77
ENDBRANCH  64  65
ENDBRANCH  29  64
TORSDOF 15
