REMARK  Name = *****
REMARK                            x       y       z     vdW  Elec       q    Type
REMARK                         _______ _______ _______ _____ _____    ______ ____
ROOT
ATOM      1  C   LIG    1        9.141  18.045 -11.537  0.00  0.00    +0.186 C 
ATOM      2  O   LIG    1        9.223  18.048 -13.001  0.00  0.00    -0.459 OA
ATOM      3  C   LIG    1       10.072  18.958 -13.557  0.00  0.00    +0.328 C 
ATOM      4  O   LIG    1       10.736  19.778 -12.887  0.00  0.00    -0.249 OA
ATOM      5  C   LIG    1       10.283  18.861 -15.098  0.00  0.00    +0.185 C 
ATOM      6  N   LIG    1        9.467  17.859 -15.826  0.00  0.00    -0.281 N 
ATOM      7  C   LIG    1       10.009  17.245 -17.045  0.00  0.00    +0.109 C 
ATOM      8  C   LIG    1       11.511  17.039 -17.093  0.00  0.00    +0.019 C 
ATOM      9  C   LIG    1       12.217  18.319 -16.697  0.00  0.00    +0.004 C 
ATOM     10  C   LIG    1        8.076  18.078 -15.992  0.00  0.00    +0.288 C 
ATOM     11  O   LIG    1        7.307  17.210 -16.451  0.00  0.00    -0.267 OA
ATOM     12  C   LIG    1        7.556  19.502 -15.926  0.00  0.00    +0.276 C 
ATOM     13  O   LIG    1        7.979  20.309 -16.766  0.00  0.00    -0.281 OA
ATOM     14  C   LIG    1        6.525  19.819 -14.850  0.00  0.00    +0.240 C 
ATOM     15  O   LIG    1        7.028  21.015 -14.225  0.00  0.00    -0.339 OA
ATOM     16  C   LIG    1        6.108  22.084 -14.059  0.00  0.00    +0.125 C 
ATOM     17  C   LIG    1        4.785  21.610 -13.472  0.00  0.00    +0.032 C 
ATOM     18  C   LIG    1        4.162  20.488 -14.309  0.00  0.00    +0.011 C 
ATOM     19  C   LIG    1        6.714  23.295 -13.315  0.00  0.00    +0.067 C 
ATOM     20  C   LIG    1        7.612  23.164 -12.038  0.00  0.00    +0.146 C 
ATOM     21  C   LIG    1        6.880  22.906 -10.710  0.00  0.00    -0.044 C 
ATOM     22  C   LIG    1        5.635  23.759 -10.539  0.00  0.00    +0.041 C 
ATOM     23  C   LIG    1        7.190  22.123  -9.650  0.00  0.00    +0.001 C 
ATOM     24  C   LIG    1        8.339  21.293  -9.321  0.00  0.00    +0.000 C 
ATOM     25  C   LIG    1        8.226  20.373  -8.344  0.00  0.00    -0.000 C 
ATOM     26  C   LIG    1        9.278  19.595  -7.720  0.00  0.00    -0.004 C 
ATOM     27  C   LIG    1        8.976  18.561  -6.914  0.00  0.00    -0.024 C 
ATOM     28  C   LIG    1        9.865  18.004  -5.839  0.00  0.00    +0.009 C 
ATOM     29  C   LIG    1        9.877  16.468  -5.819  0.00  0.00    +0.012 C 
ATOM     30  C   LIG    1        9.492  18.559  -4.431  0.00  0.00    +0.018 C 
ATOM     31  C   LIG    1        8.397  19.651  -4.320  0.00  0.00    +0.056 C 
ATOM     32  C   LIG    1        8.413  20.340  -2.939  0.00  0.00    +0.015 C 
ATOM     33  C   LIG    1        6.931  19.394  -4.749  0.00  0.00    +0.167 C 
ATOM     34  O   LIG    1        6.258  20.383  -5.084  0.00  0.00    -0.294 OA
ATOM     35  C   LIG    1        6.208  18.036  -4.604  0.00  0.00    +0.216 C 
ATOM     36  C   LIG    1        5.551  17.489  -5.955  0.00  0.00    +0.176 C 
ATOM     37  C   LIG    1        5.204  18.339  -7.213  0.00  0.00    -0.045 C 
ATOM     38  C   LIG    1        4.147  19.385  -6.988  0.00  0.00    +0.041 C 
ATOM     39  C   LIG    1        5.705  18.043  -8.445  0.00  0.00    -0.015 C 
ATOM     40  C   LIG    1        5.420  18.457  -9.896  0.00  0.00    +0.075 C 
ATOM     41  C   LIG    1        4.300  19.472 -10.108  0.00  0.00    +0.019 C 
ATOM     42  C   LIG    1        6.665  18.831 -10.799  0.00  0.00    +0.143 C 
ATOM     43  O   LIG    1        6.684  19.842 -11.493  0.00  0.00    -0.297 OA
ATOM     44  C   LIG    1        5.100  19.974 -15.417  0.00  0.00    +0.054 C 
ATOM     45  C   LIG    1        4.521  18.684 -16.006  0.00  0.00    +0.013 C 
ATOM     46  C   LIG    1       11.812  18.654 -15.275  0.00  0.00    +0.034 C 
ATOM     47  C   LIG    1        7.710  17.752 -11.029  0.00  0.00    +0.119 C 
ENDROOT
BRANCH   1  48
ATOM     48  C   LIG    1       10.172  16.987 -10.940  0.00  0.00    +0.027 C 
ATOM     49  C   LIG    1       11.622  17.279 -11.377  0.00  0.00    +0.011 C 
BRANCH  48  50
ATOM     50  C   LIG    1        9.950  15.466 -11.227  0.00  0.00    +0.010 C 
BRANCH  50  55
ATOM     51  C   LIG    1        7.290  12.605 -10.636  0.00  0.00    +0.147 C 
ATOM     52  C   LIG    1        6.137  13.618 -10.437  0.00  0.00    +0.147 C 
ATOM     53  C   LIG    1        6.590  14.693  -9.423  0.00  0.00    +0.034 C 
ATOM     54  C   LIG    1        8.112  14.954  -9.444  0.00  0.00    +0.006 C 
ATOM     55  C   LIG    1        8.602  14.819 -10.886  0.00  0.00    -0.008 C 
ATOM     56  C   LIG    1        8.538  13.313 -11.245  0.00  0.00    +0.037 C 
BRANCH  51  58
ATOM     57  C   LIG    1        6.588  11.254  -8.785  0.00  0.00    +0.194 C 
ATOM     58  O   LIG    1        7.658  11.979  -9.388  0.00  0.00    -0.377 OA
ENDBRANCH  51  58
BRANCH  52  59
ATOM     59  O   LIG    1        5.757  14.289 -11.653  0.00  0.00    -0.372 OA
BRANCH  59  60
ATOM     60  C   LIG    1        5.130  13.453 -12.622  0.00  0.00    +0.188 C 
BRANCH  60  61
ATOM     61  C   LIG    1        4.810  14.277 -13.868  0.00  0.00    +0.184 C 
BRANCH  61  62
ATOM     62  O   LIG    1        4.245  13.443 -14.874  0.00  0.00    -0.393 OA
ATOM     63  H   LIG    1        4.676  13.687 -15.713  0.00  0.00    +0.209 HD
ENDBRANCH  61  62
ENDBRANCH  60  61
ENDBRANCH  59  60
ENDBRANCH  52  59
ENDBRANCH  50  55
ENDBRANCH  48  50
ENDBRANCH   1  48
BRANCH  20  64
ATOM     64  O   LIG    1        8.749  22.323 -12.219  0.00  0.00    -0.375 OA
ATOM     65  C   LIG    1        9.567  22.686 -13.329  0.00  0.00    +0.194 C 
ENDBRANCH  20  64
BRANCH  35  66
ATOM     66  O   LIG    1        6.937  16.933  -4.043  0.00  0.00    -0.369 OA
ATOM     67  C   LIG    1        7.149  16.980  -2.640  0.00  0.00    +0.195 C 
ENDBRANCH  35  66
BRANCH  36  68
ATOM     68  O   LIG    1        6.319  16.340  -6.386  0.00  0.00    -0.385 OA
ATOM     69  H   LIG    1        6.746  16.001  -5.573  0.00  0.00    +0.210 HD
ENDBRANCH  36  68
BRANCH  14  70
ATOM     70  O   LIG    1        6.505  18.845 -13.838  0.00  0.00    -0.358 OA
ATOM     71  H   LIG    1        6.778  19.384 -13.062  0.00  0.00    +0.213 HD
ENDBRANCH  14  70
TORSDOF 12
