REMARK  Name = *****
REMARK                            x       y       z     vdW  Elec       q    Type
REMARK                         _______ _______ _______ _____ _____    ______ ____
ROOT
ATOM      1  C   LIG    1        4.770  -2.904   0.045  0.00  0.00    +0.065 C 
ATOM      2  C   LIG    1        3.768  -4.053   0.138  0.00  0.00    +0.096 C 
ATOM      3  C   LIG    1        4.432  -5.433   0.184  0.00  0.00    +0.065 C 
ATOM      4  C   LIG    1        5.719  -5.576  -0.218  0.00  0.00    +0.016 C 
ATOM      5  C   LIG    1        6.454  -6.891  -0.273  0.00  0.00    +0.061 C 
ATOM      6  N   LIG    1        6.453  -4.454  -0.585  0.00  0.00    -0.321 N 
ATOM      7  H   LIG    1        7.452  -4.596  -0.724  0.00  0.00    +0.152 HD
ATOM      8  C   LIG    1        6.053  -3.149  -0.316  0.00  0.00    +0.016 C 
ATOM      9  C   LIG    1        7.126  -2.092  -0.420  0.00  0.00    +0.061 C 
ENDROOT
BRANCH   2  10
ATOM     10  C   LIG    1        2.706  -3.974  -0.976  0.00  0.00    -0.029 A 
ATOM     11  C   LIG    1        1.361  -3.724  -0.649  0.00  0.00    +0.088 A 
ATOM     12  C   LIG    1        0.381  -3.680  -1.651  0.00  0.00    +0.273 A 
ATOM     13  C   LIG    1        0.728  -3.842  -2.996  0.00  0.00    +0.084 A 
ATOM     14  C   LIG    1        2.062  -4.072  -3.331  0.00  0.00    +0.007 A 
ATOM     15  C   LIG    1        3.039  -4.149  -2.331  0.00  0.00    +0.005 A 
BRANCH  12  16
ATOM     16  N   LIG    1       -1.026  -3.491  -1.280  0.00  0.00    +0.080 N 
ATOM     17  O   LIG    1       -1.291  -3.351  -0.076  0.00  0.00    -0.576 OA
ATOM     18  O   LIG    1       -1.870  -3.496  -2.188  0.00  0.00    +0.041 OA
ENDBRANCH  12  16
ENDBRANCH   2  10
BRANCH   1  19
ATOM     19  C   LIG    1        4.300  -1.548   0.438  0.00  0.00    +0.338 C 
ATOM     20  O   LIG    1        4.992  -0.537   0.412  0.00  0.00    -0.245 OA
BRANCH  19  21
ATOM     21  O   LIG    1        3.010  -1.588   0.848  0.00  0.00    -0.462 OA
BRANCH  21  23
ATOM     22  C   LIG    1        1.229  -0.044   0.380  0.00  0.00    +0.048 C 
ATOM     23  C   LIG    1        2.421  -0.351   1.265  0.00  0.00    +0.229 C 
ENDBRANCH  21  23
ENDBRANCH  19  21
ENDBRANCH   1  19
BRANCH   3  24
ATOM     24  C   LIG    1        3.647  -6.555   0.789  0.00  0.00    +0.337 C 
ATOM     25  O   LIG    1        4.036  -7.706   0.925  0.00  0.00    -0.245 OA
BRANCH  24  26
ATOM     26  O   LIG    1        2.469  -6.067   1.246  0.00  0.00    -0.465 OA
ATOM     27  C   LIG    1        1.616  -6.943   1.985  0.00  0.00    +0.280 C 
ENDBRANCH  24  26
ENDBRANCH   3  24
TORSDOF 7
