REMARK  Name = *****
REMARK                            x       y       z     vdW  Elec       q    Type
REMARK                         _______ _______ _______ _____ _____    ______ ____
ROOT
ATOM      1  C   LIG    1       15.178  11.115   4.447  0.00  0.00    +0.048 C 
ATOM      2  C   LIG    1       15.213  11.029   2.937  0.00  0.00    -0.002 A 
ATOM      3  C   LIG    1       14.985  12.139   2.138  0.00  0.00    +0.123 A 
ATOM      4  C   LIG    1       15.091  12.114   0.732  0.00  0.00    -0.002 A 
ATOM      5  C   LIG    1       14.911  13.363  -0.085  0.00  0.00    +0.048 C 
ATOM      6  C   LIG    1       15.443  10.873   0.121  0.00  0.00    +0.001 A 
ATOM      7  C   LIG    1       15.742  10.791  -1.360  0.00  0.00    +0.043 C 
ATOM      8  C   LIG    1       16.239   9.394  -1.771  0.00  0.00    +0.052 C 
ATOM      9  C   LIG    1       15.442   8.304  -1.047  0.00  0.00    +0.108 C 
ATOM     10  O   LIG    1       15.641   8.456   0.369  0.00  0.00    -0.485 OA
ATOM     11  C   LIG    1       13.933   8.424  -1.412  0.00  0.00    +0.056 C 
ATOM     12  C   LIG    1       15.520   9.723   0.904  0.00  0.00    +0.128 A 
ATOM     13  C   LIG    1       15.476   9.779   2.314  0.00  0.00    -0.002 A 
ATOM     14  C   LIG    1       15.693   8.546   3.146  0.00  0.00    +0.048 C 
ENDROOT
BRANCH   3  15
ATOM     15  O   LIG    1       14.633  13.323   2.763  0.00  0.00    -0.506 OA
ATOM     16  H   LIG    1       13.871  13.674   2.306  0.00  0.00    +0.292 HD
ENDBRANCH   3  15
BRANCH   9  17
ATOM     17  C   LIG    1       15.843   6.825  -1.389  0.00  0.00    +0.048 C 
BRANCH  17  18
ATOM     18  C   LIG    1       17.253   6.233  -1.054  0.00  0.00    +0.004 C 
BRANCH  18  19
ATOM     19  C   LIG    1       18.419   6.738  -1.942  0.00  0.00    +0.003 C 
BRANCH  19  20
ATOM     20  C   LIG    1       19.886   6.192  -1.791  0.00  0.00    -0.014 C 
ATOM     21  C   LIG    1       20.865   7.115  -2.591  0.00  0.00    +0.007 C 
BRANCH  20  22
ATOM     22  C   LIG    1       20.198   4.755  -2.297  0.00  0.00    +0.003 C 
BRANCH  22  23
ATOM     23  C   LIG    1       19.411   3.588  -1.698  0.00  0.00    +0.000 C 
BRANCH  23  24
ATOM     24  C   LIG    1       19.827   2.230  -2.305  0.00  0.00    +0.003 C 
BRANCH  24  25
ATOM     25  C   LIG    1       19.038   1.004  -1.762  0.00  0.00    -0.014 C 
ATOM     26  C   LIG    1       19.630  -0.297  -2.332  0.00  0.00    +0.007 C 
BRANCH  25  27
ATOM     27  C   LIG    1       17.486   1.016  -1.995  0.00  0.00    +0.003 C 
BRANCH  27  28
ATOM     28  C   LIG    1       17.076   0.941  -3.480  0.00  0.00    +0.000 C 
BRANCH  28  29
ATOM     29  C   LIG    1       15.580   0.969  -3.871  0.00  0.00    +0.003 C 
BRANCH  29  30
ATOM     30  C   LIG    1       14.654  -0.220  -3.507  0.00  0.00    -0.017 C 
ATOM     31  C   LIG    1       15.188  -1.582  -3.955  0.00  0.00    +0.007 C 
ATOM     32  C   LIG    1       13.240  -0.015  -4.096  0.00  0.00    +0.007 C 
ENDBRANCH  29  30
ENDBRANCH  28  29
ENDBRANCH  27  28
ENDBRANCH  25  27
ENDBRANCH  24  25
ENDBRANCH  23  24
ENDBRANCH  22  23
ENDBRANCH  20  22
ENDBRANCH  19  20
ENDBRANCH  18  19
ENDBRANCH  17  18
ENDBRANCH   9  17
TORSDOF 13
