REMARK  Name = *****
REMARK                            x       y       z     vdW  Elec       q    Type
REMARK                         _______ _______ _______ _____ _____    ______ ____
ROOT
ATOM      1  C   LIG    1        2.461 -12.614   5.770  0.00  0.00    +0.169 C 
ATOM      2  C   LIG    1        2.005 -11.448   6.727  0.00  0.00    +0.084 C 
ATOM      3  C   LIG    1        1.617 -11.958   8.138  0.00  0.00    +0.042 C 
ATOM      4  C   LIG    1        2.202 -13.343   8.410  0.00  0.00    +0.084 C 
ATOM      5  C   LIG    1        1.600 -14.356   7.397  0.00  0.00    +0.163 C 
ATOM      6  C   LIG    1        1.518 -13.836   5.935  0.00  0.00    +0.182 C 
ENDROOT
BRANCH   2   7
ATOM      7  N   LIG    1        0.874 -10.648   6.211  0.00  0.00    -0.325 NA
ATOM      8  H   LIG    1        0.070 -11.275   6.098  0.00  0.00    +0.118 HD
ATOM      9  H   LIG    1        1.082 -10.322   5.269  0.00  0.00    +0.118 HD
ENDBRANCH   2   7
BRANCH   4  10
ATOM     10  N   LIG    1        1.926 -13.776   9.793  0.00  0.00    -0.325 NA
ATOM     11  H   LIG    1        1.030 -14.270   9.818  0.00  0.00    +0.118 HD
ATOM     12  H   LIG    1        2.614 -14.476  10.070  0.00  0.00    +0.118 HD
ENDBRANCH   4  10
BRANCH   5  13
ATOM     13  O   LIG    1        2.287 -15.617   7.444  0.00  0.00    -0.388 OA
ATOM     14  H   LIG    1        3.178 -15.441   7.818  0.00  0.00    +0.210 HD
ENDBRANCH   5  13
BRANCH   6  15
ATOM     15  O   LIG    1        0.204 -13.387   5.567  0.00  0.00    -0.340 OA
BRANCH  15  16
ATOM     16  C   LIG    1       -0.842 -14.346   5.470  0.00  0.00    +0.282 C 
ATOM     17  C   LIG    1       -0.746 -15.405   4.362  0.00  0.00    +0.202 C 
ATOM     18  C   LIG    1       -1.882 -16.324   4.813  0.00  0.00    +0.186 C 
ATOM     19  C   LIG    1       -1.607 -16.380   6.324  0.00  0.00    +0.178 C 
ATOM     20  O   LIG    1       -1.123 -15.054   6.682  0.00  0.00    -0.341 OA
BRANCH  17  21
ATOM     21  O   LIG    1       -0.876 -14.917   3.037  0.00  0.00    -0.384 OA
ATOM     22  H   LIG    1       -1.522 -14.166   3.058  0.00  0.00    +0.210 HD
ENDBRANCH  17  21
BRANCH  19  23
ATOM     23  C   LIG    1       -0.594 -17.446   6.784  0.00  0.00    +0.190 C 
BRANCH  23  24
ATOM     24  O   LIG    1        0.545 -17.544   5.938  0.00  0.00    -0.392 OA
ATOM     25  H   LIG    1        1.334 -17.532   6.515  0.00  0.00    +0.209 HD
ENDBRANCH  23  24
ENDBRANCH  19  23
BRANCH  18  26
ATOM     26  O   LIG    1       -3.171 -15.667   4.689  0.00  0.00    -0.341 OA
BRANCH  26  27
ATOM     27  C   LIG    1       -3.872 -15.895   3.461  0.00  0.00    +0.270 C 
ATOM     28  C   LIG    1       -5.212 -15.091   3.546  0.00  0.00    +0.139 C 
ATOM     29  C   LIG    1       -6.025 -15.315   2.256  0.00  0.00    +0.167 C 
ATOM     30  C   LIG    1       -6.210 -16.823   2.001  0.00  0.00    +0.175 C 
ATOM     31  C   LIG    1       -4.848 -17.556   2.076  0.00  0.00    +0.166 C 
ATOM     32  O   LIG    1       -4.172 -17.277   3.315  0.00  0.00    -0.343 OA
BRANCH  28  33
ATOM     33  N   LIG    1       -6.036 -15.521   4.719  0.00  0.00    -0.321 NA
ATOM     34  H   LIG    1       -6.487 -14.700   5.124  0.00  0.00    +0.119 HD
ATOM     35  H   LIG    1       -5.379 -15.856   5.433  0.00  0.00    +0.119 HD
ENDBRANCH  28  33
BRANCH  30  36
ATOM     36  O   LIG    1       -7.139 -17.359   2.951  0.00  0.00    -0.387 OA
ATOM     37  H   LIG    1       -6.863 -16.997   3.827  0.00  0.00    +0.210 HD
ENDBRANCH  30  36
BRANCH  29  38
ATOM     38  O   LIG    1       -5.368 -14.690   1.150  0.00  0.00    -0.387 OA
ATOM     39  H   LIG    1       -6.020 -14.631   0.429  0.00  0.00    +0.210 HD
ENDBRANCH  29  38
BRANCH  31  40
ATOM     40  C   LIG    1       -5.040 -19.082   1.976  0.00  0.00    +0.112 C 
BRANCH  40  41
ATOM     41  N   LIG    1       -3.764 -19.807   1.919  0.00  0.00    -0.328 NA
ATOM     42  H   LIG    1       -3.947 -20.807   1.871  0.00  0.00    +0.118 HD
ATOM     43  H   LIG    1       -3.250 -19.551   1.078  0.00  0.00    +0.118 HD
ENDBRANCH  40  41
ENDBRANCH  31  40
ENDBRANCH  26  27
ENDBRANCH  18  26
ENDBRANCH  15  16
ENDBRANCH   6  15
BRANCH   1  44
ATOM     44  O   LIG    1        3.848 -12.922   6.058  0.00  0.00    -0.342 OA
BRANCH  44  49
ATOM     45  C   LIG    1        5.158 -12.274   3.572  0.00  0.00    +0.166 C 
ATOM     46  C   LIG    1        6.606 -12.282   4.107  0.00  0.00    +0.175 C 
ATOM     47  C   LIG    1        6.681 -12.840   5.534  0.00  0.00    +0.167 C 
ATOM     48  C   LIG    1        5.938 -14.182   5.572  0.00  0.00    +0.139 C 
ATOM     49  C   LIG    1        4.453 -13.893   5.195  0.00  0.00    +0.270 C 
ATOM     50  O   LIG    1        4.421 -13.481   3.836  0.00  0.00    -0.343 OA
BRANCH  48  51
ATOM     51  N   LIG    1        6.181 -14.921   6.835  0.00  0.00    -0.321 NA
ATOM     52  H   LIG    1        7.195 -15.059   6.905  0.00  0.00    +0.119 HD
ATOM     53  H   LIG    1        5.822 -15.871   6.715  0.00  0.00    +0.119 HD
ENDBRANCH  48  51
BRANCH  47  54
ATOM     54  O   LIG    1        8.065 -13.007   5.897  0.00  0.00    -0.387 OA
ATOM     55  H   LIG    1        8.062 -13.119   6.866  0.00  0.00    +0.210 HD
ENDBRANCH  47  54
BRANCH  46  56
ATOM     56  O   LIG    1        7.155 -10.957   4.088  0.00  0.00    -0.387 OA
ATOM     57  H   LIG    1        8.024 -11.030   4.531  0.00  0.00    +0.210 HD
ENDBRANCH  46  56
BRANCH  45  58
ATOM     58  C   LIG    1        5.104 -12.031   2.045  0.00  0.00    +0.112 C 
BRANCH  58  59
ATOM     59  N   LIG    1        5.647 -13.127   1.228  0.00  0.00    -0.328 NA
ATOM     60  H   LIG    1        6.592 -13.361   1.520  0.00  0.00    +0.118 HD
ATOM     61  H   LIG    1        5.713 -12.820   0.259  0.00  0.00    +0.118 HD
ENDBRANCH  58  59
ENDBRANCH  45  58
ENDBRANCH  44  49
ENDBRANCH   1  44
TORSDOF 22
