REMARK  Name = *****
REMARK                            x       y       z     vdW  Elec       q    Type
REMARK                         _______ _______ _______ _____ _____    ______ ____
ROOT
ATOM      1  C   LIG    1        7.844  -5.087   1.947  0.00  0.00    +0.159 C 
ENDROOT
BRANCH   1   2
ATOM      2  C   LIG    1        7.141  -5.896   0.856  0.00  0.00    -0.031 A 
ATOM      3  C   LIG    1        7.553  -5.842  -0.482  0.00  0.00    +0.004 A 
ATOM      4  C   LIG    1        6.950  -6.639  -1.459  0.00  0.00    +0.000 A 
ATOM      5  C   LIG    1        5.904  -7.490  -1.121  0.00  0.00    +0.000 A 
ATOM      6  C   LIG    1        5.454  -7.538   0.195  0.00  0.00    +0.000 A 
ATOM      7  C   LIG    1        6.063  -6.744   1.177  0.00  0.00    +0.004 A 
ENDBRANCH   1   2
BRANCH   1   8
ATOM      8  C   LIG    1        9.403  -4.950   1.835  0.00  0.00    +0.083 C 
ATOM      9  C   LIG    1       10.057  -4.381   3.106  0.00  0.00    +0.036 C 
ATOM     10  C   LIG    1       11.524  -4.779   2.978  0.00  0.00    +0.003 C 
ATOM     11  C   LIG    1       11.516  -6.127   2.271  0.00  0.00    +0.003 C 
ATOM     12  C   LIG    1       10.117  -6.304   1.673  0.00  0.00    +0.036 C 
BRANCH   8  13
ATOM     13  O   LIG    1        9.822  -4.128   0.735  0.00  0.00    -0.387 OA
ATOM     14  H   LIG    1        9.544  -3.208   0.921  0.00  0.00    +0.210 HD
ENDBRANCH   8  13
ENDBRANCH   1   8
BRANCH   1  15
ATOM     15  C   LIG    1        7.221  -3.703   2.137  0.00  0.00    +0.317 C 
ATOM     16  O   LIG    1        7.594  -2.687   1.579  0.00  0.00    -0.250 OA
BRANCH  15  17
ATOM     17  O   LIG    1        6.257  -3.755   3.108  0.00  0.00    -0.463 OA
BRANCH  17  18
ATOM     18  C   LIG    1        5.815  -2.488   3.650  0.00  0.00    +0.247 C 
BRANCH  18  19
ATOM     19  C   LIG    1        4.878  -1.725   2.697  0.00  0.00    +0.125 C 
BRANCH  19  21
ATOM     20  C   LIG    1        5.247   0.495   3.643  0.00  0.00    +0.104 C 
ATOM     21  N   LIG    1        4.254  -0.518   3.282  0.00  0.00    -0.305 NA
ATOM     22  C   LIG    1        3.287   0.048   2.333  0.00  0.00    +0.104 C 
ENDBRANCH  19  21
ENDBRANCH  18  19
ENDBRANCH  17  18
ENDBRANCH  15  17
ENDBRANCH   1  15
TORSDOF 8
