REMARK  Name = *****
REMARK                            x       y       z     vdW  Elec       q    Type
REMARK                         _______ _______ _______ _____ _____    ______ ____
ROOT
ATOM      1  C   LIG    1        4.431  -0.813   0.403  0.00  0.00    +0.064 C 
ATOM      2  C   LIG    1        4.881   0.582  -0.199  0.00  0.00    +0.039 C 
ATOM      3  C   LIG    1        6.250   0.234  -0.855  0.00  0.00    -0.002 C 
ATOM      4  C   LIG    1        6.066  -1.215  -1.312  0.00  0.00    +0.009 C 
ATOM      5  C   LIG    1        7.297   0.059   0.261  0.00  0.00    +0.004 C 
ATOM      6  C   LIG    1        6.864  -1.247   0.932  0.00  0.00    +0.005 C 
ATOM      7  C   LIG    1        5.668  -1.701   0.077  0.00  0.00    +0.007 C 
ENDROOT
BRANCH   2   8
ATOM      8  C   LIG    1        3.923   1.352  -1.101  0.00  0.00    -0.043 A 
ATOM      9  C   LIG    1        3.960   1.264  -2.506  0.00  0.00    +0.004 A 
ATOM     10  C   LIG    1        3.121   2.050  -3.302  0.00  0.00    +0.000 A 
ATOM     11  C   LIG    1        2.227   2.934  -2.718  0.00  0.00    +0.000 A 
ATOM     12  C   LIG    1        2.165   3.030  -1.326  0.00  0.00    +0.000 A 
ATOM     13  C   LIG    1        3.006   2.246  -0.531  0.00  0.00    +0.004 A 
ENDBRANCH   2   8
BRANCH   1  14
ATOM     14  N   LIG    1        3.182  -1.351  -0.154  0.00  0.00    -0.313 NA
ATOM     15  H   LIG    1        2.432  -0.679   0.013  0.00  0.00    +0.122 HD
BRANCH  14  17
ATOM     16  C   LIG    1        1.480  -3.110  -0.170  0.00  0.00    +0.020 C 
ATOM     17  C   LIG    1        2.808  -2.649   0.411  0.00  0.00    +0.077 C 
ENDBRANCH  14  17
ENDBRANCH   1  14
TORSDOF 3
