REMARK  Name = *****
REMARK                            x       y       z     vdW  Elec       q    Type
REMARK                         _______ _______ _______ _____ _____    ______ ____
ROOT
ATOM      1  C   LIG    1        3.168   4.227  -1.168  0.00  0.00    +0.068 C 
ATOM      2  C   LIG    1        2.479   4.215  -2.571  0.00  0.00    +0.044 C 
ATOM      3  C   LIG    1        2.616   5.457  -3.440  0.00  0.00    +0.086 C 
ATOM      4  N   LIG    1        3.957   6.029  -3.514  0.00  0.00    -0.302 NA
ATOM      5  C   LIG    1        4.382   6.375  -2.162  0.00  0.00    +0.086 C 
ATOM      6  C   LIG    1        4.426   5.200  -1.185  0.00  0.00    +0.044 C 
ENDROOT
BRANCH   1   8
ATOM      7  C   LIG    1        2.843   4.510   1.327  0.00  0.00    +0.220 C 
ATOM      8  N   LIG    1        2.258   4.588   0.046  0.00  0.00    -0.263 N 
ATOM      9  O   LIG    1        4.065   4.130   1.438  0.00  0.00    -0.275 OA
BRANCH   8  10
ATOM     10  C   LIG    1        0.843   4.850  -0.126  0.00  0.00    +0.037 A 
ATOM     11  C   LIG    1        0.374   6.157  -0.320  0.00  0.00    +0.023 A 
ATOM     12  C   LIG    1       -1.008   6.452  -0.252  0.00  0.00    +0.002 A 
ATOM     13  C   LIG    1       -1.932   5.456   0.052  0.00  0.00    +0.000 A 
ATOM     14  C   LIG    1       -1.491   4.141   0.160  0.00  0.00    +0.002 A 
ATOM     15  C   LIG    1       -0.117   3.833   0.017  0.00  0.00    +0.023 A 
ENDBRANCH   8  10
BRANCH   7  17
ATOM     16  C   LIG    1        0.871   4.656   3.142  0.00  0.00    +0.013 C 
ATOM     17  C   LIG    1        2.258   4.996   2.653  0.00  0.00    +0.093 C 
ENDBRANCH   7  17
ENDBRANCH   1   8
BRANCH   4  18
ATOM     18  C   LIG    1        4.967   5.252  -4.265  0.00  0.00    +0.089 C 
BRANCH  18  19
ATOM     19  C   LIG    1        4.599   4.837  -5.711  0.00  0.00    +0.058 C 
BRANCH  19  20
ATOM     20  C   LIG    1        4.339   5.973  -6.671  0.00  0.00    -0.009 A 
ATOM     21  S   LIG    1        5.241   6.092  -8.129  0.00  0.00    -0.102 S 
ATOM     22  C   LIG    1        4.380   7.480  -8.635  0.00  0.00    +0.045 A 
ATOM     23  C   LIG    1        3.397   7.831  -7.740  0.00  0.00    +0.008 A 
ATOM     24  C   LIG    1        3.380   6.967  -6.608  0.00  0.00    +0.011 A 
ENDBRANCH  19  20
ENDBRANCH  18  19
ENDBRANCH   4  18
BRANCH   1  25
ATOM     25  C   LIG    1        3.709   2.726  -1.003  0.00  0.00    +0.185 C 
BRANCH  25  26
ATOM     26  O   LIG    1        4.612   2.345  -2.065  0.00  0.00    -0.381 OA
ATOM     27  C   LIG    1        5.014   0.981  -1.979  0.00  0.00    +0.193 C 
ENDBRANCH  25  26
ENDBRANCH   1  25
TORSDOF 8
