REMARK  Name = *****
REMARK                            x       y       z     vdW  Elec       q    Type
REMARK                         _______ _______ _______ _____ _____    ______ ____
ROOT
ATOM      1  C   LIG    1       -3.764  -5.845  -3.432  0.00  0.00    +0.007 C 
ENDROOT
BRANCH   1   2
ATOM      2  C   LIG    1       -4.802  -5.989  -4.562  0.00  0.00    +0.041 C 
BRANCH   2   3
ATOM      3  C   LIG    1       -5.441  -7.404  -4.595  0.00  0.00    +0.232 C 
BRANCH   3   4
ATOM      4  O   LIG    1       -6.289  -7.443  -5.769  0.00  0.00    -0.465 OA
BRANCH   4   5
ATOM      5  C   LIG    1       -6.129  -8.561  -6.596  0.00  0.00    +0.312 C 
ATOM      6  O   LIG    1       -5.904  -9.634  -6.290  0.00  0.00    -0.251 OA
BRANCH   5   7
ATOM      7  C   LIG    1       -6.171  -8.024  -8.044  0.00  0.00    +0.171 C 
BRANCH   7   8
ATOM      8  C   LIG    1       -7.560  -7.532  -8.399  0.00  0.00    +0.145 C 
BRANCH   8   9
ATOM      9  N   LIG    1       -7.826  -6.971  -9.876  0.00  0.00    +0.247 N 
ATOM     10  C   LIG    1       -6.882  -5.740 -10.212  0.00  0.00    +0.102 C 
ATOM     11  C   LIG    1       -5.515  -6.225 -10.655  0.00  0.00    +0.008 A 
ATOM     12  C   LIG    1       -5.464  -7.226 -11.614  0.00  0.00    -0.030 A 
ATOM     13  C   LIG    1       -4.262  -7.732 -12.062  0.00  0.00    +0.053 A 
ATOM     14  C   LIG    1       -3.071  -7.410 -11.423  0.00  0.00    +0.162 A 
ATOM     15  C   LIG    1       -3.120  -6.520 -10.325  0.00  0.00    +0.162 A 
ATOM     16  C   LIG    1       -6.733  -7.785 -12.139  0.00  0.00    +0.086 C 
ATOM     17  C   LIG    1       -4.319  -5.833 -10.050  0.00  0.00    +0.059 A 
ATOM     18  C   LIG    1       -7.654  -8.111 -10.945  0.00  0.00    +0.138 C 
ATOM     19  C   LIG    1       -9.311  -6.549  -9.730  0.00  0.00    +0.193 C 
BRANCH  14  20
ATOM     20  O   LIG    1       -1.881  -7.956 -11.840  0.00  0.00    -0.491 OA
ATOM     21  C   LIG    1       -1.953  -8.835 -12.978  0.00  0.00    +0.277 C 
ENDBRANCH  14  20
BRANCH  15  22
ATOM     22  O   LIG    1       -2.003  -6.342  -9.542  0.00  0.00    -0.491 OA
ATOM     23  C   LIG    1       -2.237  -6.051  -8.155  0.00  0.00    +0.277 C 
ENDBRANCH  15  22
BRANCH  10  24
ATOM     24  C   LIG    1       -7.511  -4.620 -11.144  0.00  0.00    +0.095 C 
BRANCH  24  25
ATOM     25  C   LIG    1       -7.993  -4.784 -12.582  0.00  0.00    -0.038 A 
ATOM     26  C   LIG    1       -8.960  -5.716 -12.932  0.00  0.00    +0.053 A 
ATOM     27  C   LIG    1       -9.570  -5.900 -14.186  0.00  0.00    +0.162 A 
ATOM     28  C   LIG    1       -9.234  -4.995 -15.201  0.00  0.00    +0.162 A 
ATOM     29  C   LIG    1       -8.239  -4.056 -14.887  0.00  0.00    +0.050 A 
ATOM     30  C   LIG    1       -7.604  -3.973 -13.629  0.00  0.00    +0.007 A 
BRANCH  28  31
ATOM     31  O   LIG    1       -9.813  -5.036 -16.447  0.00  0.00    -0.491 OA
ATOM     32  C   LIG    1       -9.386  -4.077 -17.443  0.00  0.00    +0.277 C 
ENDBRANCH  28  31
BRANCH  27  33
ATOM     33  O   LIG    1      -10.446  -6.965 -14.327  0.00  0.00    -0.491 OA
ATOM     34  C   LIG    1      -10.257  -8.046 -13.382  0.00  0.00    +0.277 C 
ENDBRANCH  27  33
ENDBRANCH  24  25
ENDBRANCH  10  24
ENDBRANCH   8   9
ENDBRANCH   7   8
ENDBRANCH   5   7
ENDBRANCH   4   5
ENDBRANCH   3   4
ENDBRANCH   2   3
ENDBRANCH   1   2
BRANCH   1  35
ATOM     35  C   LIG    1       -3.068  -4.501  -3.202  0.00  0.00    +0.041 C 
BRANCH  35  36
ATOM     36  C   LIG    1       -2.006  -4.145  -4.244  0.00  0.00    +0.232 C 
BRANCH  36  37
ATOM     37  O   LIG    1       -1.232  -3.009  -3.677  0.00  0.00    -0.465 OA
BRANCH  37  38
ATOM     38  C   LIG    1       -1.895  -1.883  -3.916  0.00  0.00    +0.312 C 
ATOM     39  O   LIG    1       -2.801  -2.062  -4.814  0.00  0.00    -0.251 OA
BRANCH  38  40
ATOM     40  C   LIG    1       -1.539  -0.526  -2.878  0.00  0.00    +0.171 C 
BRANCH  40  41
ATOM     41  C   LIG    1       -0.811   0.848  -3.096  0.00  0.00    +0.145 C 
BRANCH  41  43
ATOM     42  C   LIG    1       -2.208   2.757  -1.392  0.00  0.00    +0.102 C 
ATOM     43  N   LIG    1       -0.869   1.904  -1.823  0.00  0.00    +0.247 N 
ATOM     44  C   LIG    1       -0.341   1.135  -0.651  0.00  0.00    +0.193 C 
ATOM     45  C   LIG    1        0.189   3.026  -2.163  0.00  0.00    +0.138 C 
ATOM     46  C   LIG    1       -0.307   4.176  -3.068  0.00  0.00    +0.086 C 
ATOM     47  C   LIG    1       -1.772   4.188  -3.415  0.00  0.00    -0.030 A 
ATOM     48  C   LIG    1       -2.218   4.804  -4.598  0.00  0.00    +0.053 A 
ATOM     49  C   LIG    1       -3.575   4.777  -4.971  0.00  0.00    +0.162 A 
ATOM     50  C   LIG    1       -4.529   4.322  -4.027  0.00  0.00    +0.162 A 
ATOM     51  C   LIG    1       -4.056   3.743  -2.842  0.00  0.00    +0.059 A 
ATOM     52  C   LIG    1       -2.700   3.579  -2.565  0.00  0.00    +0.008 A 
BRANCH  50  53
ATOM     53  O   LIG    1       -5.881   4.350  -4.296  0.00  0.00    -0.491 OA
ATOM     54  C   LIG    1       -6.809   4.233  -3.195  0.00  0.00    +0.277 C 
ENDBRANCH  50  53
BRANCH  49  55
ATOM     55  O   LIG    1       -3.974   5.186  -6.227  0.00  0.00    -0.491 OA
ATOM     56  C   LIG    1       -2.996   5.088  -7.283  0.00  0.00    +0.277 C 
ENDBRANCH  49  55
BRANCH  42  57
ATOM     57  C   LIG    1       -3.267   2.066  -0.371  0.00  0.00    +0.095 C 
BRANCH  57  61
ATOM     58  C   LIG    1       -6.039  -0.555  -2.375  0.00  0.00    +0.162 A 
ATOM     59  C   LIG    1       -4.681  -0.495  -2.558  0.00  0.00    +0.162 A 
ATOM     60  C   LIG    1       -3.978  -0.059  -1.437  0.00  0.00    +0.053 A 
ATOM     61  C   LIG    1       -4.348   1.120  -0.862  0.00  0.00    -0.038 A 
ATOM     62  C   LIG    1       -5.723   1.253  -0.764  0.00  0.00    +0.007 A 
ATOM     63  C   LIG    1       -6.560   0.322  -1.428  0.00  0.00    +0.050 A 
BRANCH  58  65
ATOM     64  C   LIG    1       -8.097  -1.010  -3.373  0.00  0.00    +0.277 C 
ATOM     65  O   LIG    1       -6.764  -1.437  -3.129  0.00  0.00    -0.491 OA
ENDBRANCH  58  65
BRANCH  59  66
ATOM     66  O   LIG    1       -4.205  -0.729  -3.833  0.00  0.00    -0.491 OA
ATOM     67  C   LIG    1       -3.377   0.140  -4.756  0.00  0.00    +0.277 C 
ENDBRANCH  59  66
ENDBRANCH  57  61
ENDBRANCH  42  57
ENDBRANCH  41  43
ENDBRANCH  40  41
ENDBRANCH  38  40
ENDBRANCH  37  38
ENDBRANCH  36  37
ENDBRANCH  35  36
ENDBRANCH   1  35
TORSDOF 26
