REMARK  Name = *****
REMARK                            x       y       z     vdW  Elec       q    Type
REMARK                         _______ _______ _______ _____ _____    ______ ____
ROOT
ATOM      1  C   LIG    1       -3.245  -0.147  -0.219  0.00  0.00    +0.132 C 
ATOM      2  C   LIG    1       -4.032   1.136  -0.642  0.00  0.00    +0.011 C 
ATOM      3  C   LIG    1       -5.552   0.876  -0.631  0.00  0.00    +0.015 C 
ATOM      4  C   LIG    1       -3.487   1.356  -2.081  0.00  0.00    +0.002 C 
ATOM      5  C   LIG    1       -3.683   2.753  -2.708  0.00  0.00    +0.001 C 
ATOM      6  C   LIG    1       -3.387   3.909  -1.725  0.00  0.00    +0.023 C 
ATOM      7  C   LIG    1       -4.080   3.700  -0.369  0.00  0.00    +0.009 C 
ATOM      8  C   LIG    1       -3.741   5.272  -2.303  0.00  0.00    -0.041 A 
ATOM      9  C   LIG    1       -4.588   5.409  -3.415  0.00  0.00    -0.041 A 
ATOM     10  C   LIG    1       -4.872   6.693  -3.911  0.00  0.00    +0.049 A 
ATOM     11  C   LIG    1       -4.339   7.838  -3.316  0.00  0.00    +0.120 A 
ATOM     12  C   LIG    1       -3.508   7.701  -2.208  0.00  0.00    +0.046 A 
ATOM     13  C   LIG    1       -5.143   4.214  -4.145  0.00  0.00    +0.036 C 
ATOM     14  C   LIG    1       -3.211   6.429  -1.709  0.00  0.00    +0.008 A 
ATOM     15  C   LIG    1       -5.079   2.926  -3.328  0.00  0.00    +0.009 C 
ATOM     16  C   LIG    1       -1.989   0.988  -1.978  0.00  0.00    +0.008 C 
ATOM     17  C   LIG    1       -3.706   2.357   0.257  0.00  0.00    +0.011 C 
ATOM     18  C   LIG    1       -1.828   0.087  -0.751  0.00  0.00    +0.049 C 
ENDROOT
BRANCH   1  20
ATOM     19  C   LIG    1       -3.261  -0.658   2.405  0.00  0.00    +0.007 C 
ATOM     20  C   LIG    1       -3.252  -0.423   1.227  0.00  0.00    -0.070 C 
ENDBRANCH   1  20
BRANCH   1  21
ATOM     21  O   LIG    1       -3.756  -1.296  -0.903  0.00  0.00    -0.376 OA
ATOM     22  H   LIG    1       -4.525  -1.610  -0.398  0.00  0.00    +0.211 HD
ENDBRANCH   1  21
BRANCH  11  23
ATOM     23  O   LIG    1       -4.702   9.015  -3.911  0.00  0.00    -0.495 OA
ATOM     24  C   LIG    1       -4.110  10.202  -3.398  0.00  0.00    +0.277 C 
ENDBRANCH  11  23
TORSDOF 3
