REMARK  Name = *****
REMARK                            x       y       z     vdW  Elec       q    Type
REMARK                         _______ _______ _______ _____ _____    ______ ____
ROOT
ATOM      1  C   LIG    1        3.986   1.738  -2.791  0.00  0.00    +0.020 C 
ATOM      2  C   LIG    1        3.422   1.334  -1.386  0.00  0.00    +0.011 C 
ATOM      3  C   LIG    1        4.601   1.588  -0.376  0.00  0.00    +0.006 C 
ATOM      4  C   LIG    1        5.024   3.069  -0.361  0.00  0.00    +0.009 C 
ATOM      5  C   LIG    1        5.015   3.748   0.988  0.00  0.00    +0.048 C 
ATOM      6  C   LIG    1        5.750   2.929   2.047  0.00  0.00    +0.114 C 
ATOM      7  C   LIG    1        5.079   1.550   2.241  0.00  0.00    +0.037 C 
ATOM      8  C   LIG    1        6.047   0.594   2.975  0.00  0.00    +0.019 C 
ATOM      9  C   LIG    1        7.503   0.686   2.583  0.00  0.00    +0.121 C 
ATOM     10  C   LIG    1        8.025   2.000   2.073  0.00  0.00    +0.308 C 
ATOM     11  O   LIG    1        9.229   2.230   1.976  0.00  0.00    -0.251 OA
ATOM     12  O   LIG    1        7.101   2.852   1.576  0.00  0.00    -0.458 OA
ATOM     13  C   LIG    1        5.745   3.776   3.341  0.00  0.00    +0.056 C 
ATOM     14  C   LIG    1        4.515   0.842   0.970  0.00  0.00    +0.000 C 
ATOM     15  C   LIG    1        3.130   0.185   1.182  0.00  0.00    +0.008 C 
ATOM     16  C   LIG    1        2.800  -0.752   0.003  0.00  0.00    +0.032 C 
ATOM     17  C   LIG    1        2.954  -0.132  -1.387  0.00  0.00    -0.056 C 
ATOM     18  C   LIG    1        1.999  -0.464  -2.292  0.00  0.00    +0.051 C 
ATOM     19  C   LIG    1        0.899   0.571  -2.472  0.00  0.00    +0.179 C 
ATOM     20  O   LIG    1        0.052   0.478  -3.340  0.00  0.00    -0.288 OA
ATOM     21  C   LIG    1        0.959   1.745  -1.542  0.00  0.00    +0.047 C 
ATOM     22  C   LIG    1        2.156   2.136  -1.064  0.00  0.00    -0.012 C 
ENDROOT
TORSDOF 0
