REMARK  Name = *****
REMARK                            x       y       z     vdW  Elec       q    Type
REMARK                         _______ _______ _______ _____ _____    ______ ____
ROOT
ATOM      1  C   LIG    1       -1.881  -1.057  -0.993  0.00  0.00    +0.081 C 
ENDROOT
BRANCH   1   3
ATOM      2  C   LIG    1       -0.139   0.912  -0.799  0.00  0.00    +0.006 C 
ATOM      3  C   LIG    1       -1.092  -0.072  -0.151  0.00  0.00    +0.010 C 
ATOM      4  C   LIG    1        0.405  -0.219   0.024  0.00  0.00    +0.006 C 
ENDBRANCH   1   3
BRANCH   1   5
ATOM      5  C   LIG    1       -3.338  -0.656  -1.101  0.00  0.00    +0.010 C 
ATOM      6  C   LIG    1       -3.909  -0.182  -2.420  0.00  0.00    +0.006 C 
ATOM      7  C   LIG    1       -4.325  -1.513  -1.865  0.00  0.00    +0.006 C 
ENDBRANCH   1   5
BRANCH   1   8
ATOM      8  N   LIG    1       -1.805  -2.362  -0.382  0.00  0.00    -0.296 N 
ATOM      9  H   LIG    1       -2.171  -2.483   0.548  0.00  0.00    +0.151 HD
BRANCH   8  10
ATOM     10  C   LIG    1       -1.341  -3.462  -1.021  0.00  0.00    +0.278 C 
ATOM     11  O   LIG    1       -1.376  -4.574  -0.241  0.00  0.00    -0.464 OA
ATOM     12  C   LIG    1       -0.555  -5.499  -0.939  0.00  0.00    +0.255 C 
ATOM     13  C   LIG    1       -0.567  -4.986  -2.357  0.00  0.00    +0.187 C 
ATOM     14  N   LIG    1       -0.878  -3.559  -2.220  0.00  0.00    -0.234 NA
ENDBRANCH   8  10
ENDBRANCH   1   8
TORSDOF 4
