REMARK  Name = *****
REMARK                            x       y       z     vdW  Elec       q    Type
REMARK                         _______ _______ _______ _____ _____    ______ ____
ROOT
ATOM      1  CA  LIG    1       -4.063   1.947  -4.276  0.00  0.00    +0.191 C 
ATOM      2  C   LIG    1       -4.750   2.681  -3.080  0.00  0.00    +0.169 C 
ATOM      3  N   LIG    1       -5.646   1.548  -2.977  0.00  0.00    -0.249 N 
ATOM      4  CA  LIG    1       -6.802   1.500  -2.234  0.00  0.00    +0.123 C 
ATOM      5  C   LIG    1       -7.340   2.657  -1.748  0.00  0.00    -0.021 C 
ATOM      6  C   LIG    1       -6.777   4.040  -2.055  0.00  0.00    +0.104 C 
ATOM      7  S   LIG    1       -5.711   4.145  -3.511  0.00  0.00    -0.131 S 
ATOM      8  C   LIG    1       -5.123   0.843  -4.002  0.00  0.00    +0.244 C 
ATOM      9  O   LIG    1       -5.491  -0.209  -4.484  0.00  0.00    -0.273 OA
ENDROOT
BRANCH   1  11
ATOM     10  C   LIG    1       -3.494   2.022  -6.707  0.00  0.00    +0.268 C 
ATOM     11  N   LIG    1       -4.124   2.583  -5.614  0.00  0.00    -0.296 N 
ATOM     12  H   LIG    1       -4.674   3.425  -5.787  0.00  0.00    +0.150 HD
ATOM     13  O   LIG    1       -2.787   1.029  -6.632  0.00  0.00    -0.268 OA
BRANCH  10  15
ATOM     14  N   LIG    1       -4.497   3.828  -7.937  0.00  0.00    -0.078 NA
ATOM     15  C   LIG    1       -3.738   2.764  -8.039  0.00  0.00    +0.190 C 
BRANCH  15  16
ATOM     16  C   LIG    1       -3.117   2.284  -9.285  0.00  0.00    +0.107 A 
ATOM     17  N   LIG    1       -3.679   2.517 -10.543  0.00  0.00    -0.223 NA
ATOM     18  C   LIG    1       -2.950   1.996 -11.493  0.00  0.00    +0.156 A 
ATOM     19  S   LIG    1       -1.523   1.208 -10.972  0.00  0.00    -0.060 S 
ATOM     20  C   LIG    1       -1.927   1.576  -9.349  0.00  0.00    +0.078 A 
BRANCH  18  21
ATOM     21  N   LIG    1       -3.274   2.079 -12.791  0.00  0.00    -0.338 N 
ATOM     22  H   LIG    1       -3.972   2.775 -13.026  0.00  0.00    +0.144 HD
ATOM     23  H   LIG    1       -2.544   1.956 -13.479  0.00  0.00    +0.144 HD
ENDBRANCH  18  21
ENDBRANCH  15  16
BRANCH  14  25
ATOM     24  C   LIG    1       -4.973   5.826  -8.990  0.00  0.00    +0.313 C 
ATOM     25  O   LIG    1       -4.745   4.439  -9.173  0.00  0.00    -0.396 OA
ENDBRANCH  14  25
ENDBRANCH  10  15
ENDBRANCH   1  11
BRANCH   4  26
ATOM     26  C   LIG    1       -7.450   0.151  -1.964  0.00  0.00    +0.351 C 
ATOM     27  O   LIG    1       -8.463   0.003  -1.298  0.00  0.00    -0.244 OA
BRANCH  26  28
ATOM     28  OXT LIG    1       -6.777  -0.933  -2.406  0.00  0.00    -0.476 OA
ATOM     29  HXT LIG    1       -6.288  -0.818  -3.252  0.00  0.00    +0.295 HD
ENDBRANCH  26  28
ENDBRANCH   4  26
BRANCH   5  30
ATOM     30  C   LIG    1       -8.563   2.793  -0.823  0.00  0.00    +0.111 C 
BRANCH  30  31
ATOM     31  S   LIG    1      -10.068   3.136  -1.802  0.00  0.00    -0.082 S 
BRANCH  31  32
ATOM     32  C   LIG    1      -11.284   3.408  -0.535  0.00  0.00    +0.189 A 
ATOM     33  N   LIG    1      -12.635   3.144  -0.821  0.00  0.00    -0.241 N 
ATOM     34  C   LIG    1      -13.101   2.612  -2.101  0.00  0.00    +0.175 C 
ATOM     35  N   LIG    1      -13.667   3.299   0.099  0.00  0.00    -0.126 NA
ATOM     36  C   LIG    1      -13.280   3.732   1.253  0.00  0.00    +0.298 A 
ATOM     37  C   LIG    1      -11.815   4.042   1.550  0.00  0.00    +0.336 A 
ATOM     38  O   LIG    1      -11.591   4.428   2.696  0.00  0.00    -0.260 OA
ATOM     39  N   LIG    1      -10.840   3.873   0.594  0.00  0.00    -0.179 NA
BRANCH  36  40
ATOM     40  O   LIG    1      -14.120   3.934   2.276  0.00  0.00    -0.488 OA
ATOM     41  H   LIG    1      -13.622   4.246   3.057  0.00  0.00    +0.294 HD
ENDBRANCH  36  40
ENDBRANCH  31  32
ENDBRANCH  30  31
ENDBRANCH   5  30
TORSDOF 11
