REMARK  Name = *****
REMARK                            x       y       z     vdW  Elec       q    Type
REMARK                         _______ _______ _______ _____ _____    ______ ____
ROOT
ATOM      1  C   LIG    1        3.204   0.677  -1.663  0.00  0.00    +0.122 C 
ENDROOT
BRANCH   1   3
ATOM      2  O   LIG    1        1.751  -0.960  -2.646  0.00  0.00    -0.251 OA
ATOM      3  C   LIG    1        2.853  -0.421  -2.638  0.00  0.00    +0.305 C 
BRANCH   3   4
ATOM      4  O   LIG    1        3.772  -0.733  -3.562  0.00  0.00    -0.481 OA
ATOM      5  H   LIG    1        4.607  -0.208  -3.503  0.00  0.00    +0.295 HD
ENDBRANCH   3   4
ENDBRANCH   1   3
BRANCH   1   6
ATOM      6  C   LIG    1        4.597   0.677  -1.023  0.00  0.00    +0.039 C 
BRANCH   6   7
ATOM      7  C   LIG    1        5.701   1.238  -1.914  0.00  0.00    +0.156 C 
BRANCH   7   8
ATOM      8  O   LIG    1        5.936   0.342  -2.993  0.00  0.00    -0.395 OA
ATOM      9  H   LIG    1        6.585  -0.320  -2.677  0.00  0.00    +0.209 HD
ENDBRANCH   7   8
ENDBRANCH   6   7
ENDBRANCH   1   6
TORSDOF 5
