REMARK  Name = *****
REMARK                            x       y       z     vdW  Elec       q    Type
REMARK                         _______ _______ _______ _____ _____    ______ ____
ROOT
ATOM      1  C   LIG    1       -2.936   1.271  -2.609  0.00  0.00    +0.064 A 
ATOM      2  C   LIG    1       -1.915   1.844  -3.395  0.00  0.00    +0.049 A 
ATOM      3  I   LIG    1       -0.868   3.429  -2.258  0.00  0.00    -0.041 I 
ATOM      4  C   LIG    1       -2.063   2.116  -4.790  0.00  0.00    +0.065 A 
ATOM      5  C   LIG    1       -3.388   2.151  -5.322  0.00  0.00    +0.040 A 
ATOM      6  I   LIG    1       -3.671   3.522  -6.919  0.00  0.00    -0.042 I 
ATOM      7  C   LIG    1       -4.504   1.739  -4.542  0.00  0.00    +0.065 A 
ATOM      8  C   LIG    1       -4.242   1.450  -3.159  0.00  0.00    +0.049 A 
ATOM      9  I   LIG    1       -5.234   3.406  -2.267  0.00  0.00    -0.041 I 
ENDROOT
BRANCH   7  10
ATOM     10  C   LIG    1       -5.588   0.783  -5.054  0.00  0.00    +0.246 C 
ATOM     11  N   LIG    1       -6.247   0.990  -6.244  0.00  0.00    -0.309 N 
ATOM     12  H   LIG    1       -6.104   1.869  -6.729  0.00  0.00    +0.149 HD
ATOM     13  O   LIG    1       -5.756  -0.266  -4.406  0.00  0.00    -0.270 OA
BRANCH  11  14
ATOM     14  C   LIG    1       -7.332   0.115  -6.759  0.00  0.00    +0.132 C 
BRANCH  14  15
ATOM     15  C   LIG    1       -7.602  -1.224  -6.042  0.00  0.00    +0.174 C 
BRANCH  15  16
ATOM     16  O   LIG    1       -6.516  -2.132  -6.232  0.00  0.00    -0.394 OA
ATOM     17  H   LIG    1       -6.470  -2.663  -5.417  0.00  0.00    +0.209 HD
ENDBRANCH  15  16
ENDBRANCH  14  15
ENDBRANCH  11  14
ENDBRANCH   7  10
BRANCH   1  20
ATOM     18  C   LIG    1       -3.447  -1.645  -0.043  0.00  0.00    +0.110 C 
ATOM     19  C   LIG    1       -3.725  -0.361  -0.850  0.00  0.00    +0.217 C 
ATOM     20  N   LIG    1       -2.652   0.170  -1.628  0.00  0.00    -0.267 N 
ATOM     21  O   LIG    1       -4.829   0.139  -0.764  0.00  0.00    -0.276 OA
BRANCH  20  22
ATOM     22  C   LIG    1       -1.347  -0.579  -1.570  0.00  0.00    +0.147 C 
BRANCH  22  23
ATOM     23  C   LIG    1       -0.082  -0.159  -2.343  0.00  0.00    +0.158 C 
BRANCH  23  24
ATOM     24  O   LIG    1       -0.260  -0.175  -3.748  0.00  0.00    -0.388 OA
ATOM     25  H   LIG    1       -0.228  -1.108  -4.035  0.00  0.00    +0.210 HD
ENDBRANCH  23  24
BRANCH  23  26
ATOM     26  C   LIG    1        1.125  -1.062  -2.139  0.00  0.00    +0.188 C 
BRANCH  26  27
ATOM     27  O   LIG    1        0.799  -2.364  -2.627  0.00  0.00    -0.392 OA
ATOM     28  H   LIG    1        1.336  -2.998  -2.121  0.00  0.00    +0.209 HD
ENDBRANCH  26  27
ENDBRANCH  23  26
ENDBRANCH  22  23
ENDBRANCH  20  22
ENDBRANCH   1  20
BRANCH   4  29
ATOM     29  C   LIG    1       -0.912   1.731  -5.712  0.00  0.00    +0.246 C 
ATOM     30  N   LIG    1       -1.045   0.815  -6.754  0.00  0.00    -0.309 N 
ATOM     31  H   LIG    1       -0.197   0.704  -7.318  0.00  0.00    +0.149 HD
ATOM     32  O   LIG    1        0.278   2.214  -5.508  0.00  0.00    -0.270 OA
BRANCH  30  33
ATOM     33  C   LIG    1       -2.170  -0.027  -7.213  0.00  0.00    +0.138 C 
BRANCH  33  34
ATOM     34  C   LIG    1       -2.574  -1.244  -6.339  0.00  0.00    +0.157 C 
BRANCH  34  35
ATOM     35  O   LIG    1       -1.544  -2.212  -6.240  0.00  0.00    -0.388 OA
ATOM     36  H   LIG    1       -1.416  -2.350  -5.278  0.00  0.00    +0.210 HD
ENDBRANCH  34  35
BRANCH  34  37
ATOM     37  C   LIG    1       -2.923  -0.850  -4.951  0.00  0.00    +0.188 C 
BRANCH  37  38
ATOM     38  O   LIG    1       -3.363  -1.842  -4.058  0.00  0.00    -0.392 OA
ATOM     39  H   LIG    1       -4.345  -1.795  -4.121  0.00  0.00    +0.209 HD
ENDBRANCH  37  38
ENDBRANCH  34  37
ENDBRANCH  33  34
ENDBRANCH  30  33
ENDBRANCH   4  29
TORSDOF 16
