REMARK  Name = *****
REMARK                            x       y       z     vdW  Elec       q    Type
REMARK                         _______ _______ _______ _____ _____    ______ ____
ROOT
ATOM      1  C   LIG    1        4.055   8.911  -1.590  0.00  0.00    +0.011 C 
ATOM      2  C   LIG    1        2.543   9.096  -1.483  0.00  0.00    +0.027 C 
ATOM      3  C   LIG    1        1.728   7.779  -1.337  0.00  0.00    +0.142 C 
ATOM      4  C   LIG    1        0.423   8.272  -0.617  0.00  0.00    +0.010 C 
ATOM      5  C   LIG    1        0.969   9.280   0.432  0.00  0.00    +0.005 C 
ATOM      6  C   LIG    1        1.410   8.709   1.810  0.00  0.00    +0.036 C 
ATOM      7  C   LIG    1        0.476   7.616   2.383  0.00  0.00    +0.153 C 
ATOM      8  C   LIG    1        0.141   6.550   1.319  0.00  0.00    +0.154 C 
ATOM      9  F   LIG    1       -0.719   8.263   2.650  0.00  0.00    -0.238 F 
ATOM     10  C   LIG    1        1.026   7.044   3.774  0.00  0.00    +0.047 C 
ATOM     11  C   LIG    1        1.785   8.157   4.517  0.00  0.00    -0.020 C 
ATOM     12  C   LIG    1        2.920   7.968   5.213  0.00  0.00    +0.054 C 
ATOM     13  C   LIG    1        3.595   6.655   5.232  0.00  0.00    +0.179 C 
ATOM     14  C   LIG    1        3.066   5.623   4.316  0.00  0.00    +0.047 C 
ATOM     15  O   LIG    1        4.583   6.453   5.920  0.00  0.00    -0.288 OA
ATOM     16  C   LIG    1        1.256   9.536   4.270  0.00  0.00    +0.194 C 
ATOM     17  F   LIG    1        1.857  10.466   5.064  0.00  0.00    -0.241 F 
ATOM     18  C   LIG    1       -0.154   6.610   4.679  0.00  0.00    +0.023 C 
ATOM     19  C   LIG    1        1.920   5.812   3.644  0.00  0.00    -0.009 C 
ATOM     20  C   LIG    1        1.547   9.897   2.815  0.00  0.00    +0.048 C 
ATOM     21  C   LIG    1       -0.516   9.047  -1.586  0.00  0.00    +0.015 C 
ATOM     22  C   LIG    1       -0.436   7.179   0.051  0.00  0.00    +0.044 C 
ATOM     23  C   LIG    1        2.161   9.967  -0.272  0.00  0.00    +0.011 C 
ENDROOT
BRANCH   3  24
ATOM     24  O   LIG    1        2.435   6.917  -0.448  0.00  0.00    -0.379 OA
ATOM     25  H   LIG    1        3.161   6.484  -0.944  0.00  0.00    +0.211 HD
ENDBRANCH   3  24
BRANCH   3  26
ATOM     26  C   LIG    1        1.467   7.152  -2.745  0.00  0.00    +0.224 C 
ATOM     27  O   LIG    1        1.467   7.785  -3.794  0.00  0.00    -0.282 OA
BRANCH  26  28
ATOM     28  S   LIG    1        1.167   5.417  -2.789  0.00  0.00    -0.052 S 
BRANCH  28  29
ATOM     29  C   LIG    1        2.864   4.910  -3.099  0.00  0.00    +0.290 C 
ATOM     30  F   LIG    1        3.640   5.287  -2.045  0.00  0.00    -0.237 F 
ENDBRANCH  28  29
ENDBRANCH  26  28
ENDBRANCH   3  26
BRANCH   8  31
ATOM     31  O   LIG    1       -0.831   5.618   1.811  0.00  0.00    -0.389 OA
ATOM     32  H   LIG    1       -1.624   6.133   2.052  0.00  0.00    +0.210 HD
ENDBRANCH   8  31
TORSDOF 5
