REMARK  Name = *****
REMARK                            x       y       z     vdW  Elec       q    Type
REMARK                         _______ _______ _______ _____ _____    ______ ____
ROOT
ATOM      1  C   LIG    1        7.402   5.438   0.809  0.00  0.00    +0.124 A 
ATOM      2  C   LIG    1        7.847   6.540   1.585  0.00  0.00    +0.000 A 
ATOM      3  C   LIG    1        7.180   6.892   2.904  0.00  0.00    +0.073 C 
ATOM      4  C   LIG    1        7.933   7.958   3.727  0.00  0.00    +0.148 C 
ATOM      5  C   LIG    1        8.427   9.101   2.839  0.00  0.00    +0.147 C 
ATOM      6  C   LIG    1        9.398   8.570   1.795  0.00  0.00    +0.069 C 
ATOM      7  C   LIG    1        8.904   7.321   1.089  0.00  0.00    -0.038 A 
ATOM      8  C   LIG    1        9.566   6.953  -0.096  0.00  0.00    +0.004 A 
ATOM      9  C   LIG    1        9.173   5.821  -0.801  0.00  0.00    +0.004 A 
ATOM     10  C   LIG    1        8.108   5.082  -0.352  0.00  0.00    +0.046 A 
ENDROOT
BRANCH   5  11
ATOM     11  O   LIG    1        7.310   9.768   2.230  0.00  0.00    -0.389 OA
ATOM     12  H   LIG    1        6.995   9.213   1.492  0.00  0.00    +0.210 HD
ENDBRANCH   5  11
BRANCH   4  13
ATOM     13  O   LIG    1        7.066   8.489   4.736  0.00  0.00    -0.389 OA
ATOM     14  H   LIG    1        6.529   9.178   4.296  0.00  0.00    +0.210 HD
ENDBRANCH   4  13
BRANCH   1  15
ATOM     15  O   LIG    1        6.272   4.776   1.215  0.00  0.00    -0.489 OA
BRANCH  15  16
ATOM     16  C   LIG    1        5.811   3.750   0.310  0.00  0.00    +0.261 C 
BRANCH  16  17
ATOM     17  C   LIG    1        4.528   3.079   0.791  0.00  0.00    +0.166 C 
BRANCH  17  18
ATOM     18  O   LIG    1        3.440   4.003   0.787  0.00  0.00    -0.387 OA
ATOM     19  H   LIG    1        3.558   4.530   1.602  0.00  0.00    +0.210 HD
ENDBRANCH  17  18
BRANCH  17  20
ATOM     20  C   LIG    1        4.683   2.440   2.177  0.00  0.00    +0.116 C 
BRANCH  20  21
ATOM     21  N   LIG    1        4.932   3.413   3.256  0.00  0.00    -0.309 NA
ATOM     22  H   LIG    1        5.772   3.955   3.023  0.00  0.00    +0.122 HD
BRANCH  21  24
ATOM     23  C   LIG    1        5.379   3.917   5.620  0.00  0.00    +0.027 C 
ATOM     24  C   LIG    1        5.083   2.804   4.593  0.00  0.00    +0.011 C 
ATOM     25  C   LIG    1        3.768   2.119   4.997  0.00  0.00    +0.027 C 
ATOM     26  C   LIG    1        6.242   1.793   4.639  0.00  0.00    +0.027 C 
ENDBRANCH  21  24
ENDBRANCH  20  21
ENDBRANCH  17  20
ENDBRANCH  16  17
ENDBRANCH  15  16
ENDBRANCH   1  15
TORSDOF 9
