REMARK  Name = *****
REMARK                            x       y       z     vdW  Elec       q    Type
REMARK                         _______ _______ _______ _____ _____    ______ ____
ROOT
ATOM      1  N   LIG    1        4.599  -0.537   1.159  0.00  0.00    -0.297 NA
ATOM      2  C   LIG    1        5.196   0.812   1.218  0.00  0.00    +0.100 C 
ATOM      3  C   LIG    1        4.477   1.877   0.359  0.00  0.00    +0.100 C 
ATOM      4  N   LIG    1        3.042   2.020   0.665  0.00  0.00    -0.299 NA
ATOM      5  C   LIG    1        2.420   0.680   0.517  0.00  0.00    +0.100 C 
ATOM      6  C   LIG    1        3.125  -0.451   1.319  0.00  0.00    +0.100 C 
ENDROOT
BRANCH   1   7
ATOM      7  C   LIG    1        4.935  -1.240  -0.092  0.00  0.00    +0.120 C 
BRANCH   7   8
ATOM      8  C   LIG    1        6.448  -1.506  -0.410  0.00  0.00    +0.162 C 
BRANCH   8   9
ATOM      9  C   LIG    1        7.220  -2.283   0.655  0.00  0.00    -0.018 A 
ATOM     10  C   LIG    1        6.630  -3.321   1.394  0.00  0.00    +0.006 A 
ATOM     11  C   LIG    1        7.370  -4.063   2.320  0.00  0.00    +0.000 A 
ATOM     12  C   LIG    1        8.719  -3.790   2.520  0.00  0.00    +0.000 A 
ATOM     13  C   LIG    1        9.325  -2.759   1.807  0.00  0.00    +0.000 A 
ATOM     14  C   LIG    1        8.582  -2.011   0.884  0.00  0.00    +0.006 A 
ENDBRANCH   8   9
BRANCH   8  15
ATOM     15  O   LIG    1        6.573  -2.259  -1.637  0.00  0.00    -0.371 OA
BRANCH  15  17
ATOM     16  C   LIG    1        6.264  -2.432  -4.013  0.00  0.00    +0.034 C 
ATOM     17  C   LIG    1        6.079  -1.569  -2.784  0.00  0.00    +0.157 C 
ENDBRANCH  15  17
ENDBRANCH   8  15
ENDBRANCH   7   8
ENDBRANCH   1   7
BRANCH   4  18
ATOM     18  C   LIG    1        2.783   2.571   2.021  0.00  0.00    +0.095 C 
BRANCH  18  19
ATOM     19  C   LIG    1        3.373   3.990   2.272  0.00  0.00    +0.071 C 
ATOM     20  C   LIG    1        2.767   4.994   1.309  0.00  0.00    +0.017 C 
BRANCH  19  21
ATOM     21  C   LIG    1        3.120   4.392   3.720  0.00  0.00    +0.167 C 
ATOM     22  O   LIG    1        2.136   3.973   4.349  0.00  0.00    -0.292 OA
BRANCH  21  23
ATOM     23  C   LIG    1        4.122   5.266   4.433  0.00  0.00    +0.018 A 
ATOM     24  C   LIG    1        4.903   6.199   3.768  0.00  0.00    +0.011 A 
ATOM     25  C   LIG    1        5.785   7.022   4.482  0.00  0.00    +0.001 A 
ATOM     26  C   LIG    1        5.900   6.885   5.864  0.00  0.00    +0.000 A 
ATOM     27  C   LIG    1        5.136   5.939   6.536  0.00  0.00    +0.001 A 
ATOM     28  C   LIG    1        4.224   5.132   5.825  0.00  0.00    +0.011 A 
ENDBRANCH  21  23
ENDBRANCH  19  21
ENDBRANCH  18  19
ENDBRANCH   4  18
TORSDOF 9
