REMARK  Name = *****
REMARK                            x       y       z     vdW  Elec       q    Type
REMARK                         _______ _______ _______ _____ _____    ______ ____
ROOT
ATOM      1  C   LIG    1        4.420   0.182   2.088  0.00  0.00    -0.014 A 
ATOM      2  C   LIG    1        5.008  -0.638   3.083  0.00  0.00    +0.056 A 
ATOM      3  C   LIG    1        5.607  -0.073   4.230  0.00  0.00    +0.174 A 
ATOM      4  C   LIG    1        5.669   1.315   4.349  0.00  0.00    +0.174 A 
ATOM      5  C   LIG    1        5.212   2.125   3.309  0.00  0.00    +0.050 A 
ATOM      6  C   LIG    1        4.572   1.569   2.209  0.00  0.00    +0.010 A 
ENDROOT
BRANCH   1   7
ATOM      7  C   LIG    1        3.628  -0.403   0.921  0.00  0.00    +0.158 C 
BRANCH   7   8
ATOM      8  O   LIG    1        3.147   0.643   0.054  0.00  0.00    -0.386 OA
ATOM      9  H   LIG    1        2.459   1.121   0.549  0.00  0.00    +0.210 HD
ENDBRANCH   7   8
BRANCH   7  10
ATOM     10  C   LIG    1        2.400  -1.230   1.394  0.00  0.00    +0.116 C 
BRANCH  10  12
ATOM     11  C   LIG    1        0.512  -2.590   0.730  0.00  0.00    +0.101 C 
ATOM     12  N   LIG    1        1.670  -1.839   0.268  0.00  0.00    -0.316 NA
ATOM     13  H   LIG    1        1.383  -1.107  -0.385  0.00  0.00    +0.122 HD
ENDBRANCH  10  12
ENDBRANCH   7  10
ENDBRANCH   1   7
BRANCH   3  14
ATOM     14  O   LIG    1        6.148  -0.988   5.179  0.00  0.00    -0.422 OA
BRANCH  14  15
ATOM     15  C   LIG    1        6.236  -0.825   6.574  0.00  0.00    +0.318 C 
ATOM     16  O   LIG    1        5.797   0.139   7.207  0.00  0.00    -0.250 OA
BRANCH  15  17
ATOM     17  C   LIG    1        6.894  -2.039   7.238  0.00  0.00    +0.060 C 
ATOM     18  C   LIG    1        6.031  -3.278   6.969  0.00  0.00    +0.022 C 
ATOM     19  C   LIG    1        7.007  -1.855   8.771  0.00  0.00    +0.022 C 
ATOM     20  C   LIG    1        8.310  -2.219   6.682  0.00  0.00    +0.022 C 
ENDBRANCH  15  17
ENDBRANCH  14  15
ENDBRANCH   3  14
BRANCH   4  21
ATOM     21  O   LIG    1        6.277   1.941   5.438  0.00  0.00    -0.422 OA
BRANCH  21  22
ATOM     22  C   LIG    1        5.586   3.034   5.995  0.00  0.00    +0.318 C 
ATOM     23  O   LIG    1        4.405   3.305   5.835  0.00  0.00    -0.250 OA
BRANCH  22  24
ATOM     24  C   LIG    1        6.565   3.875   6.835  0.00  0.00    +0.060 C 
ATOM     25  C   LIG    1        6.183   5.364   6.727  0.00  0.00    +0.022 C 
ATOM     26  C   LIG    1        7.997   3.700   6.301  0.00  0.00    +0.022 C 
ATOM     27  C   LIG    1        6.473   3.435   8.296  0.00  0.00    +0.022 C 
ENDBRANCH  22  24
ENDBRANCH  21  22
ENDBRANCH   4  21
TORSDOF 10
