REMARK  Name = *****
REMARK                            x       y       z     vdW  Elec       q    Type
REMARK                         _______ _______ _______ _____ _____    ______ ____
ROOT
ATOM      1  O   LIG    1        0.754   0.076   0.206  0.00  0.00    -0.287 OA
ATOM      2  C   LIG    1        1.970   0.037   0.074  0.00  0.00    +0.193 C 
ATOM      3  C   LIG    1        2.793   1.252  -0.019  0.00  0.00    +0.064 A 
ATOM      4  C   LIG    1        4.171   1.114  -0.168  0.00  0.00    +0.139 A 
ATOM      5  C   LIG    1        4.976   2.249  -0.259  0.00  0.00    +0.047 A 
ATOM      6  C   LIG    1        4.398   3.519  -0.200  0.00  0.00    +0.004 A 
ATOM      7  C   LIG    1        3.016   3.655  -0.050  0.00  0.00    +0.001 A 
ATOM      8  O   LIG    1        4.796  -0.105  -0.231  0.00  0.00    -0.455 OA
ATOM      9  C   LIG    1        4.017  -1.250  -0.154  0.00  0.00    +0.139 C 
ATOM     10  C   LIG    1        2.209   2.520   0.041  0.00  0.00    +0.015 A 
ATOM     11  C   LIG    1        2.685  -1.247  -0.001  0.00  0.00    +0.098 C 
ENDROOT
BRANCH   9  12
ATOM     12  C   LIG    1        4.785  -2.509  -0.226  0.00  0.00    +0.017 A 
ATOM     13  C   LIG    1        4.346  -3.594  -1.000  0.00  0.00    +0.011 A 
ATOM     14  C   LIG    1        5.092  -4.774  -1.064  0.00  0.00    +0.001 A 
ATOM     15  C   LIG    1        6.289  -4.882  -0.359  0.00  0.00    +0.000 A 
ATOM     16  C   LIG    1        6.743  -3.810   0.406  0.00  0.00    +0.001 A 
ATOM     17  C   LIG    1        5.998  -2.630   0.469  0.00  0.00    +0.011 A 
ENDBRANCH   9  12
TORSDOF 1
