REMARK  Name = *****
REMARK                            x       y       z     vdW  Elec       q    Type
REMARK                         _______ _______ _______ _____ _____    ______ ____
ROOT
ATOM      1  C   LIG    1        1.067  -0.368   0.383  0.00  0.00    +0.041 C 
ATOM      2  C   LIG    1        2.566  -0.204   0.157  0.00  0.00    +0.068 C 
ATOM      3  O   LIG    1        3.091   0.547   1.272  0.00  0.00    -0.367 OA
ATOM      4  C   LIG    1        4.449   1.000   1.075  0.00  0.00    +0.068 C 
ATOM      5  C   LIG    1        4.361   2.525   0.881  0.00  0.00    +0.041 C 
ATOM      6  C   LIG    1        5.256   0.762   2.362  0.00  0.00    +0.041 C 
ATOM      7  C   LIG    1        5.068   0.233  -0.130  0.00  0.00    +0.021 C 
ATOM      8  C   LIG    1        4.339   0.653  -1.415  0.00  0.00    +0.009 C 
ATOM      9  C   LIG    1        4.816  -1.287   0.040  0.00  0.00    +0.009 C 
ATOM     10  C   LIG    1        2.829   0.520  -1.183  0.00  0.00    +0.035 C 
ATOM     11  C   LIG    1        3.305  -1.552   0.141  0.00  0.00    +0.035 C 
ENDROOT
TORSDOF 0
