REMARK  Name = *****
REMARK                            x       y       z     vdW  Elec       q    Type
REMARK                         _______ _______ _______ _____ _____    ______ ____
ROOT
ATOM      1  C   LIG    1        3.197  -1.315  -0.168  0.00  0.00    +0.161 A 
ATOM      2  C   LIG    1        2.684  -2.581   0.141  0.00  0.00    +0.158 A 
ATOM      3  C   LIG    1        3.306  -3.736  -0.350  0.00  0.00    +0.049 A 
ATOM      4  C   LIG    1        4.442  -3.637  -1.154  0.00  0.00    +0.004 A 
ATOM      5  C   LIG    1        4.959  -2.385  -1.469  0.00  0.00    +0.004 A 
ATOM      6  C   LIG    1        4.338  -1.236  -0.978  0.00  0.00    +0.049 A 
ENDROOT
BRANCH   1   8
ATOM      7  C   LIG    1        1.600  -0.034   1.071  0.00  0.00    +0.277 C 
ATOM      8  O   LIG    1        2.732  -0.087   0.216  0.00  0.00    -0.491 OA
ENDBRANCH   1   8
BRANCH   2   9
ATOM      9  O   LIG    1        1.572  -2.732   0.923  0.00  0.00    -0.503 OA
ATOM     10  H   LIG    1        1.374  -3.677   1.013  0.00  0.00    +0.292 HD
ENDBRANCH   2   9
TORSDOF 2
