REMARK  Name = *****
REMARK                            x       y       z     vdW  Elec       q    Type
REMARK                         _______ _______ _______ _____ _____    ______ ____
ROOT
ATOM      1  C   LIG    1        2.958   1.393   0.238  0.00  0.00    +0.019 A 
ATOM      2  C   LIG    1        4.240   1.442   0.818  0.00  0.00    +0.035 A 
ATOM      3  C   LIG    1        4.881   2.644   1.198  0.00  0.00    +0.049 A 
ATOM      4  N   LIG    1        6.188   2.676   1.778  0.00  0.00    -0.298 N 
ATOM      5  C   LIG    1        6.910   3.860   2.130  0.00  0.00    +0.048 A 
ATOM      6  C   LIG    1        6.339   5.144   2.013  0.00  0.00    +0.034 A 
ATOM      7  S   LIG    1        4.706   5.451   1.394  0.00  0.00    -0.086 S 
ATOM      8  C   LIG    1        7.053   6.303   2.388  0.00  0.00    +0.017 A 
ATOM      9  C   LIG    1        8.350   6.222   2.876  0.00  0.00    +0.001 A 
ATOM     10  C   LIG    1        8.946   4.979   2.986  0.00  0.00    +0.002 A 
ATOM     11  C   LIG    1        8.239   3.826   2.617  0.00  0.00    +0.024 A 
ATOM     12  C   LIG    1        4.144   3.825   0.968  0.00  0.00    +0.034 A 
ATOM     13  C   LIG    1        2.864   3.786   0.379  0.00  0.00    +0.017 A 
ATOM     14  C   LIG    1        2.270   2.586   0.013  0.00  0.00    +0.012 A 
ENDROOT
BRANCH   1  16
ATOM     15  C   LIG    1        1.001   0.034  -0.749  0.00  0.00    +0.091 C 
ATOM     16  C   LIG    1        2.373   0.071  -0.132  0.00  0.00    +0.160 C 
ATOM     17  O   LIG    1        3.013  -0.967   0.070  0.00  0.00    -0.292 OA
ENDBRANCH   1  16
BRANCH   4  18
ATOM     18  C   LIG    1        6.890   1.372   1.956  0.00  0.00    +0.112 C 
BRANCH  18  19
ATOM     19  C   LIG    1        7.713   1.024   0.708  0.00  0.00    +0.035 C 
BRANCH  19  20
ATOM     20  C   LIG    1        8.456  -0.317   0.812  0.00  0.00    +0.085 C 
BRANCH  20  21
ATOM     21  N   LIG    1        7.603  -1.503   0.998  0.00  0.00    -0.308 NA
ATOM     22  C   LIG    1        8.438  -2.701   1.155  0.00  0.00    +0.104 C 
ATOM     23  C   LIG    1        6.682  -1.711  -0.123  0.00  0.00    +0.104 C 
ENDBRANCH  20  21
ENDBRANCH  19  20
ENDBRANCH  18  19
ENDBRANCH   4  18
TORSDOF 5
