REMARK  Name = *****
REMARK                            x       y       z     vdW  Elec       q    Type
REMARK                         _______ _______ _______ _____ _____    ______ ____
ROOT
ATOM      1  N   LIG    1       -0.698   2.318   0.734  0.00  0.00    -0.300 N 
ATOM      2  H   LIG    1       -1.416   1.706   1.115  0.00  0.00    +0.150 HD
ATOM      3  C   LIG    1        0.504   2.240   1.407  0.00  0.00    +0.239 C 
ATOM      4  O   LIG    1        0.588   1.457   2.353  0.00  0.00    -0.273 OA
ENDROOT
BRANCH   1  10
ATOM      5  C   LIG    1       -4.478   4.614   1.657  0.00  0.00    +0.025 C 
ATOM      6  C   LIG    1       -4.571   4.167   0.187  0.00  0.00    +0.042 C 
ATOM      7  CA  LIG    1       -3.783   5.135  -0.741  0.00  0.00    +0.201 C 
ATOM      8  N   LIG    1       -2.486   4.511  -1.050  0.00  0.00    -0.271 N 
ATOM      9  C   LIG    1       -2.418   3.043  -1.037  0.00  0.00    +0.165 C 
ATOM     10  CA  LIG    1       -0.993   3.165  -0.444  0.00  0.00    +0.190 C 
ATOM     11  C   LIG    1       -1.415   4.645  -0.206  0.00  0.00    +0.240 C 
ATOM     12  O   LIG    1       -1.087   5.573   0.506  0.00  0.00    -0.273 OA
ATOM     13  S   LIG    1       -3.746   2.499   0.078  0.00  0.00    -0.127 S 
ATOM     14  C   LIG    1       -6.052   3.955  -0.156  0.00  0.00    +0.025 C 
BRANCH   7  15
ATOM     15  C   LIG    1       -4.470   5.490  -2.071  0.00  0.00    +0.327 C 
ATOM     16  O   LIG    1       -5.548   6.059  -2.163  0.00  0.00    -0.249 OA
BRANCH  15  17
ATOM     17  OXT LIG    1       -3.768   5.125  -3.174  0.00  0.00    -0.479 OA
ATOM     18  HXT LIG    1       -2.909   4.734  -2.921  0.00  0.00    +0.295 HD
ENDBRANCH  15  17
ENDBRANCH   7  15
ENDBRANCH   1  10
BRANCH   3  19
ATOM     19  CA  LIG    1        1.688   3.074   0.851  0.00  0.00    +0.191 C 
BRANCH  19  20
ATOM     20  N   LIG    1        2.269   2.343  -0.281  0.00  0.00    -0.284 N 
ATOM     21  H   LIG    1        2.602   1.397  -0.099  0.00  0.00    +0.151 HD
ATOM     22  C   LIG    1        2.692   2.946  -1.441  0.00  0.00    +0.311 C 
ATOM     23  N   LIG    1        3.184   2.080  -2.403  0.00  0.00    -0.208 N 
ATOM     24  C   LIG    1        3.557   0.740  -2.229  0.00  0.00    +0.310 C 
ATOM     25  O   LIG    1        3.440   0.065  -1.219  0.00  0.00    -0.252 OA
ATOM     26  N   LIG    1        4.049   0.263  -3.435  0.00  0.00    -0.297 N 
ATOM     27  H   LIG    1        4.198  -0.733  -3.540  0.00  0.00    +0.150 HD
ATOM     28  C   LIG    1        3.731   1.179  -4.492  0.00  0.00    +0.125 C 
ATOM     29  C   LIG    1        3.498   2.495  -3.762  0.00  0.00    +0.138 C 
ATOM     30  O   LIG    1        2.574   4.152  -1.643  0.00  0.00    -0.252 OA
ENDBRANCH  19  20
BRANCH  19  31
ATOM     31  C   LIG    1        2.713   3.501   1.891  0.00  0.00    -0.018 A 
ATOM     32  C   LIG    1        2.328   4.329   2.962  0.00  0.00    +0.006 A 
ATOM     33  C   LIG    1        3.292   4.947   3.763  0.00  0.00    +0.000 A 
ATOM     34  C   LIG    1        4.647   4.718   3.532  0.00  0.00    +0.000 A 
ATOM     35  C   LIG    1        5.039   3.835   2.532  0.00  0.00    +0.000 A 
ATOM     36  C   LIG    1        4.080   3.228   1.724  0.00  0.00    +0.006 A 
ENDBRANCH  19  31
ENDBRANCH   3  19
TORSDOF 6
