REMARK  Name = *****
REMARK                            x       y       z     vdW  Elec       q    Type
REMARK                         _______ _______ _______ _____ _____    ______ ____
ROOT
ATOM      1  C   LIG    1        4.774  -0.950   0.801  0.00  0.00    +0.100 A 
ATOM      2  C   LIG    1        5.495  -2.129   0.581  0.00  0.00    +0.131 A 
ATOM      3  C   LIG    1        6.875  -2.080   0.360  0.00  0.00    +0.049 A 
ATOM      4  C   LIG    1        7.550  -0.851   0.336  0.00  0.00    -0.047 A 
ATOM      5  C   LIG    1        9.029  -0.818   0.088  0.00  0.00    +0.044 C 
ATOM      6  C   LIG    1        6.829   0.328   0.552  0.00  0.00    +0.004 A 
ATOM      7  C   LIG    1        5.450   0.280   0.777  0.00  0.00    +0.019 A 
ENDROOT
BRANCH   1   8
ATOM      8  C   LIG    1        3.313  -0.913   1.050  0.00  0.00    +0.343 C 
ATOM      9  O   LIG    1        2.598   0.014   0.693  0.00  0.00    -0.245 OA
BRANCH   8  11
ATOM     10  C   LIG    1        1.550  -1.983   2.162  0.00  0.00    +0.280 C 
ATOM     11  O   LIG    1        2.933  -1.964   1.814  0.00  0.00    -0.464 OA
ENDBRANCH   8  11
ENDBRANCH   1   8
BRANCH   2  12
ATOM     12  O   LIG    1        4.864  -3.341   0.539  0.00  0.00    -0.506 OA
ATOM     13  H   LIG    1        5.524  -4.049   0.465  0.00  0.00    +0.292 HD
ENDBRANCH   2  12
TORSDOF 3
