REMARK  Name = *****
REMARK                            x       y       z     vdW  Elec       q    Type
REMARK                         _______ _______ _______ _____ _____    ______ ____
ROOT
ATOM      1  C   LIG    1        6.742   4.435  -7.655  0.00  0.00    +0.037 A 
ATOM      2  C   LIG    1        6.613   3.355  -6.757  0.00  0.00    -0.026 A 
ATOM      3  C   LIG    1        5.327   2.808  -6.555  0.00  0.00    +0.005 A 
ATOM      4  C   LIG    1        4.204   3.329  -7.203  0.00  0.00    +0.000 A 
ATOM      5  C   LIG    1        4.340   4.409  -8.059  0.00  0.00    +0.002 A 
ATOM      6  C   LIG    1        5.599   4.950  -8.282  0.00  0.00    +0.023 A 
ENDROOT
BRANCH   1   8
ATOM      7  C   LIG    1        8.315   5.831  -8.987  0.00  0.00    +0.248 C 
ATOM      8  N   LIG    1        8.004   5.010  -7.906  0.00  0.00    -0.281 N 
ATOM      9  H   LIG    1        8.729   4.787  -7.243  0.00  0.00    +0.155 HD
ATOM     10  O   LIG    1        7.583   6.169  -9.900  0.00  0.00    -0.270 OA
BRANCH   7  14
ATOM     11  C   LIG    1       12.296   7.381  -9.068  0.00  0.00    +0.120 A 
ATOM     12  C   LIG    1       11.234   8.113  -9.602  0.00  0.00    +0.046 A 
ATOM     13  C   LIG    1        9.942   7.597  -9.575  0.00  0.00    +0.016 A 
ATOM     14  C   LIG    1        9.706   6.339  -9.012  0.00  0.00    +0.037 A 
ATOM     15  C   LIG    1       10.773   5.579  -8.527  0.00  0.00    +0.016 A 
ATOM     16  C   LIG    1       12.066   6.100  -8.560  0.00  0.00    +0.046 A 
BRANCH  11  18
ATOM     17  C   LIG    1       13.719   9.246  -8.954  0.00  0.00    +0.277 C 
ATOM     18  O   LIG    1       13.589   7.827  -9.029  0.00  0.00    -0.495 OA
ENDBRANCH  11  18
ENDBRANCH   7  14
ENDBRANCH   1   8
BRANCH   2  19
ATOM     19  C   LIG    1        7.786   2.700  -6.043  0.00  0.00    +0.038 C 
BRANCH  19  20
ATOM     20  C   LIG    1        8.094   3.303  -4.660  0.00  0.00    +0.023 C 
BRANCH  20  21
ATOM     21  C   LIG    1        9.291   2.644  -3.906  0.00  0.00    +0.057 C 
ATOM     22  N   LIG    1       10.604   2.835  -4.579  0.00  0.00    -0.302 NA
ATOM     23  C   LIG    1       10.967   4.253  -4.694  0.00  0.00    +0.105 C 
ATOM     24  C   LIG    1       11.693   2.136  -3.866  0.00  0.00    +0.084 C 
ATOM     25  C   LIG    1       11.421   0.642  -3.744  0.00  0.00    +0.015 C 
ATOM     26  C   LIG    1       10.129   0.408  -2.980  0.00  0.00    +0.003 C 
ATOM     27  C   LIG    1        8.990   1.144  -3.671  0.00  0.00    +0.019 C 
ENDBRANCH  20  21
ENDBRANCH  19  20
ENDBRANCH   2  19
TORSDOF 6
