REMARK  Name = *****
REMARK                            x       y       z     vdW  Elec       q    Type
REMARK                         _______ _______ _______ _____ _____    ______ ____
ROOT
ATOM      1  C   LIG    1        4.703   3.853  -6.436  0.00  0.00    -0.007 A 
ATOM      2  C   LIG    1        3.697   3.488  -7.342  0.00  0.00    +0.122 A 
ATOM      3  N   LIG    1        2.681   4.307  -7.724  0.00  0.00    -0.221 NA
ATOM      4  C   LIG    1        2.657   5.569  -7.245  0.00  0.00    +0.215 A 
ATOM      5  C   LIG    1        3.637   6.026  -6.372  0.00  0.00    +0.068 A 
ATOM      6  C   LIG    1        4.644   5.165  -5.969  0.00  0.00    +0.015 A 
ENDROOT
BRANCH   1   8
ATOM      7  C   LIG    1        6.593   3.128  -5.001  0.00  0.00    +0.008 C 
ATOM      8  C   LIG    1        5.810   2.959  -6.086  0.00  0.00    +0.010 C 
BRANCH   7  12
ATOM      9  C   LIG    1       10.229   1.085  -4.064  0.00  0.00    +0.027 A 
ATOM     10  C   LIG    1        9.363   1.537  -3.062  0.00  0.00    +0.023 A 
ATOM     11  C   LIG    1        8.169   2.186  -3.375  0.00  0.00    +0.009 A 
ATOM     12  C   LIG    1        7.781   2.339  -4.713  0.00  0.00    -0.025 A 
ATOM     13  C   LIG    1        8.606   1.835  -5.720  0.00  0.00    +0.009 A 
ATOM     14  C   LIG    1        9.804   1.199  -5.396  0.00  0.00    +0.023 A 
BRANCH   9  16
ATOM     15  C   LIG    1       12.546   0.612  -4.603  0.00  0.00    +0.125 C 
ATOM     16  N   LIG    1       11.421   0.449  -3.695  0.00  0.00    -0.347 N 
ATOM     17  H   LIG    1       11.675   0.688  -2.739  0.00  0.00    +0.146 HD
ENDBRANCH   9  16
ENDBRANCH   7  12
ENDBRANCH   1   8
BRANCH   4  18
ATOM     18  O   LIG    1        1.604   6.311  -7.699  0.00  0.00    -0.474 OA
BRANCH  18  19
ATOM     19  C   LIG    1        1.640   7.731  -7.539  0.00  0.00    +0.259 C 
BRANCH  19  20
ATOM     20  C   LIG    1        1.294   8.438  -8.853  0.00  0.00    +0.201 C 
BRANCH  20  21
ATOM     21  O   LIG    1        2.108   8.029  -9.951  0.00  0.00    -0.374 OA
BRANCH  21  22
ATOM     22  C   LIG    1        3.498   8.314  -9.788  0.00  0.00    +0.188 C 
BRANCH  22  23
ATOM     23  C   LIG    1        4.236   7.855 -11.036  0.00  0.00    +0.188 C 
BRANCH  23  24
ATOM     24  O   LIG    1        3.964   8.745 -12.124  0.00  0.00    -0.375 OA
BRANCH  24  25
ATOM     25  C   LIG    1        4.500   8.214 -13.333  0.00  0.00    +0.193 C 
BRANCH  25  26
ATOM     26  C   LIG    1        4.164   9.114 -14.504  0.00  0.00    +0.241 C 
ATOM     27  F   LIG    1        4.719   8.593 -15.631  0.00  0.00    -0.247 F 
ENDBRANCH  25  26
ENDBRANCH  24  25
ENDBRANCH  23  24
ENDBRANCH  22  23
ENDBRANCH  21  22
ENDBRANCH  20  21
ENDBRANCH  19  20
ENDBRANCH  18  19
ENDBRANCH   4  18
TORSDOF 12
