REMARK  Name = *****
REMARK                            x       y       z     vdW  Elec       q    Type
REMARK                         _______ _______ _______ _____ _____    ______ ____
ROOT
ATOM      1  N   LIG    1        8.076  -7.255  -2.435  0.00  0.00    -0.119 NA
ATOM      2  C   LIG    1        8.184  -8.148  -1.489  0.00  0.00    +0.158 C 
ENDROOT
BRANCH   2   3
ATOM      3  C   LIG    1        8.473  -7.915  -0.080  0.00  0.00    +0.021 C 
ATOM      4  C   LIG    1        9.092  -8.818   0.861  0.00  0.00    +0.012 C 
ATOM      5  C   LIG    1        9.005  -8.213   2.118  0.00  0.00    +0.047 C 
ATOM      6  C   LIG    1        9.426  -8.824   3.296  0.00  0.00    +0.030 C 
ATOM      7  C   LIG    1        9.948 -10.108   3.202  0.00  0.00    +0.048 C 
ATOM      8  C   LIG    1       10.110 -10.744   1.972  0.00  0.00    +0.121 C 
ATOM      9  N   LIG    1        8.453  -6.971   1.947  0.00  0.00    -0.360 NA
ATOM     10  H   LIG    1        8.301  -6.305   2.692  0.00  0.00    +0.165 HD
ATOM     11  C   LIG    1        9.709 -10.095   0.787  0.00  0.00    +0.056 C 
ATOM     12  C   LIG    1        8.092  -6.798   0.645  0.00  0.00    +0.093 C 
BRANCH   8  13
ATOM     13  O   LIG    1       10.649 -12.004   1.840  0.00  0.00    -0.495 OA
ATOM     14  C   LIG    1       10.939 -12.664   3.077  0.00  0.00    +0.277 C 
ENDBRANCH   8  13
ENDBRANCH   2   3
BRANCH   1  15
ATOM     15  N   LIG    1        8.410  -5.958  -2.153  0.00  0.00    -0.155 N 
ATOM     16  H   LIG    1        9.031  -5.770  -1.368  0.00  0.00    +0.292 HD
BRANCH  15  17
ATOM     17  C   LIG    1        8.512  -4.942  -3.074  0.00  0.00    +0.402 C 
ATOM     18  N   LIG    1        9.269  -3.941  -2.860  0.00  0.00    -0.128 NA
ATOM     19  H   LIG    1        9.171  -3.296  -3.648  0.00  0.00    +0.306 HD
BRANCH  17  20
ATOM     20  N   LIG    1        7.730  -5.141  -4.171  0.00  0.00    -0.274 N 
ATOM     21  H   LIG    1        7.263  -6.038  -4.086  0.00  0.00    +0.258 HD
BRANCH  20  22
ATOM     22  C   LIG    1        8.153  -4.848  -5.530  0.00  0.00    +0.196 C 
BRANCH  22  23
ATOM     23  C   LIG    1        9.289  -5.779  -5.958  0.00  0.00    +0.037 C 
BRANCH  23  24
ATOM     24  C   LIG    1        9.757  -5.483  -7.385  0.00  0.00    +0.003 C 
BRANCH  24  26
ATOM     25  C   LIG    1       11.351  -6.076  -9.239  0.00  0.00    +0.004 C 
ATOM     26  C   LIG    1       10.907  -6.395  -7.818  0.00  0.00    -0.003 C 
ENDBRANCH  24  26
ENDBRANCH  23  24
ENDBRANCH  22  23
ENDBRANCH  20  22
ENDBRANCH  17  20
ENDBRANCH  15  17
ENDBRANCH   1  15
TORSDOF 9
