REMARK  Name = *****
REMARK                            x       y       z     vdW  Elec       q    Type
REMARK                         _______ _______ _______ _____ _____    ______ ____
ROOT
ATOM      1  C   LIG    1        4.068  -5.864  -1.714  0.00  0.00    +0.099 A 
ATOM      2  C   LIG    1        4.835  -4.724  -1.410  0.00  0.00    +0.137 A 
ATOM      3  N   LIG    1        6.102  -4.864  -0.942  0.00  0.00    -0.239 NA
ATOM      4  C   LIG    1        6.617  -6.107  -0.790  0.00  0.00    +0.113 A 
ATOM      5  C   LIG    1        5.931  -7.267  -1.085  0.00  0.00    +0.021 A 
ATOM      6  C   LIG    1        4.635  -7.141  -1.556  0.00  0.00    +0.020 A 
ENDROOT
BRANCH   1   8
ATOM      7  O   LIG    1        2.179  -4.792  -2.736  0.00  0.00    -0.245 OA
ATOM      8  C   LIG    1        2.653  -5.742  -2.150  0.00  0.00    +0.346 C 
BRANCH   8   9
ATOM      9  O   LIG    1        1.998  -6.847  -1.725  0.00  0.00    -0.417 OA
BRANCH   9  10
ATOM     10  C   LIG    1        0.575  -6.793  -1.716  0.00  0.00    +0.403 C 
ATOM     11  C   LIG    1        0.101  -8.202  -1.702  0.00  0.00    +0.047 A 
ATOM     12  C   LIG    1       -0.524  -8.457  -0.503  0.00  0.00    +0.069 A 
ATOM     13  C   LIG    1       -0.985  -9.712  -0.147  0.00  0.00    +0.015 A 
ATOM     14  C   LIG    1       -0.795 -10.751  -1.060  0.00  0.00    +0.001 A 
ATOM     15  C   LIG    1       -0.184 -10.500  -2.300  0.00  0.00    +0.001 A 
ATOM     16  C   LIG    1       -0.561  -7.223   0.279  0.00  0.00    +0.343 C 
ATOM     17  O   LIG    1       -1.082  -7.072   1.359  0.00  0.00    -0.245 OA
ATOM     18  C   LIG    1        0.264  -9.216  -2.633  0.00  0.00    +0.012 A 
ATOM     19  O   LIG    1        0.104  -6.278  -0.457  0.00  0.00    -0.417 OA
ENDBRANCH   9  10
ENDBRANCH   8   9
ENDBRANCH   1   8
BRANCH   2  20
ATOM     20  N   LIG    1        4.260  -3.438  -1.510  0.00  0.00    -0.299 N 
ATOM     21  H   LIG    1        3.635  -3.373  -2.312  0.00  0.00    +0.154 HD
BRANCH  20  22
ATOM     22  C   LIG    1        4.626  -2.186  -0.978  0.00  0.00    +0.033 A 
ATOM     23  C   LIG    1        3.890  -1.053  -1.369  0.00  0.00    +0.035 A 
ATOM     24  C   LIG    1        4.109   0.217  -0.799  0.00  0.00    +0.057 A 
ATOM     25  C   LIG    1        5.092   0.354   0.186  0.00  0.00    +0.012 A 
ATOM     26  C   LIG    1        5.830  -0.756   0.590  0.00  0.00    +0.002 A 
ATOM     27  C   LIG    1        5.591  -2.012   0.018  0.00  0.00    +0.023 A 
BRANCH  24  28
ATOM     28  C   LIG    1        3.274   1.392  -1.240  0.00  0.00    +0.417 C 
ATOM     29  F   LIG    1        1.942   1.195  -1.034  0.00  0.00    -0.166 F 
ATOM     30  F   LIG    1        3.409   1.658  -2.570  0.00  0.00    -0.166 F 
ATOM     31  F   LIG    1        3.579   2.555  -0.598  0.00  0.00    -0.166 F 
ENDBRANCH  24  28
ENDBRANCH  20  22
ENDBRANCH   2  20
TORSDOF 6
