REMARK  Name = *****
REMARK                            x       y       z     vdW  Elec       q    Type
REMARK                         _______ _______ _______ _____ _____    ______ ____
ROOT
ATOM      1  N   LIG    1        7.351   3.083  -2.844  0.00  0.00    -0.298 N 
ATOM      2  C   LIG    1        7.851   2.159  -1.881  0.00  0.00    +0.048 A 
ATOM      3  C   LIG    1        9.039   2.401  -1.165  0.00  0.00    +0.034 A 
ATOM      4  C   LIG    1        9.553   1.438  -0.279  0.00  0.00    +0.017 A 
ATOM      5  C   LIG    1        8.884   0.238  -0.061  0.00  0.00    +0.001 A 
ATOM      6  C   LIG    1        7.674   0.011  -0.702  0.00  0.00    +0.002 A 
ATOM      7  S   LIG    1       10.016   3.873  -1.363  0.00  0.00    -0.086 S 
ATOM      8  C   LIG    1        8.912   4.923  -2.281  0.00  0.00    +0.034 A 
ATOM      9  C   LIG    1        9.283   6.278  -2.363  0.00  0.00    +0.017 A 
ATOM     10  C   LIG    1        8.502   7.191  -3.057  0.00  0.00    +0.001 A 
ATOM     11  C   LIG    1        7.339   6.750  -3.682  0.00  0.00    +0.002 A 
ATOM     12  C   LIG    1        6.975   5.398  -3.617  0.00  0.00    +0.024 A 
ATOM     13  C   LIG    1        7.157   0.968  -1.583  0.00  0.00    +0.024 A 
ATOM     14  C   LIG    1        7.753   4.446  -2.929  0.00  0.00    +0.048 A 
ENDROOT
BRANCH   1  15
ATOM     15  C   LIG    1        6.782   2.479  -4.084  0.00  0.00    +0.112 C 
BRANCH  15  16
ATOM     16  C   LIG    1        7.765   2.438  -5.271  0.00  0.00    +0.035 C 
BRANCH  16  17
ATOM     17  C   LIG    1        9.043   1.648  -4.953  0.00  0.00    +0.086 C 
BRANCH  17  22
ATOM     18  C   LIG    1       13.349   3.340  -3.883  0.00  0.00    +0.105 C 
ATOM     19  N   LIG    1       12.586   2.710  -4.957  0.00  0.00    -0.303 NA
ATOM     20  C   LIG    1       11.454   3.564  -5.366  0.00  0.00    +0.099 C 
ATOM     21  C   LIG    1       10.570   2.885  -6.440  0.00  0.00    +0.100 C 
ATOM     22  N   LIG    1       10.027   1.561  -6.052  0.00  0.00    -0.300 NA
ATOM     23  C   LIG    1       11.184   0.728  -5.622  0.00  0.00    +0.100 C 
ATOM     24  C   LIG    1       12.100   1.379  -4.549  0.00  0.00    +0.099 C 
ENDBRANCH  17  22
ENDBRANCH  16  17
ENDBRANCH  15  16
ENDBRANCH   1  15
TORSDOF 4
