REMARK  Name = *****
REMARK                            x       y       z     vdW  Elec       q    Type
REMARK                         _______ _______ _______ _____ _____    ______ ____
ROOT
ATOM      1  O   LIG    1        8.996  -3.211  -8.384  0.00  0.00    -0.343 OA
ENDROOT
BRANCH   1   3
ATOM      2  C   LIG    1       10.903  -3.004 -10.277  0.00  0.00    +0.188 C 
ATOM      3  C   LIG    1       10.429  -3.031  -8.738  0.00  0.00    +0.157 C 
ATOM      4  C   LIG    1       11.066  -1.835  -7.851  0.00  0.00    +0.028 C 
ATOM      5  C   LIG    1       10.395  -0.521  -8.271  0.00  0.00    +0.012 C 
ATOM      6  C   LIG    1       10.236   0.932  -7.793  0.00  0.00    +0.019 C 
ATOM      7  C   LIG    1       11.397   1.806  -8.120  0.00  0.00    +0.010 C 
ATOM      8  C   LIG    1        8.809   1.620  -8.292  0.00  0.00    +0.140 C 
ATOM      9  C   LIG    1        8.406   1.513  -9.766  0.00  0.00    +0.004 C 
ATOM     10  C   LIG    1        7.245   0.986 -10.253  0.00  0.00    -0.002 C 
ATOM     11  C   LIG    1        7.107   0.483 -11.646  0.00  0.00    -0.004 C 
ATOM     12  C   LIG    1        6.277  -0.487 -12.108  0.00  0.00    -0.023 C 
ATOM     13  C   LIG    1        6.377  -1.327 -13.386  0.00  0.00    +0.071 C 
ATOM     14  C   LIG    1        6.553  -2.908 -13.254  0.00  0.00    +0.177 C 
ATOM     15  C   LIG    1        5.955  -3.590 -14.492  0.00  0.00    +0.052 C 
ATOM     16  O   LIG    1        7.980  -3.238 -13.227  0.00  0.00    -0.461 OA
ATOM     17  C   LIG    1        8.489  -4.376 -12.664  0.00  0.00    +0.311 C 
ATOM     18  O   LIG    1        7.811  -5.362 -12.315  0.00  0.00    -0.251 OA
ATOM     19  C   LIG    1       10.014  -4.302 -12.566  0.00  0.00    +0.168 C 
ATOM     20  C   LIG    1       10.851  -4.256 -11.233  0.00  0.00    +0.218 C 
BRANCH   8  21
ATOM     21  O   LIG    1        8.706   2.963  -7.821  0.00  0.00    -0.388 OA
ATOM     22  H   LIG    1        8.181   2.918  -6.998  0.00  0.00    +0.210 HD
ENDBRANCH   8  21
BRANCH   2  24
ATOM     23  C   LIG    1        9.392  -1.673 -11.527  0.00  0.00    +0.194 C 
ATOM     24  O   LIG    1       10.677  -1.812 -11.013  0.00  0.00    -0.373 OA
ENDBRANCH   2  24
BRANCH   4  25
ATOM     25  C   LIG    1       12.552  -1.716  -7.621  0.00  0.00    +0.077 C 
BRANCH  25  26
ATOM     26  C   LIG    1       13.366  -1.106  -8.749  0.00  0.00    +0.223 C 
ATOM     27  O   LIG    1       12.944  -0.662  -9.754  0.00  0.00    -0.301 OA
ENDBRANCH  25  26
ENDBRANCH   4  25
BRANCH  20  28
ATOM     28  O   LIG    1       12.190  -4.292 -11.896  0.00  0.00    -0.458 OA
BRANCH  28  29
ATOM     29  C   LIG    1       13.280  -4.726 -11.245  0.00  0.00    +0.304 C 
ATOM     30  O   LIG    1       13.635  -4.391 -10.093  0.00  0.00    -0.251 OA
ATOM     31  C   LIG    1       13.887  -5.832 -12.022  0.00  0.00    +0.136 C 
ENDBRANCH  28  29
ENDBRANCH  20  28
ENDBRANCH   1   3
BRANCH   1  32
ATOM     32  C   LIG    1        8.017  -2.242  -8.775  0.00  0.00    +0.281 C 
ATOM     33  C   LIG    1        6.609  -2.714  -8.944  0.00  0.00    +0.190 C 
ATOM     34  C   LIG    1        5.775  -2.526  -7.650  0.00  0.00    +0.121 C 
ATOM     35  C   LIG    1        6.648  -2.073  -6.360  0.00  0.00    +0.169 C 
ATOM     36  C   LIG    1        7.406  -0.854  -6.812  0.00  0.00    +0.149 C 
ATOM     37  C   LIG    1        8.498  -0.284  -5.866  0.00  0.00    +0.040 C 
ATOM     38  O   LIG    1        7.863  -0.988  -8.148  0.00  0.00    -0.343 OA
BRANCH  34  39
ATOM     39  N   LIG    1        4.865  -3.688  -7.566  0.00  0.00    -0.301 NA
ATOM     40  C   LIG    1        5.620  -4.896  -7.244  0.00  0.00    +0.105 C 
ATOM     41  C   LIG    1        4.128  -3.921  -8.836  0.00  0.00    +0.105 C 
ENDBRANCH  34  39
BRANCH  33  42
ATOM     42  O   LIG    1        5.916  -1.922  -9.912  0.00  0.00    -0.385 OA
ATOM     43  H   LIG    1        5.917  -1.008  -9.575  0.00  0.00    +0.210 HD
ENDBRANCH  33  42
BRANCH  35  44
ATOM     44  O   LIG    1        5.830  -1.678  -5.230  0.00  0.00    -0.344 OA
BRANCH  44  45
ATOM     45  C   LIG    1        6.477  -1.199  -4.021  0.00  0.00    +0.254 C 
ATOM     46  O   LIG    1        7.422  -2.131  -3.526  0.00  0.00    -0.344 OA
ATOM     47  C   LIG    1        7.979  -1.898  -2.220  0.00  0.00    +0.162 C 
ATOM     48  C   LIG    1        9.117  -0.869  -2.256  0.00  0.00    +0.042 C 
ATOM     49  C   LIG    1        6.897  -1.626  -1.127  0.00  0.00    +0.236 C 
ATOM     50  C   LIG    1        5.918  -0.515  -1.601  0.00  0.00    +0.107 C 
ATOM     51  C   LIG    1        6.496   0.905  -1.412  0.00  0.00    +0.045 C 
ATOM     52  C   LIG    1        5.413  -0.781  -3.027  0.00  0.00    +0.099 C 
BRANCH  50  53
ATOM     53  O   LIG    1        4.805  -0.415  -0.714  0.00  0.00    -0.385 OA
ATOM     54  H   LIG    1        3.979  -0.405  -1.227  0.00  0.00    +0.210 HD
ENDBRANCH  50  53
BRANCH  49  55
ATOM     55  O   LIG    1        6.308  -2.947  -0.817  0.00  0.00    -0.456 OA
BRANCH  55  56
ATOM     56  C   LIG    1        5.350  -3.133   0.136  0.00  0.00    +0.308 C 
ATOM     57  O   LIG    1        4.232  -2.635   0.138  0.00  0.00    -0.251 OA
BRANCH  56  58
ATOM     58  C   LIG    1        5.736  -4.186   1.160  0.00  0.00    +0.123 C 
BRANCH  58  59
ATOM     59  C   LIG    1        6.453  -3.640   2.405  0.00  0.00    -0.007 C 
ATOM     60  C   LIG    1        6.851  -4.793   3.338  0.00  0.00    +0.007 C 
ATOM     61  C   LIG    1        5.577  -2.641   3.168  0.00  0.00    +0.007 C 
ENDBRANCH  58  59
ENDBRANCH  56  58
ENDBRANCH  55  56
ENDBRANCH  49  55
ENDBRANCH  44  45
ENDBRANCH  35  44
ENDBRANCH   1  32
TORSDOF 17
