REMARK  Name = *****
REMARK                            x       y       z     vdW  Elec       q    Type
REMARK                         _______ _______ _______ _____ _____    ______ ____
ROOT
ATOM      1  C   UNK A  0        4.293  -0.431   3.120  0.00  0.00    +0.027 A 
ATOM      2  C   UNK A  0        4.477  -1.635   3.807  0.00  0.00    +0.024 A 
ATOM      3  C   UNK A  0        5.512  -1.801   4.729  0.00  0.00    +0.015 A 
ATOM      4  C   UNK A  0        6.417  -0.760   4.979  0.00  0.00    +0.037 A 
ATOM      5  C   UNK A  0        6.325   0.402   4.211  0.00  0.00    +0.015 A 
ATOM      6  C   UNK A  0        5.279   0.555   3.281  0.00  0.00    +0.024 A 
ENDROOT
BRANCH   4   7
ATOM      7  C   UNK A  0        7.482  -0.920   6.012  0.00  0.00    +0.245 C 
ATOM      8  N   GLU A  1        7.196  -1.832   7.020  0.00  0.00    -0.298 N 
ATOM      9  H   GLU A  1        6.254  -2.219   7.090  0.00  0.00    +0.150 HD
ATOM     10  O   UNK A  0        8.525  -0.281   5.971  0.00  0.00    -0.270 OA
BRANCH   8  11
ATOM     11  CA  GLU A  1        8.102  -2.168   8.125  0.00  0.00    +0.182 C 
BRANCH  11  12
ATOM     12  C   GLU A  1        8.441  -3.668   8.016  0.00  0.00    +0.325 C 
ATOM     13  O   GLU A  1        8.741  -4.392   8.951  0.00  0.00    -0.249 OA
BRANCH  12  14
ATOM     14  OXT GLU A  1        8.449  -4.114   6.732  0.00  0.00    -0.479 OA
ATOM     15  HXT GLU A  1        8.312  -3.365   6.117  0.00  0.00    +0.295 HD
ENDBRANCH  12  14
ENDBRANCH  11  12
BRANCH  11  16
ATOM     16  CB  GLU A  1        7.485  -1.850   9.490  0.00  0.00    +0.045 C 
BRANCH  16  17
ATOM     17  CG  GLU A  1        7.181  -0.359   9.670  0.00  0.00    +0.123 C 
BRANCH  17  18
ATOM     18  CD  GLU A  1        6.548  -0.038  10.993  0.00  0.00    +0.305 C 
ATOM     19  OE1 GLU A  1        5.754   0.875  11.195  0.00  0.00    -0.251 OA
BRANCH  18  20
ATOM     20  OE2 GLU A  1        6.980  -0.798  12.014  0.00  0.00    -0.481 OA
ATOM     21  HE2 GLU A  1        6.516  -0.438  12.799  0.00  0.00    +0.295 HD
ENDBRANCH  18  20
ENDBRANCH  17  18
ENDBRANCH  16  17
ENDBRANCH  11  16
ENDBRANCH   8  11
ENDBRANCH   4   7
BRANCH   1  22
ATOM     22  N   UNK A  0        3.255  -0.247   2.186  0.00  0.00    -0.342 N 
ATOM     23  H   UNK A  0        3.056   0.747   2.045  0.00  0.00    +0.146 HD
BRANCH  22  24
ATOM     24  C   UNK A  0        1.983  -0.942   2.485  0.00  0.00    +0.125 C 
BRANCH  24  27
ATOM     25  C   UNK A  0        0.810   1.386  -0.029  0.00  0.00    +0.130 C 
ATOM     26  N   UNK A  0        0.634   0.838   1.317  0.00  0.00    -0.320 N 
ATOM     27  C   UNK A  0        0.877  -0.637   1.437  0.00  0.00    +0.107 C 
ATOM     28  C   UNK A  0       -0.435  -1.353   1.859  0.00  0.00    +0.127 C 
ATOM     29  N   UNK A  0       -1.001  -0.701   3.039  0.00  0.00    -0.326 N 
ATOM     30  H   UNK A  0       -1.869  -1.083   3.404  0.00  0.00    +0.148 HD
ATOM     31  C   UNK A  0       -1.033   0.695   3.117  0.00  0.00    +0.149 C 
ATOM     32  N   UNK A  0       -1.849   1.243   4.074  0.00  0.00    -0.199 NA
ATOM     33  C   UNK A  0       -1.858   2.525   4.219  0.00  0.00    +0.195 C 
ATOM     34  N   UNK A  0       -1.151   3.360   3.424  0.00  0.00    -0.294 N 
ATOM     35  H   UNK A  0       -1.267   4.356   3.497  0.00  0.00    +0.172 HD
ATOM     36  C   UNK A  0       -0.421   2.917   2.363  0.00  0.00    +0.276 C 
ATOM     37  O   UNK A  0        0.067   3.723   1.574  0.00  0.00    -0.266 OA
ATOM     38  C   UNK A  0       -0.266   1.425   2.254  0.00  0.00    +0.135 C 
BRANCH  33  39
ATOM     39  N   UNK A  0       -2.587   3.103   5.206  0.00  0.00    -0.329 N 
ATOM     40  H   UNK A  0       -2.153   3.897   5.659  0.00  0.00    +0.145 HD
ATOM     41  H   UNK A  0       -2.904   2.411   5.878  0.00  0.00    +0.145 HD
ENDBRANCH  33  39
ENDBRANCH  24  27
ENDBRANCH  22  24
ENDBRANCH   1  22
TORSDOF 12
