REMARK  Name = *****
REMARK                            x       y       z     vdW  Elec       q    Type
REMARK                         _______ _______ _______ _____ _____    ______ ____
ROOT
ATOM      1  C   LIG    1        2.615  -2.454   1.012  0.00  0.00    +0.122 A 
ATOM      2  C   LIG    1        1.913  -2.797   2.155  0.00  0.00    +0.046 A 
ATOM      3  C   LIG    1        1.820  -4.140   2.547  0.00  0.00    +0.007 A 
ATOM      4  C   LIG    1        2.406  -5.182   1.809  0.00  0.00    -0.041 A 
ATOM      5  C   LIG    1        3.155  -4.811   0.684  0.00  0.00    +0.007 A 
ATOM      6  C   LIG    1        3.260  -3.467   0.296  0.00  0.00    +0.046 A 
ENDROOT
BRANCH   4   7
ATOM      7  C   LIG    1        2.114  -6.633   2.133  0.00  0.00    +0.058 C 
ATOM      8  C   LIG    1        3.088  -7.605   2.758  0.00  0.00    +0.126 C 
ATOM      9 CL   LIG    1        4.721  -7.114   3.166  0.00  0.00    -0.100 Cl
ATOM     10 CL   LIG    1        2.960  -9.308   2.308  0.00  0.00    -0.100 Cl
ATOM     11  C   LIG    1        1.964  -7.049   3.581  0.00  0.00    +0.050 C 
ENDBRANCH   4   7
BRANCH   1  12
ATOM     12  O   LIG    1        2.713  -1.219   0.450  0.00  0.00    -0.475 OA
BRANCH  12  14
ATOM     13  C   LIG    1        2.804   0.305   2.399  0.00  0.00    +0.067 C 
ATOM     14  C   LIG    1        2.188  -0.020   1.034  0.00  0.00    +0.200 C 
ATOM     15  C   LIG    1        2.643   1.077   0.051  0.00  0.00    +0.067 C 
BRANCH  14  16
ATOM     16  C   LIG    1        0.642   0.100   1.080  0.00  0.00    +0.348 C 
ATOM     17  O   LIG    1        0.027   0.851   1.815  0.00  0.00    -0.246 OA
BRANCH  16  18
ATOM     18  O   LIG    1        0.016  -0.684   0.163  0.00  0.00    -0.478 OA
ATOM     19  H   LIG    1        0.644  -1.228  -0.348  0.00  0.00    +0.295 HD
ENDBRANCH  16  18
ENDBRANCH  14  16
ENDBRANCH  12  14
ENDBRANCH   1  12
TORSDOF 5
