REMARK  Name = *****
REMARK                            x       y       z     vdW  Elec       q    Type
REMARK                         _______ _______ _______ _____ _____    ______ ____
ROOT
ATOM      1  C   LIG    1        8.780   4.216   3.460  0.00  0.00    +0.165 C 
ATOM      2  C   LIG    1       10.261   4.172   4.040  0.00  0.00    +0.012 C 
ATOM      3  C   LIG    1       10.790   2.745   3.679  0.00  0.00    +0.004 C 
ATOM      4  C   LIG    1       11.718   2.759   2.455  0.00  0.00    -0.000 C 
ATOM      5  C   LIG    1       12.972   3.653   2.729  0.00  0.00    +0.035 C 
ATOM      6  C   LIG    1       12.598   5.035   3.334  0.00  0.00    +0.120 C 
ATOM      7  C   LIG    1       14.184   2.974   3.517  0.00  0.00    +0.013 C 
ATOM      8  C   LIG    1       14.410   1.515   3.060  0.00  0.00    -0.056 C 
ATOM      9  C   LIG    1       15.460   0.848   3.598  0.00  0.00    +0.051 C 
ATOM     10  C   LIG    1       15.262   0.731   5.093  0.00  0.00    +0.179 C 
ATOM     11  C   LIG    1       14.535   1.853   5.762  0.00  0.00    +0.047 C 
ATOM     12  O   LIG    1       15.737  -0.196   5.734  0.00  0.00    -0.288 OA
ATOM     13  C   LIG    1       13.145   0.694   2.877  0.00  0.00    +0.032 C 
ATOM     14  C   LIG    1       15.444   3.849   3.244  0.00  0.00    +0.020 C 
ATOM     15  C   LIG    1       14.057   2.890   5.047  0.00  0.00    -0.012 C 
ATOM     16  C   LIG    1       12.164   1.379   1.946  0.00  0.00    +0.008 C 
ATOM     17  C   LIG    1        9.530   1.869   3.647  0.00  0.00    +0.039 C 
ATOM     18  C   LIG    1       10.359   4.247   5.591  0.00  0.00    +0.015 C 
ATOM     19  C   LIG    1       11.105   5.318   3.429  0.00  0.00    +0.042 C 
ATOM     20  C   LIG    1        8.360   2.756   3.257  0.00  0.00    +0.162 C 
ATOM     21  O   LIG    1        8.086   2.573   1.866  0.00  0.00    -0.344 OA
ATOM     22  C   LIG    1        7.900   3.876   1.331  0.00  0.00    +0.255 C 
ATOM     23  O   LIG    1        8.716   4.755   2.121  0.00  0.00    -0.334 OA
ENDROOT
BRANCH  22  24
ATOM     24  C   LIG    1        8.268   3.886  -0.180  0.00  0.00    +0.045 C 
ATOM     25  C   LIG    1        7.532   2.816  -1.020  0.00  0.00    +0.008 C 
ATOM     26  C   LIG    1        6.041   3.107  -1.196  0.00  0.00    +0.000 C 
ATOM     27  C   LIG    1        5.808   4.468  -1.843  0.00  0.00    +0.000 C 
ATOM     28  C   LIG    1        6.591   5.573  -1.144  0.00  0.00    +0.000 C 
ATOM     29  C   LIG    1        8.062   5.242  -0.879  0.00  0.00    +0.008 C 
ENDBRANCH  22  24
BRANCH   1  30
ATOM     30  C   LIG    1        7.796   4.931   4.422  0.00  0.00    +0.205 C 
ATOM     31  O   LIG    1        7.277   4.331   5.372  0.00  0.00    -0.291 OA
BRANCH  30  32
ATOM     32  C   LIG    1        7.509   6.414   4.217  0.00  0.00    +0.309 C 
BRANCH  32  33
ATOM     33  O   LIG    1        6.089   6.600   4.144  0.00  0.00    -0.457 OA
BRANCH  33  34
ATOM     34  C   LIG    1        5.553   6.521   2.886  0.00  0.00    +0.310 C 
ATOM     35  O   LIG    1        6.211   6.520   1.876  0.00  0.00    -0.251 OA
BRANCH  34  37
ATOM     36  C   LIG    1        3.414   7.030   4.125  0.00  0.00    +0.019 C 
ATOM     37  C   LIG    1        4.042   6.276   2.959  0.00  0.00    +0.092 C 
ATOM     38  C   LIG    1        3.343   6.639   1.650  0.00  0.00    +0.019 C 
ENDBRANCH  34  37
ENDBRANCH  33  34
ENDBRANCH  32  33
ENDBRANCH  30  32
ENDBRANCH   1  30
BRANCH   6  39
ATOM     39  O   LIG    1       13.202   6.074   2.555  0.00  0.00    -0.391 OA
ATOM     40  H   LIG    1       12.751   6.114   1.693  0.00  0.00    +0.210 HD
ENDBRANCH   6  39
TORSDOF 7
