REMARK  Name = *****
REMARK                            x       y       z     vdW  Elec       q    Type
REMARK                         _______ _______ _______ _____ _____    ______ ____
ROOT
ATOM      1  C   LIG    1       -1.250   1.143  -0.247  0.00  0.00    +0.042 C 
ATOM      2  C   LIG    1       -2.220  -0.036  -0.184  0.00  0.00    +0.069 C 
ATOM      3  C   LIG    1       -2.641  -0.511   1.253  0.00  0.00    -0.000 C 
ATOM      4  C   LIG    1       -1.426  -0.500   2.217  0.00  0.00    +0.014 C 
ATOM      5  C   LIG    1       -3.073  -2.028   1.030  0.00  0.00    +0.001 C 
ATOM      6  C   LIG    1       -4.566  -2.354   1.239  0.00  0.00    -0.004 C 
ATOM      7  C   LIG    1       -5.168  -1.549   2.382  0.00  0.00    -0.001 C 
ATOM      8  C   LIG    1       -5.076  -0.075   1.988  0.00  0.00    +0.005 C 
ATOM      9  C   LIG    1       -5.019  -2.134   3.904  0.00  0.00    -0.022 C 
ATOM     10  C   LIG    1       -5.461  -0.987   4.840  0.00  0.00    +0.012 C 
ATOM     11  C   LIG    1       -6.006  -3.356   3.740  0.00  0.00    +0.001 C 
ATOM     12  C   LIG    1       -6.451  -4.182   4.958  0.00  0.00    +0.059 C 
ATOM     13  C   LIG    1       -5.248  -4.486   5.731  0.00  0.00    +0.040 A 
ATOM     14  C   LIG    1       -3.993  -4.010   5.475  0.00  0.00    -0.006 A 
ATOM     15  C   LIG    1       -3.215  -5.153   5.832  0.00  0.00    +0.138 A 
ATOM     16  N   LIG    1       -3.905  -6.070   6.524  0.00  0.00    -0.182 NA
ATOM     17  N   LIG    1       -5.163  -5.588   6.553  0.00  0.00    -0.281 N 
ATOM     18  H   LIG    1       -5.893  -6.121   6.971  0.00  0.00    +0.189 HD
ATOM     19  C   LIG    1       -5.264  -4.333   2.735  0.00  0.00    +0.005 C 
ATOM     20  C   LIG    1       -3.682  -2.759   4.590  0.00  0.00    +0.045 C 
ATOM     21  C   LIG    1       -4.975  -3.826   1.331  0.00  0.00    +0.004 C 
ATOM     22  C   LIG    1       -2.626  -2.371  -0.417  0.00  0.00    +0.007 C 
ATOM     23  C   LIG    1       -3.668   0.436   1.928  0.00  0.00    +0.010 C 
ATOM     24  C   LIG    1       -1.616  -1.297  -0.804  0.00  0.00    +0.035 C 
ENDROOT
BRANCH   2  25
ATOM     25  O   LIG    1       -3.365   0.286  -0.986  0.00  0.00    -0.388 OA
ATOM     26  H   LIG    1       -3.888   0.973  -0.544  0.00  0.00    +0.210 HD
ENDBRANCH   2  25
TORSDOF 1
