REMARK  Name = *****
REMARK                            x       y       z     vdW  Elec       q    Type
REMARK                         _______ _______ _______ _____ _____    ______ ____
ROOT
ATOM      1  C   LIG    1        5.403   1.099  -1.864  0.00  0.00    +0.118 A 
ATOM      2  C   LIG    1        5.233   2.480  -1.942  0.00  0.00    +0.144 A 
ATOM      3  N   LIG    1        5.713   3.221  -2.949  0.00  0.00    -0.209 NA
ATOM      4  C   LIG    1        6.373   2.574  -3.927  0.00  0.00    +0.184 A 
ATOM      5  N   LIG    1        6.630   1.253  -3.935  0.00  0.00    -0.209 NA
ATOM      6  C   LIG    1        6.146   0.541  -2.907  0.00  0.00    +0.144 A 
ENDROOT
BRANCH   4   7
ATOM      7  C   LIG    1        6.809   3.362  -5.100  0.00  0.00    +0.139 A 
ATOM      8  C   LIG    1        7.476   2.878  -6.274  0.00  0.00    +0.050 A 
ATOM      9  C   LIG    1        7.654   3.994  -7.081  0.00  0.00    +0.159 A 
ATOM     10  N   LIG    1        8.230   4.043  -8.300  0.00  0.00    -0.236 NA
ATOM     11  C   LIG    1        8.667   2.841  -8.729  0.00  0.00    +0.113 A 
ATOM     12  C   LIG    1        8.558   1.646  -8.027  0.00  0.00    +0.020 A 
ATOM     13  N   LIG    1        7.134   5.044  -6.382  0.00  0.00    -0.241 N 
ATOM     14  C   LIG    1        7.950   1.651  -6.771  0.00  0.00    +0.015 A 
ATOM     15  N   LIG    1        6.584   4.694  -5.198  0.00  0.00    -0.165 NA
BRANCH  13  16
ATOM     16  C   LIG    1        7.122   6.435  -6.813  0.00  0.00    +0.183 C 
BRANCH  16  17
ATOM     17  C   LIG    1        8.364   7.166  -6.376  0.00  0.00    +0.009 A 
ATOM     18  C   LIG    1        9.214   7.742  -7.322  0.00  0.00    +0.128 A 
ATOM     19  F   LIG    1        8.924   7.654  -8.628  0.00  0.00    -0.205 F 
ATOM     20  C   LIG    1       10.366   8.427  -6.941  0.00  0.00    +0.039 A 
ATOM     21  C   LIG    1       10.684   8.547  -5.590  0.00  0.00    +0.003 A 
ATOM     22  C   LIG    1        9.847   7.983  -4.628  0.00  0.00    +0.001 A 
ATOM     23  C   LIG    1        8.691   7.302  -5.017  0.00  0.00    +0.008 A 
ENDBRANCH  16  17
ENDBRANCH  13  16
ENDBRANCH   4   7
BRANCH   1  25
ATOM     24  C   LIG    1        3.575   0.425  -0.364  0.00  0.00    +0.407 C 
ATOM     25  N   LIG    1        4.894   0.288  -0.795  0.00  0.00    -0.234 N 
ATOM     26  C   LIG    1        5.897  -0.264   0.112  0.00  0.00    +0.142 C 
ATOM     27  O   LIG    1        2.718   1.116  -0.898  0.00  0.00    -0.226 OA
BRANCH  24  29
ATOM     28  C   LIG    1        2.057  -0.224   1.353  0.00  0.00    +0.282 C 
ATOM     29  O   LIG    1        3.336  -0.352   0.735  0.00  0.00    -0.453 OA
ENDBRANCH  24  29
ENDBRANCH   1  25
BRANCH   2  30
ATOM     30  N   LIG    1        4.609   3.220  -0.929  0.00  0.00    -0.342 N 
ATOM     31  H   LIG    1        3.648   2.888  -0.824  0.00  0.00    +0.144 HD
ATOM     32  H   LIG    1        4.622   4.189  -1.239  0.00  0.00    +0.144 HD
ENDBRANCH   2  30
BRANCH   6  33
ATOM     33  N   LIG    1        6.449  -0.826  -2.951  0.00  0.00    -0.342 N 
ATOM     34  H   LIG    1        6.914  -1.014  -3.834  0.00  0.00    +0.144 HD
ATOM     35  H   LIG    1        5.613  -1.388  -2.823  0.00  0.00    +0.144 HD
ENDBRANCH   6  33
TORSDOF 7
