REMARK  Name = *****
REMARK                            x       y       z     vdW  Elec       q    Type
REMARK                         _______ _______ _______ _____ _____    ______ ____
ROOT
ATOM      1  C   LIG    1        3.674   0.862  -1.189  0.00  0.00    +0.135 C 
ATOM      2  C   LIG    1        3.123   2.280  -0.979  0.00  0.00    +0.049 C 
ATOM      3  C   LIG    1        3.093   0.232  -2.463  0.00  0.00    +0.049 C 
ENDROOT
BRANCH   1   4
ATOM      4  O   LIG    1        5.117   0.880  -1.238  0.00  0.00    -0.370 OA
ATOM      5  C   LIG    1        5.727   1.618  -2.288  0.00  0.00    +0.195 C 
ENDBRANCH   1   4
BRANCH   1   6
ATOM      6  C   LIG    1        3.337  -0.021   0.033  0.00  0.00    +0.489 C 
BRANCH   6   8
ATOM      7  C   LIG    1        0.783  -0.210   0.510  0.00  0.00    -0.237 C 
ATOM      8  N   LIG    1        1.929  -0.119   0.285  0.00  0.00    -0.310 NA
ENDBRANCH   6   8
ENDBRANCH   1   6
TORSDOF 3
