REMARK  Name = *****
REMARK                            x       y       z     vdW  Elec       q    Type
REMARK                         _______ _______ _______ _____ _____    ______ ____
ROOT
ATOM      1  C   LIG    1        1.496   1.272   0.028  0.00  0.00    +0.086 C 
ATOM      2  C   LIG    1        2.943   0.925   0.039  0.00  0.00    +0.112 A 
ATOM      3  N   LIG    1        3.455  -0.368   0.019  0.00  0.00    -0.268 N 
ATOM      4  C   LIG    1        4.825  -0.233   0.042  0.00  0.00    +0.368 A 
ATOM      5  C   LIG    1        5.081   1.112   0.059  0.00  0.00    +0.217 A 
ATOM      6  N   LIG    1        3.914   1.819   0.059  0.00  0.00    -0.234 NA
ENDROOT
BRANCH   4   7
ATOM      7  N   LIG    1        5.782  -1.285   0.048  0.00  0.00    +0.100 N 
ATOM      8  O   LIG    1        5.372  -2.446   0.062  0.00  0.00    -0.575 OA
ATOM      9  O   LIG    1        6.975  -0.943   0.051  0.00  0.00    +0.043 OA
ENDBRANCH   4   7
BRANCH   3  10
ATOM     10  C   LIG    1        2.655  -1.581  -0.091  0.00  0.00    +0.157 C 
BRANCH  10  11
ATOM     11  C   LIG    1        2.356  -2.241   1.253  0.00  0.00    +0.177 C 
BRANCH  11  12
ATOM     12  O   LIG    1        1.556  -1.382   2.059  0.00  0.00    -0.393 OA
ATOM     13  H   LIG    1        1.739  -1.599   2.991  0.00  0.00    +0.209 HD
ENDBRANCH  11  12
ENDBRANCH  10  11
ENDBRANCH   3  10
TORSDOF 4
