REMARK  Name = *****
REMARK                            x       y       z     vdW  Elec       q    Type
REMARK                         _______ _______ _______ _____ _____    ______ ____
ROOT
ATOM      1  C   LIG    1        0.829   2.887   0.379  0.00  0.00    +0.128 A 
ATOM      2  N   LIG    1        1.698   3.884   0.105  0.00  0.00    -0.199 NA
ATOM      3  C   LIG    1        1.204   5.118  -0.136  0.00  0.00    +0.221 A 
ATOM      4  N   LIG    1       -0.106   5.405  -0.129  0.00  0.00    -0.223 NA
ATOM      5  C   LIG    1       -0.946   4.400   0.152  0.00  0.00    +0.118 A 
ATOM      6  C   LIG    1       -0.527   3.126   0.444  0.00  0.00    +0.063 A 
ENDROOT
BRANCH   1   7
ATOM      7  N   LIG    1        1.357   1.604   0.653  0.00  0.00    -0.299 N 
ATOM      8  H   LIG    1        2.374   1.673   0.630  0.00  0.00    +0.154 HD
BRANCH   7  11
ATOM      9  C   LIG    1        2.187  -0.653   2.334  0.00  0.00    +0.045 C 
ATOM     10  C   LIG    1        1.341  -0.806   1.093  0.00  0.00    -0.029 A 
ATOM     11  C   LIG    1        0.923   0.296   0.287  0.00  0.00    +0.038 A 
ATOM     12  C   LIG    1        0.148   0.007  -0.868  0.00  0.00    -0.029 A 
ATOM     13  C   LIG    1       -0.274   1.026  -1.894  0.00  0.00    +0.045 C 
ATOM     14  C   LIG    1       -0.246  -1.325  -1.141  0.00  0.00    +0.013 A 
ATOM     15  C   LIG    1        0.134  -2.386  -0.325  0.00  0.00    -0.024 A 
ATOM     16  C   LIG    1        0.930  -2.121   0.782  0.00  0.00    +0.013 A 
BRANCH  15  17
ATOM     17  C   LIG    1       -0.276  -3.750  -0.642  0.00  0.00    +0.019 C 
ATOM     18  C   LIG    1       -1.381  -4.360  -0.178  0.00  0.00    +0.089 C 
BRANCH  18  19
ATOM     19  C   LIG    1       -2.334  -3.761   0.668  0.00  0.00    +0.091 C 
ATOM     20  N   LIG    1       -3.156  -3.294   1.377  0.00  0.00    -0.192 NA
ENDBRANCH  18  19
ENDBRANCH  15  17
ENDBRANCH   7  11
ENDBRANCH   1   7
BRANCH   3  21
ATOM     21  N   LIG    1        2.004   6.215  -0.455  0.00  0.00    -0.284 N 
ATOM     22  H   LIG    1        1.415   7.033  -0.543  0.00  0.00    +0.155 HD
BRANCH  21  23
ATOM     23  C   LIG    1        3.369   6.378  -0.695  0.00  0.00    +0.034 A 
ATOM     24  C   LIG    1        4.327   5.434  -0.324  0.00  0.00    +0.024 A 
ATOM     25  C   LIG    1        5.673   5.592  -0.670  0.00  0.00    +0.021 A 
ATOM     26  C   LIG    1        6.082   6.699  -1.416  0.00  0.00    +0.052 A 
ATOM     27  C   LIG    1        5.139   7.651  -1.805  0.00  0.00    +0.021 A 
ATOM     28  C   LIG    1        3.796   7.488  -1.445  0.00  0.00    +0.024 A 
BRANCH  26  29
ATOM     29  C   LIG    1        7.462   6.852  -1.782  0.00  0.00    +0.099 C 
ATOM     30  N   LIG    1        8.575   6.972  -2.072  0.00  0.00    -0.191 NA
ENDBRANCH  26  29
ENDBRANCH  21  23
ENDBRANCH   3  21
TORSDOF 7
