REMARK  Name = *****
REMARK                            x       y       z     vdW  Elec       q    Type
REMARK                         _______ _______ _______ _____ _____    ______ ____
ROOT
ATOM      1  CA  LIG    1       -7.902  -1.381   0.447  0.00  0.00    +0.191 C 
ATOM      2  C   LIG    1       -7.590  -1.208   1.965  0.00  0.00    +0.169 C 
ATOM      3  N   LIG    1       -7.840  -2.632   2.110  0.00  0.00    -0.248 N 
ATOM      4  CA  LIG    1       -8.053  -3.289   3.295  0.00  0.00    +0.133 C 
ATOM      5  C   LIG    1       -8.170  -2.598   4.470  0.00  0.00    +0.030 C 
ATOM      6  C   LIG    1       -8.209  -1.072   4.516  0.00  0.00    +0.115 C 
ATOM      7  S   LIG    1       -8.785  -0.304   2.970  0.00  0.00    -0.130 S 
ATOM      8  C   LIG    1       -7.860  -2.920   0.784  0.00  0.00    +0.244 C 
ATOM      9  O   LIG    1       -7.956  -3.929   0.161  0.00  0.00    -0.273 OA
ENDROOT
BRANCH   1  11
ATOM     10  C   LIG    1       -9.389  -0.356  -1.317  0.00  0.00    +0.270 C 
ATOM     11  N   LIG    1       -9.227  -0.914  -0.059  0.00  0.00    -0.296 N 
ATOM     12  H   LIG    1      -10.085  -1.099   0.458  0.00  0.00    +0.150 HD
ATOM     13  O   LIG    1       -8.461  -0.220  -2.099  0.00  0.00    -0.268 OA
BRANCH  10  15
ATOM     14  N   LIG    1      -11.713  -0.106  -0.688  0.00  0.00    -0.076 NA
ATOM     15  C   LIG    1      -10.837   0.081  -1.648  0.00  0.00    +0.208 C 
BRANCH  15  16
ATOM     16  C   LIG    1      -11.110   0.714  -2.951  0.00  0.00    +0.197 A 
ATOM     17  N   LIG    1      -10.107   1.446  -3.593  0.00  0.00    -0.202 NA
ATOM     18  C   LIG    1      -10.553   1.964  -4.709  0.00  0.00    +0.187 A 
ATOM     19  S   LIG    1      -12.206   1.552  -4.954  0.00  0.00    +0.050 S 
ATOM     20  N   LIG    1      -12.302   0.643  -3.565  0.00  0.00    -0.185 NA
BRANCH  18  21
ATOM     21  N   LIG    1       -9.855   2.725  -5.566  0.00  0.00    -0.230 N 
ATOM     22  H   LIG    1      -10.363   3.427  -6.079  0.00  0.00    +0.160 HD
BRANCH  21  23
ATOM     23  P   LIG    1       -8.316   3.020  -5.192  0.00  0.00    +0.423 P 
ATOM     24  O   LIG    1       -7.875   3.796  -3.993  0.00  0.00    -0.237 OA
BRANCH  23  25
ATOM     25  O   LIG    1       -7.709   3.753  -6.485  0.00  0.00    -0.310 OA
ATOM     26  H   LIG    1       -6.807   4.075  -6.308  0.00  0.00    +0.221 HD
ENDBRANCH  23  25
BRANCH  23  27
ATOM     27  O   LIG    1       -7.486   1.657  -5.309  0.00  0.00    -0.310 OA
ATOM     28  H   LIG    1       -6.649   1.704  -4.815  0.00  0.00    +0.221 HD
ENDBRANCH  23  27
ENDBRANCH  21  23
ENDBRANCH  18  21
ENDBRANCH  15  16
BRANCH  14  29
ATOM     29  O   LIG    1      -12.993   0.366  -1.028  0.00  0.00    -0.393 OA
BRANCH  29  31
ATOM     30  C   LIG    1      -14.484  -0.408   0.708  0.00  0.00    +0.051 C 
ATOM     31  C   LIG    1      -13.702   0.760   0.143  0.00  0.00    +0.259 C 
ENDBRANCH  29  31
ENDBRANCH  14  29
ENDBRANCH  10  15
ENDBRANCH   1  11
BRANCH   4  32
ATOM     32  C   LIG    1       -8.135  -4.781   3.202  0.00  0.00    +0.352 C 
ATOM     33  O   LIG    1       -7.465  -5.484   2.468  0.00  0.00    -0.244 OA
BRANCH  32  34
ATOM     34  OXT LIG    1       -9.020  -5.344   4.039  0.00  0.00    -0.476 OA
ATOM     35  HXT LIG    1       -8.892  -6.304   3.893  0.00  0.00    +0.295 HD
ENDBRANCH  32  34
ENDBRANCH   4  32
BRANCH   5  36
ATOM     36  S   LIG    1       -8.458  -3.343   6.056  0.00  0.00    -0.064 S 
BRANCH  36  37
ATOM     37  C   LIG    1       -6.833  -3.685   6.637  0.00  0.00    +0.140 A 
ATOM     38  S   LIG    1       -5.459  -2.701   6.348  0.00  0.00    -0.069 S 
ATOM     39  C   LIG    1       -4.498  -3.767   7.282  0.00  0.00    +0.076 A 
ATOM     40  C   LIG    1       -5.268  -4.809   7.759  0.00  0.00    +0.080 A 
ATOM     41  N   LIG    1       -6.610  -4.735   7.410  0.00  0.00    -0.232 NA
BRANCH  40  42
ATOM     42  C   LIG    1       -4.719  -5.968   8.465  0.00  0.00    +0.012 A 
ATOM     43  C   LIG    1       -3.544  -5.898   9.219  0.00  0.00    +0.080 A 
ATOM     44  C   LIG    1       -2.996  -7.058   9.762  0.00  0.00    +0.309 A 
ATOM     45  N   LIG    1       -3.586  -8.258   9.563  0.00  0.00    -0.206 N 
ATOM     46  C   LIG    1       -2.938  -9.475  10.087  0.00  0.00    +0.438 C 
ATOM     47  C   LIG    1       -4.753  -8.347   8.887  0.00  0.00    +0.309 A 
ATOM     48  C   LIG    1       -5.338  -7.212   8.332  0.00  0.00    +0.080 A 
ENDBRANCH  40  42
ENDBRANCH  36  37
ENDBRANCH   5  36
TORSDOF 14
