REMARK  Name = *****
REMARK                            x       y       z     vdW  Elec       q    Type
REMARK                         _______ _______ _______ _____ _____    ______ ____
ROOT
ATOM      1  CA  LIG    1        6.130   9.639  -1.013  0.00  0.00    +0.191 C 
ENDROOT
BRANCH   1   9
ATOM      2  N   LIG    1        1.826  10.854  -5.661  0.00  0.00    -0.292 N 
ATOM      3  C   LIG    1        1.685  10.182  -4.448  0.00  0.00    +0.302 C 
ATOM      4  O   LIG    1        0.785   9.394  -4.192  0.00  0.00    -0.265 OA
ATOM      5  C   LIG    1        2.771  10.467  -3.389  0.00  0.00    +0.309 C 
ATOM      6  O   LIG    1        2.464  10.502  -2.201  0.00  0.00    -0.265 OA
ATOM      7  N   LIG    1        4.040  10.773  -3.881  0.00  0.00    -0.217 N 
ATOM      8  C   LIG    1        5.188  10.625  -3.132  0.00  0.00    +0.310 C 
ATOM      9  N   LIG    1        5.042  10.092  -1.888  0.00  0.00    -0.284 N 
ATOM     10  H   LIG    1        4.208  10.417  -1.400  0.00  0.00    +0.151 HD
ATOM     11  O   LIG    1        6.296  10.757  -3.651  0.00  0.00    -0.252 OA
ATOM     12  C   LIG    1        4.218  10.979  -5.319  0.00  0.00    +0.137 C 
ATOM     13  C   LIG    1        3.001  11.681  -5.894  0.00  0.00    +0.127 C 
BRANCH   2  15
ATOM     14  C   LIG    1        1.062   9.552  -7.623  0.00  0.00    +0.024 C 
ATOM     15  C   LIG    1        0.803  10.722  -6.687  0.00  0.00    +0.105 C 
ENDBRANCH   2  15
ENDBRANCH   1   9
BRANCH   1  16
ATOM     16  C   LIG    1        6.542  10.712  -0.011  0.00  0.00    -0.018 A 
ATOM     17  C   LIG    1        7.582  11.600  -0.311  0.00  0.00    +0.006 A 
ATOM     18  C   LIG    1        8.012  12.542   0.625  0.00  0.00    +0.000 A 
ATOM     19  C   LIG    1        7.391  12.634   1.868  0.00  0.00    +0.000 A 
ATOM     20  C   LIG    1        6.335  11.781   2.177  0.00  0.00    +0.000 A 
ATOM     21  C   LIG    1        5.909  10.826   1.244  0.00  0.00    +0.006 A 
ENDBRANCH   1  16
BRANCH   1  22
ATOM     22  C   LIG    1        7.349   8.863  -1.653  0.00  0.00    +0.239 C 
ATOM     23  N   LIG    1        7.274   8.560  -3.000  0.00  0.00    -0.300 N 
ATOM     24  H   LIG    1        6.694   9.181  -3.551  0.00  0.00    +0.150 HD
ATOM     25  O   LIG    1        8.320   8.489  -0.991  0.00  0.00    -0.273 OA
BRANCH  23  26
ATOM     26  CA  LIG    1        8.394   7.925  -3.724  0.00  0.00    +0.190 C 
ATOM     27  C   LIG    1        8.436   6.391  -3.634  0.00  0.00    +0.165 C 
ATOM     28  S   LIG    1        6.887   5.500  -3.256  0.00  0.00    -0.127 S 
ATOM     29  C   LIG    1        6.509   5.030  -5.010  0.00  0.00    +0.042 C 
ATOM     30  CA  LIG    1        7.776   5.348  -5.843  0.00  0.00    +0.201 C 
ATOM     31  C   LIG    1        5.311   5.869  -5.486  0.00  0.00    +0.025 C 
ATOM     32  C   LIG    1        6.093   3.553  -4.989  0.00  0.00    +0.025 C 
ATOM     33  N   LIG    1        8.563   6.339  -5.099  0.00  0.00    -0.271 N 
ATOM     34  C   LIG    1        8.251   7.669  -5.244  0.00  0.00    +0.240 C 
ATOM     35  O   LIG    1        7.871   8.283  -6.229  0.00  0.00    -0.273 OA
BRANCH  30  36
ATOM     36  C   LIG    1        8.603   4.104  -6.180  0.00  0.00    +0.327 C 
ATOM     37  O   LIG    1        8.347   3.365  -7.122  0.00  0.00    -0.249 OA
BRANCH  36  38
ATOM     38  OXT LIG    1        9.568   3.797  -5.285  0.00  0.00    -0.479 OA
ATOM     39  HXT LIG    1        9.621   4.439  -4.555  0.00  0.00    +0.295 HD
ENDBRANCH  36  38
ENDBRANCH  30  36
ENDBRANCH  23  26
ENDBRANCH   1  22
TORSDOF 7
