REMARK  Name = *****
REMARK                            x       y       z     vdW  Elec       q    Type
REMARK                         _______ _______ _______ _____ _____    ______ ____
ROOT
ATOM      1  C   LIG    1       17.802  -2.180  -3.325  0.00  0.00    +0.190 C 
ENDROOT
BRANCH   1   4
ATOM      2  N   LIG    1       16.441  -5.493  -2.542  0.00  0.00    -0.131 N 
ATOM      3  C   LIG    1       16.840  -4.274  -2.139  0.00  0.00    +0.430 A 
ATOM      4  N   LIG    1       16.968  -3.477  -3.235  0.00  0.00    -0.207 N 
ATOM      5  N   LIG    1       16.547  -4.168  -4.346  0.00  0.00    -0.108 NA
ATOM      6  C   LIG    1       16.262  -5.354  -3.905  0.00  0.00    +0.452 A 
BRANCH   2   7
ATOM      7  C   LIG    1       16.323  -6.667  -1.665  0.00  0.00    +0.465 C 
ATOM      8  C   LIG    1       15.013  -7.416  -1.852  0.00  0.00    +0.138 C 
BRANCH   7   9
ATOM      9  O   LIG    1       17.579  -7.341  -1.480  0.00  0.00    -0.387 OA
BRANCH   9  11
ATOM     10  N   LIG    1       19.609  -8.123  -2.160  0.00  0.00    -0.224 N 
ATOM     11  C   LIG    1       18.283  -7.871  -2.512  0.00  0.00    +0.413 C 
ATOM     12  O   LIG    1       17.771  -8.067  -3.605  0.00  0.00    -0.226 OA
ATOM     13  C   LIG    1       20.188  -7.551  -0.932  0.00  0.00    +0.143 C 
BRANCH  10  15
ATOM     14  C   LIG    1       20.847  -9.983  -3.182  0.00  0.00    +0.030 A 
ATOM     15  C   LIG    1       20.480  -8.630  -3.175  0.00  0.00    +0.136 A 
ATOM     16  N   LIG    1       21.100  -7.771  -4.003  0.00  0.00    -0.239 NA
ATOM     17  C   LIG    1       22.044  -8.291  -4.850  0.00  0.00    +0.113 A 
ATOM     18  C   LIG    1       22.446  -9.614  -4.919  0.00  0.00    +0.020 A 
ATOM     19  C   LIG    1       21.779 -10.496  -4.114  0.00  0.00    +0.012 A 
BRANCH  14  20
ATOM     20  C   LIG    1       20.942 -10.729  -1.895  0.00  0.00    +0.271 C 
BRANCH  20  21
ATOM     21  O   LIG    1       20.008 -10.519  -0.884  0.00  0.00    -0.459 OA
BRANCH  21  22
ATOM     22  C   LIG    1       18.907 -11.296  -0.932  0.00  0.00    +0.321 C 
ATOM     23  O   LIG    1       18.667 -12.128  -1.791  0.00  0.00    -0.249 OA
BRANCH  22  24
ATOM     24  C   LIG    1       18.003 -10.721   0.186  0.00  0.00    +0.202 C 
BRANCH  24  26
ATOM     25  C   LIG    1       18.527  -9.645   2.574  0.00  0.00    +0.101 C 
ATOM     26  N   LIG    1       18.751 -10.600   1.484  0.00  0.00    -0.310 NA
ATOM     27  H   LIG    1       19.740 -10.835   1.415  0.00  0.00    +0.122 HD
ENDBRANCH  24  26
ENDBRANCH  22  24
ENDBRANCH  21  22
ENDBRANCH  20  21
ENDBRANCH  14  20
ENDBRANCH  10  15
ENDBRANCH   9  11
ENDBRANCH   7   9
ENDBRANCH   2   7
ENDBRANCH   1   4
BRANCH   1  28
ATOM     28  C   LIG    1       18.063  -1.060  -4.593  0.00  0.00    +0.122 C 
BRANCH  28  29
ATOM     29  C   LIG    1       18.659  -1.330  -6.069  0.00  0.00    +0.024 A 
ATOM     30  C   LIG    1       19.881  -0.776  -6.559  0.00  0.00    +0.130 A 
ATOM     31  F   LIG    1       20.640   0.038  -5.835  0.00  0.00    -0.205 F 
ATOM     32  C   LIG    1       20.433  -0.973  -7.838  0.00  0.00    +0.041 A 
ATOM     33  C   LIG    1       19.850  -1.865  -8.698  0.00  0.00    +0.041 A 
ATOM     34  C   LIG    1       18.593  -2.323  -8.346  0.00  0.00    +0.124 A 
ATOM     35  F   LIG    1       18.006  -3.175  -9.197  0.00  0.00    -0.205 F 
ATOM     36  C   LIG    1       17.955  -1.984  -7.107  0.00  0.00    +0.047 A 
ENDBRANCH  28  29
BRANCH  28  37
ATOM     37  O   LIG    1       16.757  -0.452  -4.843  0.00  0.00    -0.381 OA
ATOM     38  H   LIG    1       16.828   0.094  -5.650  0.00  0.00    +0.211 HD
ENDBRANCH  28  37
BRANCH  28  39
ATOM     39  C   LIG    1       18.918   0.160  -3.892  0.00  0.00    +0.080 C 
ATOM     40  C   LIG    1       18.265   0.721  -2.615  0.00  0.00    +0.018 C 
BRANCH  39  41
ATOM     41  C   LIG    1       20.344  -0.210  -3.496  0.00  0.00    +0.085 A 
ATOM     42  S   LIG    1       21.573   1.005  -3.314  0.00  0.00    -0.080 S 
ATOM     43  C   LIG    1       22.605  -0.175  -2.619  0.00  0.00    +0.075 A 
ATOM     44  C   LIG    1       22.069  -1.427  -2.848  0.00  0.00    +0.078 A 
ATOM     45  N   LIG    1       20.751  -1.439  -3.273  0.00  0.00    -0.244 NA
BRANCH  44  46
ATOM     46  C   LIG    1       22.806  -2.665  -2.690  0.00  0.00    +0.001 A 
ATOM     47  C   LIG    1       23.809  -2.799  -1.725  0.00  0.00    +0.011 A 
ATOM     48  C   LIG    1       24.558  -3.975  -1.645  0.00  0.00    +0.019 A 
ATOM     49  C   LIG    1       24.308  -5.020  -2.534  0.00  0.00    +0.052 A 
ATOM     50  C   LIG    1       23.296  -4.902  -3.487  0.00  0.00    +0.019 A 
ATOM     51  C   LIG    1       22.545  -3.730  -3.564  0.00  0.00    +0.011 A 
BRANCH  49  52
ATOM     52  C   LIG    1       25.122  -6.234  -2.479  0.00  0.00    +0.099 C 
ATOM     53  N   LIG    1       25.744  -7.159  -2.438  0.00  0.00    -0.191 NA
ENDBRANCH  49  52
ENDBRANCH  44  46
ENDBRANCH  39  41
ENDBRANCH  28  39
ENDBRANCH   1  28
TORSDOF 17
