REMARK  Name = *****
REMARK                            x       y       z     vdW  Elec       q    Type
REMARK                         _______ _______ _______ _____ _____    ______ ____
ROOT
ATOM      1  O   LIG    1        5.600   3.261  -4.208  0.00  0.00    -0.367 OA
ENDROOT
BRANCH   1   7
ATOM      2  C   LIG    1        6.020  -0.664  -1.426  0.00  0.00    +0.388 A 
ATOM      3  N   LIG    1        6.253  -0.869  -2.773  0.00  0.00    -0.128 NA
ATOM      4  C   LIG    1        6.673   0.291  -3.215  0.00  0.00    +0.304 A 
ATOM      5  O   LIG    1        6.941   0.551  -4.490  0.00  0.00    -0.461 OA
ATOM      6  C   LIG    1        7.556   1.817  -4.753  0.00  0.00    +0.265 C 
ATOM      7  C   LIG    1        6.982   2.974  -3.909  0.00  0.00    +0.176 C 
ATOM      8  C   LIG    1        7.120   2.598  -2.429  0.00  0.00    +0.161 C 
ATOM      9  N   LIG    1        6.734   1.221  -2.214  0.00  0.00    -0.292 N 
ATOM     10  C   LIG    1        6.342   0.629  -1.050  0.00  0.00    +0.197 A 
BRANCH   2  12
ATOM     11  O   LIG    1        5.239  -1.403   0.591  0.00  0.00    +0.043 OA
ATOM     12  N   LIG    1        5.478  -1.705  -0.583  0.00  0.00    +0.102 N 
ATOM     13  O   LIG    1        5.289  -2.823  -1.094  0.00  0.00    -0.575 OA
ENDBRANCH   2  12
ENDBRANCH   1   7
BRANCH   1  14
ATOM     14  C   LIG    1        5.420   3.828  -5.512  0.00  0.00    +0.195 C 
BRANCH  14  15
ATOM     15  C   LIG    1        3.987   4.238  -5.751  0.00  0.00    -0.022 A 
ATOM     16  C   LIG    1        2.973   3.273  -5.781  0.00  0.00    +0.009 A 
ATOM     17  C   LIG    1        1.645   3.630  -6.051  0.00  0.00    +0.046 A 
ATOM     18  C   LIG    1        1.312   4.955  -6.320  0.00  0.00    +0.130 A 
ATOM     19  C   LIG    1        2.321   5.923  -6.289  0.00  0.00    +0.046 A 
ATOM     20  C   LIG    1        3.648   5.570  -6.019  0.00  0.00    +0.009 A 
BRANCH  18  21
ATOM     21  O   LIG    1        0.068   5.444  -6.576  0.00  0.00    -0.406 OA
BRANCH  21  22
ATOM     22  C   LIG    1       -0.942   4.607  -7.122  0.00  0.00    +0.575 C 
ATOM     23  F   LIG    1       -1.492   5.247  -8.180  0.00  0.00    -0.133 F 
ATOM     24  F   LIG    1       -1.912   4.411  -6.203  0.00  0.00    -0.133 F 
ATOM     25  F   LIG    1       -0.502   3.409  -7.556  0.00  0.00    -0.133 F 
ENDBRANCH  21  22
ENDBRANCH  18  21
ENDBRANCH  14  15
ENDBRANCH   1  14
TORSDOF 6
