REMARK  Name = *****
REMARK                            x       y       z     vdW  Elec       q    Type
REMARK                         _______ _______ _______ _____ _____    ______ ____
ROOT
ATOM      1  C   LIG    1        9.581   1.828  -1.314  0.00  0.00    +0.034 A 
ATOM      2  C   LIG    1       10.727   2.618  -1.006  0.00  0.00    +0.044 A 
ATOM      3  C   LIG    1       10.522   3.758  -0.208  0.00  0.00    +0.024 A 
ATOM      4  C   LIG    1        9.271   4.077   0.321  0.00  0.00    +0.002 A 
ATOM      5  C   LIG    1        8.181   3.243   0.083  0.00  0.00    +0.001 A 
ATOM      6  C   LIG    1        8.339   2.127  -0.731  0.00  0.00    +0.017 A 
ENDROOT
BRANCH   2   7
ATOM      7  N   LIG    1       12.017   2.253  -1.466  0.00  0.00    -0.327 N 
ATOM      8  C   LIG    1       12.588   1.173  -0.621  0.00  0.00    +0.120 C 
ATOM      9  C   LIG    1       13.948   0.689  -1.179  0.00  0.00    +0.100 C 
ATOM     10  N   LIG    1       14.928   1.774  -1.398  0.00  0.00    -0.313 NA
ATOM     11  H   LIG    1       15.116   2.215  -0.498  0.00  0.00    +0.122 HD
ATOM     12  C   LIG    1       14.306   2.783  -2.284  0.00  0.00    +0.100 C 
ATOM     13  C   LIG    1       12.981   3.345  -1.720  0.00  0.00    +0.120 C 
ENDBRANCH   2   7
BRANCH   1  14
ATOM     14  S   LIG    1        9.639   0.492  -2.522  0.00  0.00    -0.087 S 
BRANCH  14  20
ATOM     15  C   LIG    1        5.485   2.059  -6.744  0.00  0.00    +0.044 C 
ATOM     16  C   LIG    1        6.485   1.711  -5.680  0.00  0.00    -0.050 A 
ATOM     17  C   LIG    1        7.607   2.524  -5.487  0.00  0.00    +0.007 A 
ATOM     18  C   LIG    1        8.590   2.211  -4.527  0.00  0.00    -0.036 A 
ATOM     19  C   LIG    1        9.764   3.142  -4.394  0.00  0.00    +0.045 C 
ATOM     20  C   LIG    1        8.440   1.049  -3.745  0.00  0.00    +0.016 A 
ATOM     21  C   LIG    1        7.316   0.231  -3.952  0.00  0.00    +0.015 A 
ATOM     22  C   LIG    1        6.349   0.557  -4.907  0.00  0.00    +0.004 A 
ENDBRANCH  14  20
ENDBRANCH   1  14
TORSDOF 3
