REMARK  Name = *****
REMARK                            x       y       z     vdW  Elec       q    Type
REMARK                         _______ _______ _______ _____ _____    ______ ____
ROOT
ATOM      1  C   LIG    1        2.632   1.142  -0.566  0.00  0.00    +0.147 C 
ATOM      2  C   LIG    1        1.461   2.154  -0.533  0.00  0.00    +0.234 C 
ATOM      3  O   LIG    1        0.306   1.889  -0.864  0.00  0.00    -0.274 OA
ATOM      4  N   LIG    1        1.765   3.438  -0.169  0.00  0.00    -0.299 N 
ATOM      5  H   LIG    1        1.016   4.112  -0.256  0.00  0.00    +0.150 HD
ATOM      6  C   LIG    1        3.111   3.856   0.004  0.00  0.00    +0.212 C 
ATOM      7  N   LIG    1        3.798   2.881   0.775  0.00  0.00    -0.299 N 
ATOM      8  H   LIG    1        4.559   3.141   1.389  0.00  0.00    +0.150 HD
ATOM      9  C   LIG    1        3.681   1.546   0.498  0.00  0.00    +0.234 C 
ATOM     10  O   LIG    1        4.440   0.756   1.059  0.00  0.00    -0.274 OA
ENDROOT
BRANCH   1  11
ATOM     11  C   LIG    1        3.280   1.094  -1.981  0.00  0.00    -0.024 A 
ATOM     12  C   LIG    1        4.623   0.704  -2.155  0.00  0.00    +0.005 A 
ATOM     13  C   LIG    1        5.201   0.638  -3.426  0.00  0.00    +0.000 A 
ATOM     14  C   LIG    1        4.448   0.944  -4.554  0.00  0.00    +0.000 A 
ATOM     15  C   LIG    1        3.111   1.302  -4.412  0.00  0.00    +0.000 A 
ATOM     16  C   LIG    1        2.531   1.368  -3.142  0.00  0.00    +0.005 A 
ENDBRANCH   1  11
BRANCH   1  18
ATOM     17  C   LIG    1        1.425  -0.431   1.107  0.00  0.00    +0.005 C 
ATOM     18  C   LIG    1        2.096  -0.284  -0.258  0.00  0.00    +0.027 C 
ENDBRANCH   1  18
TORSDOF 2
