REMARK  Name = *****
REMARK                            x       y       z     vdW  Elec       q    Type
REMARK                         _______ _______ _______ _____ _____    ______ ____
ROOT
ATOM      1  C   LIG    1        1.121  -2.001  -0.563  0.00  0.00    +0.041 A 
ATOM      2  C   LIG    1        0.948  -1.361  -1.831  0.00  0.00    +0.003 A 
ATOM      3  C   LIG    1        0.501  -2.184  -2.900  0.00  0.00    +0.010 A 
ATOM      4  C   LIG    1        0.217  -3.542  -2.750  0.00  0.00    +0.001 A 
ATOM      5  C   LIG    1        0.408  -4.144  -1.523  0.00  0.00    +0.002 A 
ATOM      6  C   LIG    1        0.867  -3.384  -0.451  0.00  0.00    +0.024 A 
ENDROOT
BRANCH   2   7
ATOM      7  C   LIG    1        1.184   0.096  -2.133  0.00  0.00    -0.016 A 
ATOM      8  C   LIG    1        0.381   0.779  -3.079  0.00  0.00    +0.010 A 
ATOM      9  C   LIG    1        0.575   2.131  -3.397  0.00  0.00    +0.020 A 
ATOM     10  C   LIG    1        1.557   2.856  -2.741  0.00  0.00    +0.041 A 
ATOM     11 CL   LIG    1        1.768   4.528  -3.086  0.00  0.00    -0.084 Cl
ATOM     12  C   LIG    1        2.377   2.224  -1.815  0.00  0.00    +0.020 A 
ATOM     13  C   LIG    1        2.219   0.852  -1.553  0.00  0.00    +0.010 A 
ENDBRANCH   2   7
BRANCH   1  16
ATOM     14  O   LIG    1        1.724  -2.910   2.226  0.00  0.00    -0.270 OA
ATOM     15  C   LIG    1        1.782  -1.743   1.867  0.00  0.00    +0.251 C 
ATOM     16  N   LIG    1        1.506  -1.261   0.592  0.00  0.00    -0.281 N 
ATOM     17  H   LIG    1        1.532  -0.259   0.467  0.00  0.00    +0.155 HD
BRANCH  15  18
ATOM     18  C   LIG    1        2.250  -0.765   2.888  0.00  0.00    +0.074 A 
ATOM     19  C   LIG    1        2.007   0.602   2.897  0.00  0.00    +0.141 A 
ATOM     20 CL   LIG    1        1.022   1.430   1.753  0.00  0.00    -0.061 Cl
ATOM     21  N   LIG    1        2.480   1.456   3.838  0.00  0.00    -0.243 NA
ATOM     22  C   LIG    1        3.204   0.927   4.845  0.00  0.00    +0.112 A 
ATOM     23  C   LIG    1        3.482  -0.421   4.956  0.00  0.00    +0.020 A 
ATOM     24  C   LIG    1        3.003  -1.273   3.963  0.00  0.00    +0.017 A 
ENDBRANCH  15  18
ENDBRANCH   1  16
TORSDOF 3
