REMARK  Name = *****
REMARK                            x       y       z     vdW  Elec       q    Type
REMARK                         _______ _______ _______ _____ _____    ______ ____
ROOT
ATOM      1  C   LIG    1        3.763  -0.377   0.012  0.00  0.00    +0.126 C 
ATOM      2  C   LIG    1        4.752  -0.625  -0.950  0.00  0.00    -0.001 C 
ATOM      3  C   LIG    1        5.862  -1.388  -0.581  0.00  0.00    +0.021 C 
ATOM      4  C   LIG    1        6.045  -1.758   0.757  0.00  0.00    +0.046 C 
ATOM      5  C   LIG    1        7.276  -2.496   1.106  0.00  0.00    +0.203 C 
ATOM      6  C   LIG    1        7.658  -2.551   2.522  0.00  0.00    +0.122 C 
ATOM      7  C   LIG    1        6.773  -2.068   3.405  0.00  0.00    +0.105 C 
ATOM      8  N   LIG    1        5.515  -1.506   3.132  0.00  0.00    -0.340 NA
ATOM      9  O   LIG    1        8.002  -2.997   0.251  0.00  0.00    -0.286 OA
ATOM     10  C   LIG    1        5.139  -1.380   1.770  0.00  0.00    +0.057 C 
ATOM     11  C   LIG    1        3.932  -0.819   1.335  0.00  0.00    +0.072 C 
ENDROOT
BRANCH   1  13
ATOM     12  C   LIG    1        1.479   0.236   0.285  0.00  0.00    +0.277 C 
ATOM     13  O   LIG    1        2.709   0.391  -0.406  0.00  0.00    -0.495 OA
ENDBRANCH   1  13
BRANCH   6  14
ATOM     14  C   LIG    1        8.988  -3.005   2.985  0.00  0.00    +0.342 C 
ATOM     15  O   LIG    1        9.243  -3.265   4.141  0.00  0.00    -0.245 OA
BRANCH  14  16
ATOM     16  O   LIG    1        9.931  -3.013   2.011  0.00  0.00    -0.477 OA
ATOM     17  H   LIG    1        9.574  -2.886   1.100  0.00  0.00    +0.295 HD
ENDBRANCH  14  16
ENDBRANCH   6  14
BRANCH   2  18
ATOM     18  C   LIG    1        4.605  -0.161  -2.385  0.00  0.00    +0.076 C 
BRANCH  18  19
ATOM     19  C   LIG    1        3.838  -1.154  -3.220  0.00  0.00    -0.006 C 
ATOM     20  C   LIG    1        4.502  -2.228  -3.823  0.00  0.00    +0.145 C 
ATOM     21  F   LIG    1        5.839  -2.306  -3.729  0.00  0.00    -0.204 F 
ATOM     22  C   LIG    1        3.790  -3.219  -4.496  0.00  0.00    +0.076 C 
ATOM     23 CL   LIG    1        4.610  -4.546  -5.222  0.00  0.00    -0.081 Cl
ATOM     24  C   LIG    1        2.399  -3.147  -4.573  0.00  0.00    +0.023 C 
ATOM     25  C   LIG    1        1.726  -2.071  -3.993  0.00  0.00    +0.002 C 
ATOM     26  C   LIG    1        2.442  -1.076  -3.326  0.00  0.00    +0.007 C 
ENDBRANCH  18  19
ENDBRANCH   2  18
BRANCH   8  27
ATOM     27  C   LIG    1        4.838  -0.725   4.248  0.00  0.00    +0.115 C 
BRANCH  27  28
ATOM     28  C   LIG    1        4.497   0.771   3.942  0.00  0.00    +0.008 C 
ATOM     29  C   LIG    1        5.639   1.558   3.287  0.00  0.00    +0.009 C 
ATOM     30  C   LIG    1        4.072   1.528   5.210  0.00  0.00    +0.009 C 
ENDBRANCH  27  28
BRANCH  27  31
ATOM     31  C   LIG    1        3.641  -1.521   4.825  0.00  0.00    +0.181 C 
BRANCH  31  32
ATOM     32  O   LIG    1        3.978  -2.881   5.093  0.00  0.00    -0.393 OA
ATOM     33  H   LIG    1        4.350  -3.241   4.267  0.00  0.00    +0.209 HD
ENDBRANCH  31  32
ENDBRANCH  27  31
ENDBRANCH   8  27
TORSDOF 9
