REMARK  Name = *****
REMARK                            x       y       z     vdW  Elec       q    Type
REMARK                         _______ _______ _______ _____ _____    ______ ____
ROOT
ATOM      1  N   LIG    1        9.788  -1.652   3.507  0.00  0.00    -0.300 N 
ATOM      2  C   LIG    1       10.585  -2.662   2.897  0.00  0.00    +0.037 A 
ATOM      3  C   LIG    1       11.442  -2.495   1.792  0.00  0.00    -0.026 A 
ATOM      4  C   LIG    1       12.172  -3.612   1.308  0.00  0.00    +0.005 A 
ATOM      5  C   LIG    1       12.068  -4.873   1.887  0.00  0.00    +0.000 A 
ATOM      6  C   LIG    1       11.278  -5.033   3.007  0.00  0.00    +0.002 A 
ATOM      7  C   LIG    1       11.739  -1.191   1.089  0.00  0.00    +0.041 C 
ATOM      8  C   LIG    1       10.672  -0.112   1.133  0.00  0.00    +0.041 C 
ATOM      9  C   LIG    1       10.569   0.493   2.506  0.00  0.00    -0.026 A 
ATOM     10  C   LIG    1       10.918   1.842   2.694  0.00  0.00    +0.005 A 
ATOM     11  C   LIG    1       10.843   2.431   3.958  0.00  0.00    +0.000 A 
ATOM     12  C   LIG    1       10.395   1.678   5.037  0.00  0.00    +0.002 A 
ATOM     13  C   LIG    1       10.045   0.341   4.855  0.00  0.00    +0.024 A 
ATOM     14  C   LIG    1       10.588  -3.934   3.517  0.00  0.00    +0.024 A 
ATOM     15  C   LIG    1       10.134  -0.276   3.594  0.00  0.00    +0.037 A 
ENDROOT
BRANCH   1  16
ATOM     16  C   LIG    1        8.303  -1.803   3.302  0.00  0.00    +0.112 C 
BRANCH  16  17
ATOM     17  C   LIG    1        7.721  -3.087   3.912  0.00  0.00    +0.034 C 
BRANCH  17  18
ATOM     18  C   LIG    1        6.197  -3.198   3.861  0.00  0.00    +0.082 C 
BRANCH  18  20
ATOM     19  C   LIG    1        4.409  -4.764   4.369  0.00  0.00    +0.101 C 
ATOM     20  N   LIG    1        5.834  -4.497   4.441  0.00  0.00    -0.319 NA
ATOM     21  H   LIG    1        6.141  -4.540   5.413  0.00  0.00    +0.122 HD
ENDBRANCH  18  20
ENDBRANCH  17  18
ENDBRANCH  16  17
ENDBRANCH   1  16
TORSDOF 4
