REMARK  Name = *****
REMARK                            x       y       z     vdW  Elec       q    Type
REMARK                         _______ _______ _______ _____ _____    ______ ____
ROOT
ATOM      1  C   LIG    1        9.581   1.631   5.943  0.00  0.00    +0.033 C 
ATOM      2  C   LIG    1       10.550   0.534   5.716  0.00  0.00    +0.257 C 
ATOM      3  O   LIG    1       11.757   0.695   5.831  0.00  0.00    -0.267 OA
ATOM      4  N   LIG    1       10.008  -0.668   5.360  0.00  0.00    -0.275 N 
ATOM      5  H   LIG    1       10.655  -1.422   5.188  0.00  0.00    +0.173 HD
ATOM      6  C   LIG    1        8.684  -0.926   5.120  0.00  0.00    +0.331 C 
ATOM      7  O   LIG    1        8.334  -2.038   4.728  0.00  0.00    -0.246 OA
ATOM      8  N   LIG    1        7.811   0.129   5.356  0.00  0.00    -0.274 N 
ATOM      9  C   LIG    1        8.284   1.374   5.729  0.00  0.00    +0.102 C 
ENDROOT
BRANCH   8  10
ATOM     10  C1* LIG    1        6.381  -0.100   5.112  0.00  0.00    +0.226 C 
ATOM     11  O4* LIG    1        5.613   1.095   5.378  0.00  0.00    -0.348 OA
ATOM     12  C4* LIG    1        4.689   0.833   6.460  0.00  0.00    +0.175 C 
ATOM     13  C3* LIG    1        4.419  -0.659   6.351  0.00  0.00    +0.150 C 
ATOM     14  C2* LIG    1        5.772  -1.214   5.968  0.00  0.00    +0.088 C 
BRANCH  13  15
ATOM     15  O3* LIG    1        3.487  -0.932   5.300  0.00  0.00    -0.389 OA
ATOM     16  H3* LIG    1        3.518  -0.195   4.661  0.00  0.00    +0.210 HD
ENDBRANCH  13  15
BRANCH  12  17
ATOM     17  C5* LIG    1        5.310   1.234   7.807  0.00  0.00    +0.190 C 
BRANCH  17  18
ATOM     18  O5* LIG    1        5.527   2.644   7.843  0.00  0.00    -0.392 OA
ATOM     19  H5* LIG    1        5.955   2.851   8.692  0.00  0.00    +0.209 HD
ENDBRANCH  17  18
ENDBRANCH  12  17
ENDBRANCH   8  10
BRANCH   1  21
ATOM     20  C   LIG    1       10.242   3.092   7.868  0.00  0.00    +0.009 C 
ATOM     21  C   LIG    1       10.098   2.978   6.356  0.00  0.00    +0.039 C 
ENDBRANCH   1  21
TORSDOF 5
