REMARK  Name = *****
REMARK                            x       y       z     vdW  Elec       q    Type
REMARK                         _______ _______ _______ _____ _____    ______ ____
ROOT
ATOM      1  C   LIG    1        1.645   2.386   0.873  0.00  0.00    +0.180 C 
ATOM      2  O   LIG    1        0.511   2.281   1.318  0.00  0.00    -0.290 OA
ENDROOT
BRANCH   1   3
ATOM      3  C   LIG    1        2.192   3.774   0.616  0.00  0.00    +0.020 A 
ATOM      4  C   LIG    1        1.328   4.874   0.757  0.00  0.00    +0.031 A 
ATOM      5  C   LIG    1        1.736   6.146   0.347  0.00  0.00    +0.042 A 
ATOM      6 CL   LIG    1        0.653   7.478   0.461  0.00  0.00    -0.084 Cl
ATOM      7  C   LIG    1        3.006   6.343  -0.190  0.00  0.00    +0.020 A 
ATOM      8  C   LIG    1        3.900   5.277  -0.248  0.00  0.00    +0.002 A 
ATOM      9  C   LIG    1        3.502   4.003   0.173  0.00  0.00    +0.011 A 
ENDBRANCH   1   3
BRANCH   1  11
ATOM     10  C   LIG    1        3.500   0.944   1.729  0.00  0.00    +0.032 C 
ATOM     11  C   LIG    1        2.539   1.159   0.551  0.00  0.00    +0.123 C 
BRANCH  11  12
ATOM     12  N   LIG    1        1.797  -0.117   0.365  0.00  0.00    -0.302 NA
ATOM     13  H   LIG    1        1.172  -0.241   1.165  0.00  0.00    +0.123 HD
BRANCH  12  14
ATOM     14  C   LIG    1        1.050  -0.361  -0.885  0.00  0.00    +0.011 C 
ATOM     15  C   LIG    1        1.967  -0.352  -2.120  0.00  0.00    +0.027 C 
ATOM     16  C   LIG    1       -0.114   0.619  -1.075  0.00  0.00    +0.027 C 
ATOM     17  C   LIG    1        0.429  -1.778  -0.800  0.00  0.00    +0.027 C 
ENDBRANCH  12  14
ENDBRANCH  11  12
ENDBRANCH   1  11
TORSDOF 4
