REMARK  Name = *****
REMARK                            x       y       z     vdW  Elec       q    Type
REMARK                         _______ _______ _______ _____ _____    ______ ____
ROOT
ATOM      1  C   LIG    1        5.191   2.530  -0.446  0.00  0.00    +0.158 C 
ENDROOT
BRANCH   1   2
ATOM      2  C   LIG    1        6.701   2.648  -0.270  0.00  0.00    -0.017 A 
ATOM      3  C   LIG    1        7.294   2.486   0.994  0.00  0.00    +0.023 A 
ATOM      4  C   LIG    1        8.674   2.669   1.198  0.00  0.00    +0.078 A 
ATOM      5  C   LIG    1        9.484   2.992   0.101  0.00  0.00    +0.129 A 
ATOM      6  C   LIG    1        8.919   3.134  -1.168  0.00  0.00    +0.046 A 
ATOM      7  C   LIG    1        7.540   2.964  -1.351  0.00  0.00    +0.010 A 
BRANCH   4   8
ATOM      8  C   LIG    1        9.174   2.517   2.594  0.00  0.00    +0.245 C 
ATOM      9  O   LIG    1        8.408   2.259   3.526  0.00  0.00    -0.270 OA
ATOM     10  N   LIG    1       10.505   2.667   2.817  0.00  0.00    -0.325 N 
ATOM     11  H   LIG    1       10.868   2.568   3.753  0.00  0.00    +0.145 HD
ATOM     12  H   LIG    1       11.138   2.849   2.043  0.00  0.00    +0.145 HD
ENDBRANCH   4   8
BRANCH   5  13
ATOM     13  O   LIG    1       10.835   3.169   0.250  0.00  0.00    -0.506 OA
ATOM     14  H   LIG    1       11.246   3.240  -0.629  0.00  0.00    +0.292 HD
ENDBRANCH   5  13
ENDBRANCH   1   2
BRANCH   1  15
ATOM     15  O   LIG    1        4.542   3.519   0.363  0.00  0.00    -0.386 OA
ATOM     16  H   LIG    1        4.961   3.511   1.239  0.00  0.00    +0.210 HD
ENDBRANCH   1  15
BRANCH   1  17
ATOM     17  C   LIG    1        4.644   1.123  -0.077  0.00  0.00    +0.117 C 
BRANCH  17  18
ATOM     18  N   LIG    1        3.187   0.988  -0.294  0.00  0.00    -0.311 NA
ATOM     19  H   LIG    1        2.717   1.718   0.251  0.00  0.00    +0.122 HD
BRANCH  18  21
ATOM     20  C   LIG    1        3.363  -1.477  -0.656  0.00  0.00    +0.024 C 
ATOM     21  C   LIG    1        2.658  -0.334   0.085  0.00  0.00    +0.051 C 
BRANCH  21  22
ATOM     22  C   LIG    1        1.125  -0.405  -0.132  0.00  0.00    +0.023 C 
BRANCH  22  23
ATOM     23  C   LIG    1        0.658  -0.163  -1.577  0.00  0.00    +0.036 C 
BRANCH  23  24
ATOM     24  C   LIG    1       -0.846  -0.262  -1.736  0.00  0.00    -0.047 A 
ATOM     25  C   LIG    1       -1.583   0.835  -2.205  0.00  0.00    +0.003 A 
ATOM     26  C   LIG    1       -2.971   0.755  -2.345  0.00  0.00    +0.000 A 
ATOM     27  C   LIG    1       -3.639  -0.424  -2.021  0.00  0.00    +0.000 A 
ATOM     28  C   LIG    1       -2.917  -1.529  -1.575  0.00  0.00    +0.000 A 
ATOM     29  C   LIG    1       -1.529  -1.451  -1.440  0.00  0.00    +0.003 A 
ENDBRANCH  23  24
ENDBRANCH  22  23
ENDBRANCH  21  22
ENDBRANCH  18  21
ENDBRANCH  17  18
ENDBRANCH   1  17
TORSDOF 10
