REMARK  Name = *****
REMARK                            x       y       z     vdW  Elec       q    Type
REMARK                         _______ _______ _______ _____ _____    ______ ____
ROOT
ATOM      1  C   LIG    1       -2.198   8.057  -0.559  0.00  0.00    +0.012 C 
ATOM      2  C   LIG    1       -3.030   6.774  -0.411  0.00  0.00    +0.013 C 
ATOM      3  C   LIG    1       -2.246   5.477  -0.302  0.00  0.00    -0.053 C 
ATOM      4  C   LIG    1       -3.098   4.244   0.057  0.00  0.00    +0.018 C 
ATOM      5  C   LIG    1       -3.530   4.392   1.536  0.00  0.00    +0.021 C 
ATOM      6  C   LIG    1       -2.247   2.970   0.024  0.00  0.00    -0.012 C 
ATOM      7  C   LIG    1       -0.931   2.913  -0.215  0.00  0.00    +0.047 C 
ATOM      8  C   LIG    1       -0.165   4.137  -0.491  0.00  0.00    +0.179 C 
ATOM      9  O   LIG    1        1.040   4.106  -0.692  0.00  0.00    -0.288 OA
ATOM     10  C   LIG    1       -4.296   4.098  -0.972  0.00  0.00    +0.072 C 
ATOM     11  C   LIG    1       -4.881   5.395  -1.583  0.00  0.00    +0.005 C 
ATOM     12  C   LIG    1       -6.323   5.742  -1.182  0.00  0.00    +0.002 C 
ATOM     13  C   LIG    1       -7.339   4.619  -1.508  0.00  0.00    +0.013 C 
ATOM     14  C   LIG    1       -7.544   4.454  -3.026  0.00  0.00    +0.015 C 
ATOM     15  C   LIG    1       -6.846   3.289  -0.904  0.00  0.00    +0.084 C 
ATOM     16  C   LIG    1       -8.612   5.217  -0.829  0.00  0.00    +0.132 C 
ATOM     17  C   LIG    1       -8.094   5.708   0.528  0.00  0.00    +0.043 C 
ATOM     18  C   LIG    1       -6.612   6.068   0.291  0.00  0.00    +0.007 C 
ATOM     19  C   LIG    1       -5.388   3.125  -0.504  0.00  0.00    +0.138 C 
ATOM     20  O   LIG    1       -5.099   2.106   0.134  0.00  0.00    -0.297 OA
ATOM     21  C   LIG    1       -0.920   5.407  -0.535  0.00  0.00    +0.051 C 
ATOM     22  C   LIG    1       -3.963   6.632  -1.606  0.00  0.00    +0.012 C 
ENDROOT
BRANCH  16  23
ATOM     23  O   LIG    1       -8.984   6.417  -1.566  0.00  0.00    -0.380 OA
ATOM     24  H   LIG    1       -9.867   6.684  -1.233  0.00  0.00    +0.211 HD
ENDBRANCH  16  23
BRANCH  16  25
ATOM     25  C   LIG    1       -9.953   4.460  -0.728  0.00  0.00    +0.190 C 
ATOM     26  O   LIG    1      -11.008   5.113  -0.661  0.00  0.00    -0.292 OA
BRANCH  25  27
ATOM     27  C   LIG    1      -10.015   2.953  -0.614  0.00  0.00    +0.233 C 
BRANCH  27  28
ATOM     28  O   LIG    1       -9.873   2.531   0.727  0.00  0.00    -0.387 OA
ATOM     29  H   LIG    1      -10.708   2.755   1.181  0.00  0.00    +0.210 HD
ENDBRANCH  27  28
ENDBRANCH  25  27
ENDBRANCH  16  25
TORSDOF 4
