REMARK  Name = *****
REMARK                            x       y       z     vdW  Elec       q    Type
REMARK                         _______ _______ _______ _____ _____    ______ ____
ROOT
ATOM      1  C   LIG    1        0.895   6.460   3.438  0.00  0.00    -0.019 C 
ATOM      2  C   LIG    1        1.116   7.718   4.089  0.00  0.00    +0.005 C 
ATOM      3  C   LIG    1        0.301   7.767   5.235  0.00  0.00    +0.054 C 
ATOM      4  C   LIG    1        0.399   8.846   6.139  0.00  0.00    +0.028 C 
ATOM      5  C   LIG    1        1.269   9.902   5.852  0.00  0.00    +0.022 C 
ATOM      6  C   LIG    1        2.032   9.890   4.695  0.00  0.00    +0.042 C 
ATOM      7 CL   LIG    1        3.107  11.199   4.382  0.00  0.00    -0.084 Cl
ATOM      8  N   LIG    1       -0.459   6.594   5.258  0.00  0.00    -0.316 NA
ATOM      9  C   LIG    1        1.967   8.814   3.805  0.00  0.00    +0.030 C 
ATOM     10  C   LIG    1       -0.062   5.813   4.189  0.00  0.00    +0.096 C 
ENDROOT
BRANCH   8  11
ATOM     11  C   LIG    1       -1.485   6.205   6.180  0.00  0.00    +0.047 C 
ATOM     12  C   LIG    1       -2.256   7.157   6.858  0.00  0.00    +0.029 C 
ATOM     13  C   LIG    1       -3.253   6.752   7.753  0.00  0.00    +0.040 C 
ATOM     14  C   LIG    1       -3.489   5.399   7.960  0.00  0.00    +0.123 C 
ATOM     15  F   LIG    1       -4.446   5.018   8.815  0.00  0.00    -0.205 F 
ATOM     16  C   LIG    1       -2.754   4.439   7.281  0.00  0.00    +0.040 C 
ATOM     17  C   LIG    1       -1.756   4.838   6.387  0.00  0.00    +0.029 C 
ENDBRANCH   8  11
BRANCH   1  21
ATOM     18  N   LIG    1        2.264   3.070   1.828  0.00  0.00    -0.301 NA
ATOM     19  C   LIG    1        2.997   3.930   2.763  0.00  0.00    +0.085 C 
ATOM     20  C   LIG    1        2.972   5.414   2.404  0.00  0.00    +0.023 C 
ATOM     21  C   LIG    1        1.557   5.967   2.164  0.00  0.00    +0.024 C 
ATOM     22  C   LIG    1        0.692   4.984   1.350  0.00  0.00    +0.023 C 
ATOM     23  C   LIG    1        0.865   3.511   1.748  0.00  0.00    +0.085 C 
BRANCH  18  24
ATOM     24  C   LIG    1        2.862   2.954   0.481  0.00  0.00    +0.103 C 
BRANCH  24  25
ATOM     25  C   LIG    1        4.318   2.456   0.396  0.00  0.00    +0.124 C 
BRANCH  25  28
ATOM     26  O   LIG    1        4.740  -0.055  -1.117  0.00  0.00    -0.253 OA
ATOM     27  C   LIG    1        4.781   0.004   0.107  0.00  0.00    +0.302 C 
ATOM     28  N   LIG    1        4.520   1.113   0.906  0.00  0.00    -0.283 N 
ATOM     29  C   LIG    1        4.783   0.813   2.288  0.00  0.00    +0.128 C 
ATOM     30  C   LIG    1        4.844  -0.722   2.299  0.00  0.00    +0.124 C 
ATOM     31  N   LIG    1        5.099  -1.054   0.932  0.00  0.00    -0.298 N 
ATOM     32  H   LIG    1        5.192  -1.980   0.545  0.00  0.00    +0.150 HD
ENDBRANCH  25  28
ENDBRANCH  24  25
ENDBRANCH  18  24
ENDBRANCH   1  21
TORSDOF 5
