REMARK  Name = *****
REMARK                            x       y       z     vdW  Elec       q    Type
REMARK                         _______ _______ _______ _____ _____    ______ ____
ROOT
ATOM      1  O   LIG    1        1.581   0.905   0.006  0.00  0.00    -0.245 OA
ATOM      2  C   LIG    1        2.732   0.526   0.016  0.00  0.00    +0.341 C 
ATOM      3  C   LIG    1        3.188  -0.852   0.052  0.00  0.00    +0.067 A 
ATOM      4  C   LIG    1        4.567  -0.872   0.125  0.00  0.00    +0.019 A 
ATOM      5  C   LIG    1        5.228  -2.093   0.198  0.00  0.00    +0.009 A 
ATOM      6  C   LIG    1        4.473  -3.272   0.150  0.00  0.00    +0.001 A 
ATOM      7  C   LIG    1        3.073  -3.227   0.068  0.00  0.00    +0.001 A 
ATOM      8  C   LIG    1        5.090   0.536   0.100  0.00  0.00    +0.190 C 
ATOM      9  C   LIG    1        2.412  -2.000   0.030  0.00  0.00    +0.015 A 
ATOM     10  O   LIG    1        3.846   1.307   0.036  0.00  0.00    -0.440 OA
ENDROOT
BRANCH   8  11
ATOM     11  C   LIG    1        5.811   0.909   1.413  0.00  0.00    +0.005 A 
ATOM     12  C   LIG    1        7.216   0.868   1.514  0.00  0.00    +0.012 A 
ATOM     13  C   LIG    1        7.864   1.238   2.696  0.00  0.00    +0.046 A 
ATOM     14  C   LIG    1        7.120   1.628   3.800  0.00  0.00    +0.117 A 
ATOM     15  C   LIG    1        5.734   1.657   3.744  0.00  0.00    +0.046 A 
ATOM     16  C   LIG    1        5.085   1.298   2.558  0.00  0.00    +0.012 A 
BRANCH  14  17
ATOM     17  O   LIG    1        7.795   1.977   4.931  0.00  0.00    -0.507 OA
ATOM     18  H   LIG    1        7.149   2.203   5.621  0.00  0.00    +0.292 HD
ENDBRANCH  14  17
ENDBRANCH   8  11
BRANCH   8  19
ATOM     19  C   LIG    1        5.865   0.950  -1.168  0.00  0.00    +0.005 A 
ATOM     20  C   LIG    1        6.295   0.035  -2.146  0.00  0.00    +0.012 A 
ATOM     21  C   LIG    1        7.020   0.458  -3.264  0.00  0.00    +0.046 A 
ATOM     22  C   LIG    1        7.322   1.802  -3.426  0.00  0.00    +0.117 A 
ATOM     23  C   LIG    1        6.913   2.736  -2.484  0.00  0.00    +0.046 A 
ATOM     24  C   LIG    1        6.187   2.312  -1.367  0.00  0.00    +0.012 A 
BRANCH  22  25
ATOM     25  O   LIG    1        8.026   2.165  -4.535  0.00  0.00    -0.507 OA
ATOM     26  H   LIG    1        8.122   3.131  -4.537  0.00  0.00    +0.292 HD
ENDBRANCH  22  25
ENDBRANCH   8  19
TORSDOF 4
