REMARK  Name = *****
REMARK                            x       y       z     vdW  Elec       q    Type
REMARK                         _______ _______ _______ _____ _____    ______ ____
ROOT
ATOM      1  C   LIG    1        3.842   2.554  -0.572  0.00  0.00    +0.046 A 
ATOM      2  C   LIG    1        3.477   2.309   0.816  0.00  0.00    +0.025 A 
ATOM      3  C   LIG    1        2.102   2.261   1.089  0.00  0.00    +0.074 A 
ATOM      4  C   LIG    1        1.647   2.071   2.385  0.00  0.00    +0.032 A 
ATOM      5  C   LIG    1        2.513   1.875   3.457  0.00  0.00    +0.048 A 
ATOM      6  C   LIG    1        3.877   1.888   3.259  0.00  0.00    +0.121 A 
ATOM      7  N   LIG    1        1.145   2.366   0.171  0.00  0.00    -0.246 NA
ATOM      8  C   LIG    1        1.477   2.613  -1.099  0.00  0.00    +0.075 A 
ATOM      9  C   LIG    1        0.430   2.642  -2.018  0.00  0.00    +0.048 A 
ATOM     10  C   LIG    1        0.603   2.924  -3.370  0.00  0.00    +0.043 A 
ATOM     11 CL   LIG    1       -0.690   2.891  -4.474  0.00  0.00    -0.084 Cl
ATOM     12  C   LIG    1        1.881   3.222  -3.824  0.00  0.00    +0.021 A 
ATOM     13  C   LIG    1        2.928   3.169  -2.917  0.00  0.00    +0.013 A 
ATOM     14  C   LIG    1        4.362   2.098   1.949  0.00  0.00    +0.057 A 
ATOM     15  C   LIG    1        2.794   2.789  -1.535  0.00  0.00    +0.022 A 
ENDROOT
BRANCH   1  16
ATOM     16  N   LIG    1        5.222   2.624  -0.877  0.00  0.00    -0.340 N 
ATOM     17  H   LIG    1        5.809   2.199  -0.166  0.00  0.00    +0.146 HD
BRANCH  16  18
ATOM     18  C   LIG    1        5.852   2.577  -2.213  0.00  0.00    +0.067 C 
ATOM     19  C   LIG    1        7.342   2.888  -2.067  0.00  0.00    +0.027 C 
BRANCH  18  20
ATOM     20  C   LIG    1        5.491   1.273  -2.990  0.00  0.00    +0.023 C 
BRANCH  20  21
ATOM     21  C   LIG    1        5.961   1.156  -4.458  0.00  0.00    +0.017 C 
BRANCH  21  22
ATOM     22  C   LIG    1        7.414   0.760  -4.757  0.00  0.00    +0.084 C 
BRANCH  22  23
ATOM     23  N   LIG    1        7.987  -0.487  -4.193  0.00  0.00    -0.303 NA
BRANCH  23  25
ATOM     24  C   LIG    1       10.324  -1.653  -4.111  0.00  0.00    +0.020 C 
ATOM     25  C   LIG    1        9.447  -0.477  -4.550  0.00  0.00    +0.081 C 
ENDBRANCH  23  25
BRANCH  23  26
ATOM     26  C   LIG    1        7.365  -1.731  -4.700  0.00  0.00    +0.081 C 
ATOM     27  C   LIG    1        5.866  -1.989  -4.505  0.00  0.00    +0.020 C 
ENDBRANCH  23  26
ENDBRANCH  22  23
ENDBRANCH  21  22
ENDBRANCH  20  21
ENDBRANCH  18  20
ENDBRANCH  16  18
ENDBRANCH   1  16
BRANCH   6  28
ATOM     28  O   LIG    1        4.792   1.613   4.243  0.00  0.00    -0.495 OA
ATOM     29  C   LIG    1        4.408   1.967   5.573  0.00  0.00    +0.277 C 
ENDBRANCH   6  28
TORSDOF 9
