REMARK  Name = *****
REMARK                            x       y       z     vdW  Elec       q    Type
REMARK                         _______ _______ _______ _____ _____    ______ ____
ROOT
ATOM      1  C   LIG    1        4.660   0.922  -1.494  0.00  0.00    +0.059 C 
ENDROOT
BRANCH   1   2
ATOM      2  C   LIG    1        4.987   2.026  -2.570  0.00  0.00    -0.033 A 
ATOM      3  C   LIG    1        4.152   3.152  -2.758  0.00  0.00    +0.005 A 
ATOM      4  C   LIG    1        4.453   4.162  -3.682  0.00  0.00    +0.000 A 
ATOM      5  C   LIG    1        5.625   4.105  -4.421  0.00  0.00    +0.000 A 
ATOM      6  C   LIG    1        6.479   3.023  -4.255  0.00  0.00    +0.000 A 
ATOM      7  C   LIG    1        6.152   1.992  -3.362  0.00  0.00    +0.005 A 
ENDBRANCH   1   2
BRANCH   1   8
ATOM      8  C   LIG    1        5.265  -0.513  -1.768  0.00  0.00    -0.033 A 
ATOM      9  C   LIG    1        5.424  -1.018  -3.075  0.00  0.00    +0.005 A 
ATOM     10  C   LIG    1        5.862  -2.328  -3.323  0.00  0.00    +0.000 A 
ATOM     11  C   LIG    1        6.114  -3.198  -2.271  0.00  0.00    +0.000 A 
ATOM     12  C   LIG    1        5.974  -2.739  -0.968  0.00  0.00    +0.000 A 
ATOM     13  C   LIG    1        5.570  -1.416  -0.722  0.00  0.00    +0.005 A 
ENDBRANCH   1   8
BRANCH   1  14
ATOM     14  C   LIG    1        3.030   0.744  -1.432  0.00  0.00    +0.191 C 
BRANCH  14  16
ATOM     15  C   LIG    1        0.853   0.234  -2.793  0.00  0.00    +0.007 C 
ATOM     16  C   LIG    1        2.383   0.274  -2.768  0.00  0.00    +0.042 C 
ENDBRANCH  14  16
BRANCH  14  17
ATOM     17  O   LIG    1        2.643  -0.188  -0.389  0.00  0.00    -0.460 OA
BRANCH  17  18
ATOM     18  C   LIG    1        1.480   0.074   0.274  0.00  0.00    +0.304 C 
ATOM     19  O   LIG    1        0.772   1.071   0.209  0.00  0.00    -0.251 OA
ATOM     20  C   LIG    1        1.138  -1.177   1.084  0.00  0.00    +0.136 C 
ENDBRANCH  17  18
ENDBRANCH  14  17
ENDBRANCH   1  14
BRANCH   1  21
ATOM     21  C   LIG    1        5.111   1.466  -0.048  0.00  0.00    +0.038 C 
BRANCH  21  22
ATOM     22  C   LIG    1        6.636   1.655   0.343  0.00  0.00    +0.054 C 
ATOM     23  C   LIG    1        7.299   2.764  -0.487  0.00  0.00    +0.024 C 
BRANCH  22  24
ATOM     24  N   LIG    1        6.800   1.989   1.804  0.00  0.00    -0.306 NA
ATOM     25  C   LIG    1        8.191   2.318   2.171  0.00  0.00    +0.105 C 
ATOM     26  C   LIG    1        6.362   0.908   2.695  0.00  0.00    +0.105 C 
ENDBRANCH  22  24
ENDBRANCH  21  22
ENDBRANCH   1  21
TORSDOF 9
