REMARK  Name = *****
REMARK                            x       y       z     vdW  Elec       q    Type
REMARK                         _______ _______ _______ _____ _____    ______ ____
ROOT
ATOM      1  O   LIG    1        8.706   1.612   2.369  0.00  0.00    -0.459 OA
ENDROOT
BRANCH   1   2
ATOM      2  C   LIG    1        8.881   2.070   1.103  0.00  0.00    +0.341 C 
ATOM      3  O   LIG    1        8.204   2.913   0.546  0.00  0.00    -0.245 OA
BRANCH   2   4
ATOM      4  C   LIG    1       10.028   1.392   0.458  0.00  0.00    +0.077 A 
ATOM      5  C   LIG    1       10.732   0.370   1.080  0.00  0.00    +0.125 A 
ATOM      6  N   LIG    1       11.787  -0.273   0.520  0.00  0.00    -0.262 NA
ATOM      7  C   LIG    1       12.155   0.124  -0.717  0.00  0.00    +0.111 A 
ATOM      8  C   LIG    1       11.511   1.126  -1.426  0.00  0.00    +0.020 A 
ATOM      9  C   LIG    1       10.428   1.769  -0.828  0.00  0.00    +0.018 A 
ENDBRANCH   2   4
ENDBRANCH   1   2
BRANCH   1  10
ATOM     10  C   LIG    1        7.622   2.210   3.101  0.00  0.00    +0.260 C 
BRANCH  10  11
ATOM     11  C   LIG    1        6.294   1.533   2.767  0.00  0.00    +0.201 C 
BRANCH  11  12
ATOM     12  O   LIG    1        5.250   2.068   3.583  0.00  0.00    -0.376 OA
BRANCH  12  13
ATOM     13  C   LIG    1        3.986   1.485   3.259  0.00  0.00    +0.160 C 
BRANCH  13  14
ATOM     14  C   LIG    1        2.888   2.074   4.146  0.00  0.00    +0.028 C 
BRANCH  14  16
ATOM     15  C   LIG    1        1.655   4.192   4.808  0.00  0.00    +0.004 C 
ATOM     16  C   LIG    1        2.752   3.585   3.947  0.00  0.00    -0.001 C 
ENDBRANCH  14  16
ENDBRANCH  13  14
ENDBRANCH  12  13
ENDBRANCH  11  12
ENDBRANCH  10  11
ENDBRANCH   1  10
TORSDOF 8
