REMARK  Name = *****
REMARK                            x       y       z     vdW  Elec       q    Type
REMARK                         _______ _______ _______ _____ _____    ______ ____
ROOT
ATOM      1  C   LIG    1        2.582  -6.520  -1.595  0.00  0.00    +0.173 A 
ATOM      2  C   LIG    1        3.408  -7.162  -2.578  0.00  0.00    +0.206 A 
ATOM      3  C   LIG    1        3.869  -8.531  -2.316  0.00  0.00    +0.187 A 
ATOM      4  C   LIG    1        3.434  -9.225  -1.161  0.00  0.00    +0.085 A 
ATOM      5  C   LIG    1        2.859  -8.437  -0.174  0.00  0.00    +0.094 A 
ATOM      6  C   LIG    1        2.488  -8.802   1.163  0.00  0.00    +0.342 C 
ATOM      7  O   LIG    1        2.242  -7.699   1.858  0.00  0.00    -0.451 OA
ATOM      8  C   LIG    1        2.647  -6.508   1.067  0.00  0.00    +0.233 C 
ATOM      9  O   LIG    1        2.312 -10.018   1.573  0.00  0.00    -0.245 OA
ATOM     10  C   LIG    1        2.618  -7.090  -0.317  0.00  0.00    +0.056 A 
ENDROOT
BRANCH   8  11
ATOM     11  C   LIG    1        4.104  -6.046   1.663  0.00  0.00    +0.136 C 
ATOM     12  N   LIG    1        5.096  -7.183   1.671  0.00  0.00    -0.295 NA
ATOM     13  C   LIG    1        5.801  -7.295   2.948  0.00  0.00    +0.105 C 
ATOM     14  C   LIG    1        6.097  -7.191   0.586  0.00  0.00    +0.089 C 
ATOM     15  C   LIG    1        5.795  -6.309  -0.602  0.00  0.00    +0.051 C 
ATOM     16  C   LIG    1        5.402  -4.936  -0.183  0.00  0.00    -0.034 A 
ATOM     17  C   LIG    1        5.720  -3.851  -0.991  0.00  0.00    +0.053 A 
ATOM     18  C   LIG    1        5.332  -2.608  -0.570  0.00  0.00    +0.170 A 
ATOM     19  O   LIG    1        5.445  -1.475  -1.311  0.00  0.00    -0.453 OA
ATOM     20  C   LIG    1        4.946  -0.504  -0.382  0.00  0.00    +0.467 C 
ATOM     21  O   LIG    1        4.606  -1.070   0.897  0.00  0.00    -0.449 OA
ATOM     22  C   LIG    1        4.782  -2.405   0.674  0.00  0.00    +0.208 A 
ATOM     23  C   LIG    1        4.470  -3.471   1.517  0.00  0.00    +0.170 A 
ATOM     24  C   LIG    1        4.671  -4.775   1.018  0.00  0.00    +0.022 A 
BRANCH  23  25
ATOM     25  O   LIG    1        4.046  -3.372   2.813  0.00  0.00    -0.491 OA
ATOM     26  C   LIG    1        3.441  -2.143   3.195  0.00  0.00    +0.277 C 
ENDBRANCH  23  25
ENDBRANCH   8  11
BRANCH   4  27
ATOM     27  N   LIG    1        3.813 -10.534  -0.777  0.00  0.00    -0.354 N 
ATOM     28  H   LIG    1        4.691 -10.544  -0.263  0.00  0.00    +0.142 HD
ATOM     29  H   LIG    1        3.108 -10.946  -0.156  0.00  0.00    +0.142 HD
ENDBRANCH   4  27
BRANCH   1  30
ATOM     30  O   LIG    1        1.585  -5.573  -1.663  0.00  0.00    -0.488 OA
BRANCH  30  32
ATOM     31  C   LIG    1        0.644  -5.512  -4.103  0.00  0.00    +0.048 C 
ATOM     32  C   LIG    1        1.183  -4.858  -2.824  0.00  0.00    +0.226 C 
ENDBRANCH  30  32
ENDBRANCH   1  30
BRANCH   2  33
ATOM     33  O   LIG    1        4.274  -6.467  -3.488  0.00  0.00    -0.485 OA
BRANCH  33  34
ATOM     34  C   LIG    1        3.732  -5.357  -4.186  0.00  0.00    +0.226 C 
ATOM     35  C   LIG    1        3.941  -3.958  -3.544  0.00  0.00    +0.048 C 
ENDBRANCH  33  34
ENDBRANCH   2  33
BRANCH   3  36
ATOM     36  O   LIG    1        4.767  -9.035  -3.243  0.00  0.00    -0.487 OA
BRANCH  36  37
ATOM     37  C   LIG    1        5.386 -10.305  -3.009  0.00  0.00    +0.226 C 
ATOM     38  C   LIG    1        4.441 -11.458  -3.337  0.00  0.00    +0.048 C 
ENDBRANCH  36  37
ENDBRANCH   3  36
TORSDOF 9
