REMARK  Name = *****
REMARK                            x       y       z     vdW  Elec       q    Type
REMARK                         _______ _______ _______ _____ _____    ______ ____
ROOT
ATOM      1  O   LIG    1        2.157   1.709  -1.752  0.00  0.00    -0.458 OA
ENDROOT
BRANCH   1   3
ATOM      2  C   LIG    1        3.423   0.843   0.186  0.00  0.00    +0.032 C 
ATOM      3  C   LIG    1        2.890   2.098  -0.571  0.00  0.00    +0.180 C 
ATOM      4  C   LIG    1        2.019   2.984   0.330  0.00  0.00    +0.048 C 
ATOM      5  C   LIG    1        2.721   3.417   1.625  0.00  0.00    -0.011 C 
ATOM      6  C   LIG    1        3.750   4.527   1.376  0.00  0.00    +0.007 C 
ATOM      7  C   LIG    1        3.355   2.220   2.346  0.00  0.00    +0.004 C 
ATOM      8  C   LIG    1        4.205   1.343   1.423  0.00  0.00    +0.007 C 
BRANCH   2  10
ATOM      9  C   LIG    1        1.586  -0.796  -0.640  0.00  0.00    +0.007 C 
ATOM     10  C   LIG    1        2.386  -0.278   0.559  0.00  0.00    -0.011 C 
ATOM     11  C   LIG    1        3.079  -1.495   1.200  0.00  0.00    +0.007 C 
ENDBRANCH   2  10
ENDBRANCH   1   3
BRANCH   1  12
ATOM     12  C   LIG    1        2.045   2.634  -2.747  0.00  0.00    +0.341 C 
ATOM     13  O   LIG    1        2.524   3.752  -2.749  0.00  0.00    -0.245 OA
BRANCH  12  14
ATOM     14  C   LIG    1        1.200   2.086  -3.852  0.00  0.00    +0.080 A 
ATOM     15  C   LIG    1        0.469   2.957  -4.687  0.00  0.00    +0.039 A 
ATOM     16  C   LIG    1       -0.333   2.397  -5.697  0.00  0.00    +0.023 A 
ATOM     17  C   LIG    1       -0.355   1.018  -5.923  0.00  0.00    +0.002 A 
ATOM     18  C   LIG    1        0.403   0.171  -5.125  0.00  0.00    +0.001 A 
ATOM     19  C   LIG    1        1.180   0.704  -4.097  0.00  0.00    +0.017 A 
BRANCH  15  20
ATOM     20  N   LIG    1        0.315   4.330  -4.408  0.00  0.00    -0.357 N 
ATOM     21  H   LIG    1        1.101   4.707  -3.869  0.00  0.00    +0.142 HD
ATOM     22  H   LIG    1        0.109   4.898  -5.223  0.00  0.00    +0.142 HD
ENDBRANCH  15  20
ENDBRANCH  12  14
ENDBRANCH   1  12
TORSDOF 5
