REMARK  Name = *****
REMARK                            x       y       z     vdW  Elec       q    Type
REMARK                         _______ _______ _______ _____ _____    ______ ____
ROOT
ATOM      1  C   LIG    1        4.355  -0.367  -1.212  0.00  0.00    +0.065 C 
ATOM      2  C   LIG    1        5.130   0.385  -0.119  0.00  0.00    +0.096 C 
ATOM      3  C   LIG    1        6.624   0.045  -0.088  0.00  0.00    +0.065 C 
ATOM      4  C   LIG    1        7.096  -1.029  -0.767  0.00  0.00    +0.016 C 
ATOM      5  C   LIG    1        8.522  -1.523  -0.766  0.00  0.00    +0.061 C 
ATOM      6  N   LIG    1        6.234  -1.764  -1.564  0.00  0.00    -0.321 N 
ATOM      7  H   LIG    1        6.658  -2.475  -2.156  0.00  0.00    +0.152 HD
ATOM      8  C   LIG    1        4.933  -1.396  -1.877  0.00  0.00    +0.016 C 
ATOM      9  C   LIG    1        4.311  -2.210  -2.988  0.00  0.00    +0.061 C 
ENDROOT
BRANCH   2  10
ATOM     10  C   LIG    1        4.470   0.189   1.259  0.00  0.00    -0.029 A 
ATOM     11  C   LIG    1        4.467  -1.063   1.895  0.00  0.00    +0.088 A 
ATOM     12  C   LIG    1        3.859  -1.211   3.152  0.00  0.00    +0.273 A 
ATOM     13  C   LIG    1        3.268  -0.118   3.798  0.00  0.00    +0.084 A 
ATOM     14  C   LIG    1        3.262   1.124   3.169  0.00  0.00    +0.007 A 
ATOM     15  C   LIG    1        3.847   1.273   1.908  0.00  0.00    +0.005 A 
BRANCH  12  16
ATOM     16  N   LIG    1        3.831  -2.531   3.795  0.00  0.00    +0.080 N 
ATOM     17  O   LIG    1        4.360  -3.477   3.195  0.00  0.00    -0.576 OA
ATOM     18  O   LIG    1        3.277  -2.623   4.900  0.00  0.00    +0.041 OA
ENDBRANCH  12  16
ENDBRANCH   2  10
BRANCH   1  19
ATOM     19  C   LIG    1        2.983   0.137  -1.525  0.00  0.00    +0.337 C 
ATOM     20  O   LIG    1        2.100  -0.493  -2.064  0.00  0.00    -0.245 OA
BRANCH  19  22
ATOM     21  C   LIG    1        1.664   2.102  -1.392  0.00  0.00    +0.280 C 
ATOM     22  O   LIG    1        2.894   1.433  -1.122  0.00  0.00    -0.465 OA
ENDBRANCH  19  22
ENDBRANCH   1  19
BRANCH   3  23
ATOM     23  C   LIG    1        7.449   1.052   0.635  0.00  0.00    +0.338 C 
ATOM     24  O   LIG    1        6.973   2.000   1.246  0.00  0.00    -0.245 OA
BRANCH  23  25
ATOM     25  O   LIG    1        8.769   0.839   0.456  0.00  0.00    -0.460 OA
BRANCH  25  26
ATOM     26  C   LIG    1        9.660   1.802   1.034  0.00  0.00    +0.247 C 
BRANCH  26  27
ATOM     27  C   LIG    1        9.854   1.513   2.528  0.00  0.00    +0.125 C 
BRANCH  27  28
ATOM     28  N   LIG    1       10.746   2.441   3.247  0.00  0.00    -0.298 NA
ATOM     29  C   LIG    1       10.797   2.031   4.658  0.00  0.00    +0.105 C 
BRANCH  28  30
ATOM     30  C   LIG    1       12.094   2.493   2.644  0.00  0.00    +0.119 C 
BRANCH  30  31
ATOM     31  C   LIG    1       13.068   3.437   3.321  0.00  0.00    -0.033 A 
ATOM     32  C   LIG    1       12.636   4.628   3.926  0.00  0.00    +0.005 A 
ATOM     33  C   LIG    1       13.542   5.473   4.563  0.00  0.00    +0.000 A 
ATOM     34  C   LIG    1       14.899   5.162   4.564  0.00  0.00    +0.000 A 
ATOM     35  C   LIG    1       15.350   4.006   3.929  0.00  0.00    +0.000 A 
ATOM     36  C   LIG    1       14.440   3.149   3.306  0.00  0.00    +0.005 A 
ENDBRANCH  30  31
ENDBRANCH  28  30
ENDBRANCH  27  28
ENDBRANCH  26  27
ENDBRANCH  25  26
ENDBRANCH  23  25
ENDBRANCH   3  23
TORSDOF 11
