REMARK  Name = *****
REMARK                            x       y       z     vdW  Elec       q    Type
REMARK                         _______ _______ _______ _____ _____    ______ ____
ROOT
ATOM      1  C   LIG    1        3.440   4.337   7.058  0.00  0.00    +0.027 C 
ENDROOT
BRANCH   1   3
ATOM      2  C   LIG    1        4.530   5.244   4.836  0.00  0.00    -0.027 C 
ATOM      3  C   LIG    1        3.871   5.346   6.011  0.00  0.00    -0.031 C 
BRANCH   2   4
ATOM      4  C   LIG    1        5.206   4.089   4.127  0.00  0.00    +0.054 C 
BRANCH   4   6
ATOM      5  C   LIG    1        4.804   2.707   1.993  0.00  0.00    -0.031 C 
ATOM      6  C   LIG    1        4.743   3.861   2.696  0.00  0.00    -0.027 C 
BRANCH   5   7
ATOM      7  C   LIG    1        5.409   1.407   2.472  0.00  0.00    +0.027 C 
BRANCH   7   8
ATOM      8  C   LIG    1        4.758   0.098   1.984  0.00  0.00    +0.004 C 
BRANCH   8   9
ATOM      9  C   LIG    1        5.523  -1.161   2.459  0.00  0.00    +0.000 C 
BRANCH   9  11
ATOM     10  C   LIG    1        6.362  -2.565   4.407  0.00  0.00    +0.004 C 
ATOM     11  C   LIG    1        5.603  -1.313   3.983  0.00  0.00    -0.003 C 
ENDBRANCH   9  11
ENDBRANCH   8   9
ENDBRANCH   7   8
ENDBRANCH   5   7
ENDBRANCH   4   6
ENDBRANCH   2   4
ENDBRANCH   1   3
BRANCH   1  12
ATOM     12  C   LIG    1        4.452   4.206   8.206  0.00  0.00    +0.004 C 
BRANCH  12  13
ATOM     13  C   LIG    1        4.028   3.274   9.358  0.00  0.00    +0.000 C 
BRANCH  13  14
ATOM     14  C   LIG    1        5.098   3.199  10.469  0.00  0.00    +0.000 C 
BRANCH  14  15
ATOM     15  C   LIG    1        5.375   4.553  11.136  0.00  0.00    +0.000 C 
BRANCH  15  16
ATOM     16  C   LIG    1        6.472   4.472  12.200  0.00  0.00    +0.011 C 
BRANCH  16  17
ATOM     17  C   LIG    1        6.724   5.816  12.886  0.00  0.00    +0.120 C 
BRANCH  17  18
ATOM     18  C   LIG    1        7.226   6.894  11.967  0.00  0.00    +0.305 C 
ATOM     19  O   LIG    1        8.423   7.054  11.682  0.00  0.00    -0.251 OA
BRANCH  18  20
ATOM     20  O   LIG    1        6.261   7.686  11.459  0.00  0.00    -0.481 OA
ATOM     21  H   LIG    1        5.361   7.456  11.751  0.00  0.00    +0.295 HD
ENDBRANCH  18  20
ENDBRANCH  17  18
ENDBRANCH  16  17
ENDBRANCH  15  16
ENDBRANCH  14  15
ENDBRANCH  13  14
ENDBRANCH  12  13
ENDBRANCH   1  12
TORSDOF 15
