REMARK  Name = *****
REMARK                            x       y       z     vdW  Elec       q    Type
REMARK                         _______ _______ _______ _____ _____    ______ ____
ROOT
ATOM      1  C   LIG    1        2.246   0.601   1.199  0.00  0.00    +0.104 C 
ATOM      2  C   LIG    1        3.609  -0.161   0.974  0.00  0.00    +0.158 C 
ATOM      3  O   LIG    1        3.897  -1.219   1.526  0.00  0.00    -0.295 OA
ATOM      4  C   LIG    1        4.508   0.354  -0.137  0.00  0.00    +0.076 C 
ATOM      5  C   LIG    1        4.696   1.858  -0.085  0.00  0.00    +0.008 C 
ATOM      6  C   LIG    1        3.357   2.580  -0.048  0.00  0.00    +0.003 C 
ATOM      7  C   LIG    1        2.541   2.129   1.166  0.00  0.00    +0.035 C 
ENDROOT
BRANCH   1   8
ATOM      8  C   LIG    1        1.590   0.318   2.580  0.00  0.00    -0.002 A 
ATOM      9  C   LIG    1        0.210   0.441   2.865  0.00  0.00    +0.046 A 
ATOM     10 CL   LIG    1       -0.967   0.988   1.717  0.00  0.00    -0.083 Cl
ATOM     11  C   LIG    1       -0.295   0.178   4.151  0.00  0.00    +0.020 A 
ATOM     12  C   LIG    1        0.554  -0.157   5.199  0.00  0.00    +0.001 A 
ATOM     13  C   LIG    1        1.919  -0.220   4.970  0.00  0.00    +0.001 A 
ATOM     14  C   LIG    1        2.424   0.022   3.687  0.00  0.00    +0.007 A 
ENDBRANCH   1   8
BRANCH   1  16
ATOM     15  C   LIG    1        1.072  -1.124  -0.162  0.00  0.00    +0.102 C 
ATOM     16  N   LIG    1        1.407   0.286   0.013  0.00  0.00    -0.304 NA
ATOM     17  H   LIG    1        0.539   0.819   0.079  0.00  0.00    +0.123 HD
ENDBRANCH   1  16
TORSDOF 2
