REMARK  Name = *****
REMARK                            x       y       z     vdW  Elec       q    Type
REMARK                         _______ _______ _______ _____ _____    ______ ____
ROOT
ATOM      1  C   LIG    1        6.864  -0.127  -0.250  0.00  0.00    +0.005 C 
ATOM      2  C   LIG    1        7.541   0.988  -0.600  0.00  0.00    -0.001 C 
ENDROOT
BRANCH   1   7
ATOM      3  C   LIG    1        1.387   0.458   1.565  0.00  0.00    +0.044 C 
ATOM      4  C   LIG    1        2.802   0.301   1.091  0.00  0.00    -0.050 A 
ATOM      5  C   LIG    1        3.087   0.154  -0.271  0.00  0.00    +0.004 A 
ATOM      6  C   LIG    1        4.409   0.024  -0.707  0.00  0.00    +0.009 A 
ATOM      7  C   LIG    1        5.468   0.050   0.212  0.00  0.00    -0.016 A 
ATOM      8  C   LIG    1        5.186   0.226   1.569  0.00  0.00    +0.009 A 
ATOM      9  C   LIG    1        3.863   0.354   2.004  0.00  0.00    +0.004 A 
ENDBRANCH   1   7
BRANCH   1  10
ATOM     10  C   LIG    1        7.450  -1.467  -0.438  0.00  0.00    +0.072 A 
ATOM     11  N   LIG    1        8.090  -2.012   0.636  0.00  0.00    -0.247 NA
ATOM     12  C   LIG    1        8.532  -3.283   0.497  0.00  0.00    +0.065 A 
ATOM     13  C   LIG    1        8.355  -4.022  -0.675  0.00  0.00    +0.028 A 
ATOM     14  C   LIG    1        7.753  -3.419  -1.776  0.00  0.00    +0.004 A 
ATOM     15  C   LIG    1        7.266  -2.128  -1.648  0.00  0.00    +0.028 A 
BRANCH  12  16
ATOM     16  C   LIG    1        9.268  -3.862   1.629  0.00  0.00    +0.035 C 
ATOM     17  C   LIG    1        9.245  -3.595   2.947  0.00  0.00    +0.093 C 
BRANCH  17  18
ATOM     18  C   LIG    1        8.477  -2.678   3.819  0.00  0.00    +0.330 C 
ATOM     19  O   LIG    1        8.431  -2.858   5.019  0.00  0.00    -0.246 OA
BRANCH  18  20
ATOM     20  O   LIG    1        7.899  -1.627   3.212  0.00  0.00    -0.477 OA
ATOM     21  H   LIG    1        7.941  -1.672   2.229  0.00  0.00    +0.295 HD
ENDBRANCH  18  20
ENDBRANCH  17  18
ENDBRANCH  12  16
ENDBRANCH   1  10
BRANCH   2  22
ATOM     22  C   LIG    1        8.935   1.097  -1.157  0.00  0.00    +0.112 C 
BRANCH  22  23
ATOM     23  N   LIG    1        8.941   1.246  -2.619  0.00  0.00    -0.299 NA
ATOM     24  C   LIG    1        8.311   2.490  -3.076  0.00  0.00    +0.085 C 
ATOM     25  C   LIG    1        8.795   2.597  -4.512  0.00  0.00    +0.017 C 
ATOM     26  C   LIG    1       10.210   2.041  -4.476  0.00  0.00    +0.017 C 
ATOM     27  C   LIG    1       10.315   1.322  -3.136  0.00  0.00    +0.085 C 
ENDBRANCH  22  23
ENDBRANCH   2  22
TORSDOF 7
