REMARK  Name = *****
REMARK                            x       y       z     vdW  Elec       q    Type
REMARK                         _______ _______ _______ _____ _____    ______ ____
ROOT
ATOM      1  C   LIG    1       10.650   7.499   1.670  0.00  0.00    +0.165 C 
ENDROOT
BRANCH   1   3
ATOM      2  C   LIG    1        8.600   6.278   0.906  0.00  0.00    +0.219 C 
ATOM      3  N   LIG    1        9.723   7.018   0.621  0.00  0.00    -0.303 N 
ATOM      4  H   LIG    1        9.793   7.462  -0.289  0.00  0.00    +0.149 HD
ATOM      5  O   LIG    1        8.249   6.047   2.064  0.00  0.00    -0.275 OA
BRANCH   2   6
ATOM      6  C   LIG    1        7.800   5.745  -0.281  0.00  0.00    +0.100 C 
BRANCH   6   7
ATOM      7  C   LIG    1        8.259   4.359  -0.804  0.00  0.00    +0.049 C 
BRANCH   7   8
ATOM      8  C   LIG    1        9.642   4.149  -1.375  0.00  0.00    -0.047 A 
ATOM      9  C   LIG    1       10.593   3.480  -0.598  0.00  0.00    +0.003 A 
ATOM     10  C   LIG    1       11.837   3.115  -1.116  0.00  0.00    +0.000 A 
ATOM     11  C   LIG    1       12.165   3.435  -2.426  0.00  0.00    +0.000 A 
ATOM     12  C   LIG    1       11.221   4.072  -3.231  0.00  0.00    +0.000 A 
ATOM     13  C   LIG    1        9.963   4.420  -2.712  0.00  0.00    +0.003 A 
ENDBRANCH   7   8
ENDBRANCH   6   7
BRANCH   6  14
ATOM     14  C   LIG    1        6.319   5.575   0.179  0.00  0.00    +0.179 C 
BRANCH  14  15
ATOM     15  S   LIG    1        5.474   7.141   0.354  0.00  0.00    -0.025 S 
ATOM     16  O   LIG    1        6.020   7.822   1.551  0.00  0.00    -0.174 OA
ATOM     17  O   LIG    1        5.534   7.727  -0.946  0.00  0.00    -0.174 OA
BRANCH  15  19
ATOM     18  C   LIG    1        2.996   8.239   0.740  0.00  0.00    +0.035 C 
ATOM     19  C   LIG    1        3.717   6.873   0.666  0.00  0.00    +0.080 C 
ATOM     20  C   LIG    1        3.143   6.068  -0.501  0.00  0.00    +0.035 C 
ATOM     21  C   LIG    1        3.518   6.170   2.004  0.00  0.00    +0.035 C 
ENDBRANCH  15  19
ENDBRANCH  14  15
ENDBRANCH   6  14
ENDBRANCH   2   6
ENDBRANCH   1   3
BRANCH   1  22
ATOM     22  C   LIG    1       11.166   8.935   1.285  0.00  0.00    +0.234 C 
ATOM     23  N   LIG    1       10.271   9.965   1.613  0.00  0.00    -0.308 N 
ATOM     24  H   LIG    1        9.687   9.791   2.429  0.00  0.00    +0.149 HD
ATOM     25  O   LIG    1       12.185   9.117   0.626  0.00  0.00    -0.274 OA
BRANCH  23  26
ATOM     26  C   LIG    1       10.481  11.411   1.315  0.00  0.00    +0.104 C 
BRANCH  26  27
ATOM     27  C   LIG    1       10.995  12.182   2.603  0.00  0.00    +0.163 C 
BRANCH  27  28
ATOM     28  O   LIG    1       11.532  13.460   2.233  0.00  0.00    -0.387 OA
ATOM     29  H   LIG    1       11.540  14.029   3.021  0.00  0.00    +0.210 HD
ENDBRANCH  27  28
BRANCH  27  30
ATOM     30  C   LIG    1       10.062  12.285   3.853  0.00  0.00    +0.148 C 
BRANCH  30  31
ATOM     31  C   LIG    1        8.917  13.265   3.786  0.00  0.00    +0.020 C 
ATOM     32  C   LIG    1        8.583  14.166   4.966  0.00  0.00    +0.006 C 
ATOM     33  C   LIG    1        9.051  14.767   3.674  0.00  0.00    +0.006 C 
ENDBRANCH  30  31
BRANCH  30  34
ATOM     34  O   LIG    1        9.511  10.993   4.125  0.00  0.00    -0.389 OA
ATOM     35  H   LIG    1        8.936  11.099   4.905  0.00  0.00    +0.210 HD
ENDBRANCH  30  34
ENDBRANCH  27  30
ENDBRANCH  26  27
BRANCH  26  36
ATOM     36  C   LIG    1        9.253  12.138   0.623  0.00  0.00    +0.028 C 
BRANCH  36  37
ATOM     37  C   LIG    1        8.869  11.747  -0.852  0.00  0.00    -0.009 C 
ATOM     38  C   LIG    1        8.424  10.309  -1.017  0.00  0.00    +0.003 C 
ATOM     39  C   LIG    1        7.165  10.084  -0.206  0.00  0.00    +0.000 C 
ATOM     40  C   LIG    1        5.967  10.842  -0.767  0.00  0.00    +0.000 C 
ATOM     41  C   LIG    1        6.311  12.323  -0.905  0.00  0.00    +0.000 C 
ATOM     42  C   LIG    1        7.712  12.575  -1.493  0.00  0.00    +0.003 C 
ENDBRANCH  36  37
ENDBRANCH  26  36
ENDBRANCH  23  26
ENDBRANCH   1  22
BRANCH   1  43
ATOM     43  C   LIG    1       11.778   6.454   1.955  0.00  0.00    +0.086 C 
BRANCH  43  44
ATOM     44  C   LIG    1       11.298   5.133   2.533  0.00  0.00    +0.037 A 
ATOM     45  N   LIG    1       10.166   5.022   3.306  0.00  0.00    -0.348 N 
ATOM     46  H   LIG    1        9.424   5.710   3.367  0.00  0.00    +0.167 HD
ATOM     47  C   LIG    1       10.066   3.747   3.770  0.00  0.00    +0.196 A 
ATOM     48  N   LIG    1       10.997   2.985   3.251  0.00  0.00    -0.244 NA
ATOM     49  C   LIG    1       11.768   3.832   2.483  0.00  0.00    +0.133 A 
ENDBRANCH  43  44
ENDBRANCH   1  43
TORSDOF 18
