REMARK  Name = *****
REMARK                            x       y       z     vdW  Elec       q    Type
REMARK                         _______ _______ _______ _____ _____    ______ ____
ROOT
ATOM      1  C   LIG    1        3.191  -1.759   0.150  0.00  0.00    +0.125 A 
ATOM      2  C   LIG    1        2.551  -2.956  -0.175  0.00  0.00    +0.069 A 
ATOM      3 CL   LIG    1        1.003  -3.031  -0.937  0.00  0.00    -0.082 Cl
ATOM      4  C   LIG    1        3.166  -4.182   0.136  0.00  0.00    +0.047 A 
ATOM      5  C   LIG    1        4.427  -4.241   0.749  0.00  0.00    +0.057 A 
ATOM      6  N   LIG    1        4.928  -5.481   1.142  0.00  0.00    -0.326 N 
ATOM      7  H   LIG    1        4.654  -6.235   0.517  0.00  0.00    +0.148 HD
ATOM      8  C   LIG    1        6.282  -5.624   1.658  0.00  0.00    +0.163 C 
ATOM      9  N   LIG    1        6.525  -4.563   2.623  0.00  0.00    -0.170 NA
ATOM     10  H   LIG    1        7.350  -4.683   3.204  0.00  0.00    +0.150 HD
ATOM     11  S   LIG    1        6.565  -3.056   1.904  0.00  0.00    +0.062 S 
ATOM     12  O   LIG    1        7.614  -3.066   0.909  0.00  0.00    -0.153 OA
ATOM     13  O   LIG    1        6.542  -2.081   2.971  0.00  0.00    -0.153 OA
ATOM     14  C   LIG    1        5.026  -3.024   1.072  0.00  0.00    +0.128 A 
ATOM     15  C   LIG    1        4.436  -1.789   0.783  0.00  0.00    +0.060 A 
ENDROOT
BRANCH   8  16
ATOM     16  C   LIG    1        6.393  -6.973   2.393  0.00  0.00    +0.033 C 
ATOM     17  C   LIG    1        6.158  -8.239   1.521  0.00  0.00    +0.018 C 
ATOM     18  C   LIG    1        6.761  -9.318   2.431  0.00  0.00    +0.015 C 
ATOM     19  C   LIG    1        8.143  -8.664   2.455  0.00  0.00    +0.012 C 
ATOM     20  C   LIG    1        8.367  -8.533   0.966  0.00  0.00    -0.027 C 
ATOM     21  C   LIG    1        7.175  -8.287   0.403  0.00  0.00    -0.027 C 
ATOM     22  C   LIG    1        7.813  -7.257   2.994  0.00  0.00    +0.015 C 
ENDBRANCH   8  16
BRANCH   1  23
ATOM     23  S   LIG    1        2.422  -0.217  -0.220  0.00  0.00    +0.057 S 
ATOM     24  O   LIG    1        2.402  -0.043  -1.652  0.00  0.00    -0.153 OA
ATOM     25  O   LIG    1        1.260  -0.062   0.622  0.00  0.00    -0.153 OA
BRANCH  23  26
ATOM     26  N   LIG    1        3.508   0.945   0.335  0.00  0.00    -0.203 NA
ATOM     27  H   LIG    1        3.822   1.517  -0.452  0.00  0.00    +0.144 HD
ATOM     28  H   LIG    1        3.068   1.490   1.079  0.00  0.00    +0.144 HD
ENDBRANCH  23  26
ENDBRANCH   1  23
TORSDOF 3
