REMARK  Name = *****
REMARK                            x       y       z     vdW  Elec       q    Type
REMARK                         _______ _______ _______ _____ _____    ______ ____
ROOT
ATOM      1  C   LIG    1        3.486   3.298  -1.303  0.00  0.00    +0.330 A 
ATOM      2  O   LIG    1        3.553   3.753  -2.614  0.00  0.00    -0.278 OA
ATOM      3  N   LIG    1        2.381   4.453  -2.933  0.00  0.00    +0.233 NA
ATOM      4  N   LIG    1        1.677   4.430  -1.824  0.00  0.00    +0.064 N 
ATOM      5  C   LIG    1        2.264   3.710  -0.812  0.00  0.00    +0.447 A 
ENDROOT
BRANCH   4   6
ATOM      6  N   LIG    1        0.349   5.013  -1.714  0.00  0.00    -0.106 N 
ATOM      7  C   LIG    1        0.202   5.884  -0.531  0.00  0.00    +0.201 C 
ATOM      8  C   LIG    1        0.871   7.244  -0.751  0.00  0.00    +0.184 C 
ATOM      9  O   LIG    1        0.321   7.885  -1.901  0.00  0.00    -0.376 OA
ATOM     10  C   LIG    1        0.501   7.108  -3.087  0.00  0.00    +0.184 C 
ATOM     11  C   LIG    1       -0.122   5.718  -2.922  0.00  0.00    +0.201 C 
ENDBRANCH   4   6
BRANCH   1  13
ATOM     12  C   LIG    1        5.666   2.708  -1.011  0.00  0.00    +0.391 C 
ATOM     13  N   LIG    1        4.428   2.534  -0.704  0.00  0.00    -0.135 NA
BRANCH  12  14
ATOM     14  O   LIG    1        6.593   1.943  -0.416  0.00  0.00    -0.466 OA
ATOM     15  H   LIG    1        7.504   2.144  -0.652  0.00  0.00    +0.297 HD
ENDBRANCH  12  14
BRANCH  12  16
ATOM     16  O   LIG    1        6.117   3.645  -1.878  0.00  0.00    -0.450 OA
BRANCH  16  18
ATOM     17  C   LIG    1        7.610   4.918  -3.249  0.00  0.00    +0.048 C 
ATOM     18  C   LIG    1        7.503   3.787  -2.245  0.00  0.00    +0.230 C 
ENDBRANCH  16  18
ENDBRANCH  12  16
ENDBRANCH   1  13
TORSDOF 5
