REMARK  Name = *****
REMARK                            x       y       z     vdW  Elec       q    Type
REMARK                         _______ _______ _______ _____ _____    ______ ____
ROOT
ATOM      1  C   LIG    1        2.412  -1.544  -2.823  0.00  0.00    +0.063 A 
ATOM      2  C   LIG    1        3.498  -1.351  -3.707  0.00  0.00    +0.151 A 
ATOM      3  C   LIG    1        3.365  -2.295  -4.833  0.00  0.00    +0.032 A 
ATOM      4  C   LIG    1        2.195  -2.978  -4.866  0.00  0.00    +0.027 A 
ATOM      5  C   LIG    1        1.824  -3.901  -5.909  0.00  0.00    +0.061 A 
ATOM      6  C   LIG    1        2.720  -4.016  -7.000  0.00  0.00    +0.118 A 
ATOM      7  C   LIG    1        3.874  -3.402  -7.006  0.00  0.00    +0.046 A 
ATOM      8  C   LIG    1        4.289  -2.646  -5.887  0.00  0.00    +0.016 A 
ATOM      9  S   LIG    1        1.267  -2.653  -3.475  0.00  0.00    -0.084 S 
ENDROOT
BRANCH   1  13
ATOM     10  C   LIG    1        1.560   0.084   1.070  0.00  0.00    +0.120 A 
ATOM     11  C   LIG    1        2.885  -0.121   0.673  0.00  0.00    +0.046 A 
ATOM     12  C   LIG    1        3.171  -0.636  -0.602  0.00  0.00    +0.012 A 
ATOM     13  C   LIG    1        2.143  -0.974  -1.494  0.00  0.00    -0.007 A 
ATOM     14  C   LIG    1        0.821  -0.798  -1.055  0.00  0.00    +0.012 A 
ATOM     15  C   LIG    1        0.539  -0.292   0.207  0.00  0.00    +0.046 A 
BRANCH  10  17
ATOM     16  C   LIG    1        0.095   1.329   2.425  0.00  0.00    +0.277 C 
ATOM     17  O   LIG    1        1.334   0.621   2.309  0.00  0.00    -0.495 OA
ENDBRANCH  10  17
ENDBRANCH   1  13
BRANCH   6  18
ATOM     18  O   LIG    1        2.396  -4.871  -8.044  0.00  0.00    -0.507 OA
ATOM     19  H   LIG    1        1.617  -5.360  -7.839  0.00  0.00    +0.292 HD
ENDBRANCH   6  18
BRANCH   2  20
ATOM     20  O   LIG    1        4.521  -0.494  -3.377  0.00  0.00    -0.454 OA
BRANCH  20  21
ATOM     21  C   LIG    1        4.772   0.759  -3.990  0.00  0.00    +0.129 A 
ATOM     22  C   LIG    1        5.905   1.520  -3.589  0.00  0.00    +0.050 A 
ATOM     23  C   LIG    1        6.517   2.542  -4.418  0.00  0.00    +0.049 A 
ATOM     24  C   LIG    1        6.060   2.773  -5.716  0.00  0.00    +0.121 A 
ATOM     25  C   LIG    1        4.909   2.079  -6.023  0.00  0.00    +0.049 A 
ATOM     26  C   LIG    1        4.238   1.095  -5.221  0.00  0.00    +0.050 A 
BRANCH  24  27
ATOM     27  O   LIG    1        6.952   3.231  -6.704  0.00  0.00    -0.491 OA
BRANCH  27  28
ATOM     28  C   LIG    1        6.757   2.986  -8.149  0.00  0.00    +0.244 C 
BRANCH  28  29
ATOM     29  C   LIG    1        7.661   1.938  -8.953  0.00  0.00    +0.125 C 
BRANCH  29  30
ATOM     30  N   LIG    1        7.775   0.475  -8.756  0.00  0.00    -0.299 NA
ATOM     31  C   LIG    1        8.526   0.092  -7.556  0.00  0.00    +0.084 C 
ATOM     32  C   LIG    1        7.710   0.251  -6.331  0.00  0.00    +0.015 C 
ATOM     33  C   LIG    1        6.368  -0.378  -6.578  0.00  0.00    +0.002 C 
ATOM     34  C   LIG    1        5.569  -0.164  -7.889  0.00  0.00    +0.015 C 
ATOM     35  C   LIG    1        6.562  -0.328  -8.990  0.00  0.00    +0.084 C 
ENDBRANCH  29  30
ENDBRANCH  28  29
ENDBRANCH  27  28
ENDBRANCH  24  27
ENDBRANCH  20  21
ENDBRANCH   2  20
TORSDOF 9
