REMARK  Name = *****
REMARK                            x       y       z     vdW  Elec       q    Type
REMARK                         _______ _______ _______ _____ _____    ______ ____
ROOT
ATOM      1  C   LIG    1        5.600  -3.722  -0.464  0.00  0.00    +0.134 A 
ATOM      2  C   LIG    1        4.199  -3.828  -0.506  0.00  0.00    +0.044 A 
ATOM      3  C   LIG    1        3.709  -5.059  -0.081  0.00  0.00    +0.080 A 
ATOM      4  C   LIG    1        2.348  -5.194   0.094  0.00  0.00    +0.077 A 
ATOM      5  C   LIG    1        1.443  -4.176  -0.244  0.00  0.00    +0.164 A 
ATOM      6  C   LIG    1        1.915  -2.959  -0.758  0.00  0.00    +0.163 A 
ATOM      7  N   LIG    1        4.488  -6.106   0.202  0.00  0.00    -0.235 NA
ATOM      8  C   LIG    1        5.806  -5.919   0.088  0.00  0.00    +0.224 A 
ATOM      9  C   LIG    1        3.292  -2.794  -0.882  0.00  0.00    +0.062 A 
ATOM     10  N   LIG    1        6.412  -4.766  -0.211  0.00  0.00    -0.220 NA
ENDROOT
BRANCH   1  11
ATOM     11  N   LIG    1        6.240  -2.465  -0.600  0.00  0.00    -0.299 N 
ATOM     12  H   LIG    1        7.232  -2.673  -0.473  0.00  0.00    +0.154 HD
BRANCH  11  15
ATOM     13  C   LIG    1        5.902   1.081   0.466  0.00  0.00    +0.026 A 
ATOM     14  C   LIG    1        6.164  -0.054  -0.310  0.00  0.00    +0.040 A 
ATOM     15  C   LIG    1        5.908  -1.333   0.195  0.00  0.00    +0.034 A 
ATOM     16  C   LIG    1        5.414  -1.456   1.504  0.00  0.00    +0.023 A 
ATOM     17  C   LIG    1        5.134  -0.326   2.272  0.00  0.00    +0.003 A 
ATOM     18  C   LIG    1        5.381   0.944   1.754  0.00  0.00    +0.017 A 
BRANCH  13  20
ATOM     19  C   LIG    1        6.480   3.466  -0.487  0.00  0.00    +0.009 C 
ATOM     20  C   LIG    1        6.196   2.377  -0.052  0.00  0.00    -0.070 C 
ENDBRANCH  13  20
ENDBRANCH  11  15
ENDBRANCH   1  11
BRANCH   6  21
ATOM     21  O   LIG    1        1.001  -1.978  -1.052  0.00  0.00    -0.486 OA
BRANCH  21  22
ATOM     22  C   LIG    1        1.339  -1.048  -2.094  0.00  0.00    +0.257 C 
BRANCH  22  23
ATOM     23  C   LIG    1        0.189  -0.045  -2.254  0.00  0.00    +0.200 C 
BRANCH  23  24
ATOM     24  O   LIG    1        0.427   0.833  -3.359  0.00  0.00    -0.380 OA
ATOM     25  C   LIG    1       -0.631   1.776  -3.513  0.00  0.00    +0.194 C 
ENDBRANCH  23  24
ENDBRANCH  22  23
ENDBRANCH  21  22
ENDBRANCH   6  21
BRANCH   5  26
ATOM     26  O   LIG    1        0.089  -4.328  -0.079  0.00  0.00    -0.486 OA
BRANCH  26  27
ATOM     27  C   LIG    1       -0.401  -5.670  -0.193  0.00  0.00    +0.257 C 
BRANCH  27  28
ATOM     28  C   LIG    1       -1.633  -5.657  -1.079  0.00  0.00    +0.200 C 
BRANCH  28  29
ATOM     29  O   LIG    1       -2.143  -6.983  -1.215  0.00  0.00    -0.380 OA
ATOM     30  C   LIG    1       -3.273  -7.001  -2.078  0.00  0.00    +0.194 C 
ENDBRANCH  28  29
ENDBRANCH  27  28
ENDBRANCH  26  27
ENDBRANCH   5  26
TORSDOF 11
