REMARK  Name = *****
REMARK                            x       y       z     vdW  Elec       q    Type
REMARK                         _______ _______ _______ _____ _____    ______ ____
ROOT
ATOM      1  N   LIG    1        3.657   1.559   1.605  0.00  0.00    -0.291 NA
ENDROOT
BRANCH   1   3
ATOM      2  C   LIG    1        4.392  -0.735   2.056  0.00  0.00    +0.028 C 
ATOM      3  C   LIG    1        3.510   0.114   1.119  0.00  0.00    +0.091 C 
BRANCH   3   4
ATOM      4  C   LIG    1        1.983  -0.444   1.012  0.00  0.00    +0.247 C 
BRANCH   4   5
ATOM      5  O   LIG    1        1.712  -1.715   0.339  0.00  0.00    -0.490 OA
BRANCH   5   6
ATOM      6  C   LIG    1        1.886  -2.864   1.060  0.00  0.00    +0.121 A 
ATOM      7  C   LIG    1        2.648  -2.842   2.186  0.00  0.00    +0.045 A 
ATOM      8  C   LIG    1        3.276  -3.902   2.740  0.00  0.00    +0.004 A 
ATOM      9  C   LIG    1        2.725  -5.137   2.467  0.00  0.00    +0.000 A 
ATOM     10  C   LIG    1        1.694  -5.184   1.499  0.00  0.00    +0.004 A 
ATOM     11  C   LIG    1        1.352  -4.069   0.735  0.00  0.00    +0.045 A 
ENDBRANCH   5   6
ENDBRANCH   4   5
ENDBRANCH   3   4
ENDBRANCH   1   3
BRANCH   1  12
ATOM     12  C   LIG    1        5.144   1.863   1.607  0.00  0.00    +0.120 C 
BRANCH  12  13
ATOM     13  C   LIG    1        5.638   3.132   2.258  0.00  0.00    -0.033 A 
ATOM     14  C   LIG    1        5.379   4.370   1.676  0.00  0.00    +0.005 A 
ATOM     15  C   LIG    1        5.732   5.535   2.328  0.00  0.00    +0.000 A 
ATOM     16  C   LIG    1        6.477   5.482   3.503  0.00  0.00    +0.000 A 
ATOM     17  C   LIG    1        6.877   4.253   4.023  0.00  0.00    +0.000 A 
ATOM     18  C   LIG    1        6.447   3.081   3.412  0.00  0.00    +0.005 A 
ENDBRANCH  12  13
ENDBRANCH   1  12
BRANCH   1  19
ATOM     19  C   LIG    1        2.954   2.538   0.739  0.00  0.00    +0.101 C 
BRANCH  19  20
ATOM     20  C   LIG    1        1.422   2.670   0.602  0.00  0.00    +0.124 C 
ATOM     21 CL   LIG    1        0.607   2.813   2.173  0.00  0.00    -0.124 Cl
ENDBRANCH  19  20
ENDBRANCH   1  19
TORSDOF 8
