REMARK  Name = *****
REMARK                            x       y       z     vdW  Elec       q    Type
REMARK                         _______ _______ _______ _____ _____    ______ ____
ROOT
ATOM      1  O   LIG    1        3.170   3.552  -0.006  0.00  0.00    -0.340 OA
ENDROOT
BRANCH   1   6
ATOM      2  C   LIG    1       -0.001   2.608  -1.407  0.00  0.00    +0.178 C 
ATOM      3  C   LIG    1       -0.928   2.999  -0.251  0.00  0.00    +0.177 C 
ATOM      4  C   LIG    1       -0.324   2.444   1.039  0.00  0.00    +0.179 C 
ATOM      5  C   LIG    1        1.118   2.921   1.248  0.00  0.00    +0.201 C 
ATOM      6  C   LIG    1        1.958   2.788  -0.046  0.00  0.00    +0.282 C 
ATOM      7  O   LIG    1        1.251   3.275  -1.199  0.00  0.00    -0.341 OA
BRANCH   3   8
ATOM      8  O   LIG    1       -1.015   4.432  -0.109  0.00  0.00    -0.387 OA
ATOM      9  H   LIG    1       -0.226   4.815  -0.540  0.00  0.00    +0.210 HD
ENDBRANCH   3   8
BRANCH   4  10
ATOM     10  O   LIG    1       -1.094   2.855   2.179  0.00  0.00    -0.386 OA
ATOM     11  H   LIG    1       -1.440   3.746   1.956  0.00  0.00    +0.210 HD
ENDBRANCH   4  10
BRANCH   5  12
ATOM     12  O   LIG    1        1.686   2.146   2.326  0.00  0.00    -0.384 OA
ATOM     13  H   LIG    1        0.980   2.105   3.007  0.00  0.00    +0.210 HD
ENDBRANCH   5  12
BRANCH   2  14
ATOM     14  C   LIG    1       -0.562   3.014  -2.771  0.00  0.00    +0.190 C 
BRANCH  14  15
ATOM     15  O   LIG    1       -1.793   2.345  -3.016  0.00  0.00    -0.392 OA
ATOM     16  H   LIG    1       -2.123   2.659  -3.871  0.00  0.00    +0.209 HD
ENDBRANCH  14  15
ENDBRANCH   2  14
ENDBRANCH   1   6
BRANCH   1  17
ATOM     17  C   LIG    1        4.105   3.292   1.059  0.00  0.00    +0.183 C 
ATOM     18  C   LIG    1        4.601   1.832   1.053  0.00  0.00    +0.179 C 
ATOM     19  C   LIG    1        5.428   1.549  -0.209  0.00  0.00    +0.201 C 
ATOM     20  C   LIG    1        6.576   2.571  -0.331  0.00  0.00    +0.279 C 
ATOM     21  O   LIG    1        6.100   3.914  -0.289  0.00  0.00    -0.341 OA
ATOM     22  C   LIG    1        5.286   4.273   0.844  0.00  0.00    +0.178 C 
BRANCH  18  23
ATOM     23  O   LIG    1        5.381   1.552   2.222  0.00  0.00    -0.386 OA
ATOM     24  H   LIG    1        4.752   1.498   2.968  0.00  0.00    +0.210 HD
ENDBRANCH  18  23
BRANCH  19  25
ATOM     25  O   LIG    1        4.588   1.583  -1.371  0.00  0.00    -0.384 OA
ATOM     26  H   LIG    1        4.319   2.519  -1.498  0.00  0.00    +0.210 HD
ENDBRANCH  19  25
BRANCH  20  27
ATOM     27  O   LIG    1        7.604   2.370   0.624  0.00  0.00    -0.365 OA
ATOM     28  H   LIG    1        7.207   1.892   1.380  0.00  0.00    +0.213 HD
ENDBRANCH  20  27
BRANCH  22  29
ATOM     29  C   LIG    1        6.135   4.519   2.104  0.00  0.00    +0.190 C 
BRANCH  29  30
ATOM     30  O   LIG    1        7.196   5.428   1.812  0.00  0.00    -0.392 OA
ATOM     31  H   LIG    1        7.677   5.028   1.059  0.00  0.00    +0.209 HD
ENDBRANCH  29  30
ENDBRANCH  22  29
ENDBRANCH   1  17
TORSDOF 12
