REMARK  Name = *****
REMARK                            x       y       z     vdW  Elec       q    Type
REMARK                         _______ _______ _______ _____ _____    ______ ____
ROOT
ATOM      1  C   LIG    1        9.995  -3.730   0.959  0.00  0.00    +0.165 C 
ENDROOT
BRANCH   1   3
ATOM      2  C   LIG    1        7.600  -3.838   0.201  0.00  0.00    +0.219 C 
ATOM      3  N   LIG    1        8.548  -3.387   1.097  0.00  0.00    -0.303 N 
ATOM      4  H   LIG    1        8.242  -2.993   1.980  0.00  0.00    +0.149 HD
ATOM      5  O   LIG    1        7.922  -4.411  -0.838  0.00  0.00    -0.275 OA
BRANCH   2   6
ATOM      6  C   LIG    1        6.117  -3.536   0.537  0.00  0.00    +0.100 C 
BRANCH   6   7
ATOM      7  C   LIG    1        5.272  -4.791   0.114  0.00  0.00    +0.049 C 
BRANCH   7   8
ATOM      8  C   LIG    1        3.792  -4.932   0.477  0.00  0.00    -0.047 A 
ATOM      9  C   LIG    1        2.862  -3.886   0.429  0.00  0.00    +0.003 A 
ATOM     10  C   LIG    1        1.485  -4.097   0.507  0.00  0.00    +0.000 A 
ATOM     11  C   LIG    1        0.990  -5.377   0.671  0.00  0.00    +0.000 A 
ATOM     12  C   LIG    1        1.883  -6.435   0.799  0.00  0.00    +0.000 A 
ATOM     13  C   LIG    1        3.267  -6.218   0.699  0.00  0.00    +0.003 A 
ENDBRANCH   7   8
ENDBRANCH   6   7
BRANCH   6  14
ATOM     14  C   LIG    1        5.632  -2.264  -0.184  0.00  0.00    +0.179 C 
BRANCH  14  15
ATOM     15  S   LIG    1        6.442  -0.739   0.201  0.00  0.00    -0.025 S 
ATOM     16  O   LIG    1        6.326  -0.536   1.653  0.00  0.00    -0.174 OA
ATOM     17  O   LIG    1        7.710  -0.827  -0.435  0.00  0.00    -0.174 OA
BRANCH  15  19
ATOM     18  C   LIG    1        4.090   0.728  -0.102  0.00  0.00    +0.035 C 
ATOM     19  C   LIG    1        5.514   0.605  -0.661  0.00  0.00    +0.080 C 
ATOM     20  C   LIG    1        6.213   1.961  -0.432  0.00  0.00    +0.035 C 
ATOM     21  C   LIG    1        5.545   0.327  -2.175  0.00  0.00    +0.035 C 
ENDBRANCH  15  19
ENDBRANCH  14  15
ENDBRANCH   6  14
ENDBRANCH   2   6
ENDBRANCH   1   3
BRANCH   1  22
ATOM     22  C   LIG    1       10.344  -5.126   1.641  0.00  0.00    +0.234 C 
ATOM     23  N   LIG    1       11.675  -5.532   1.569  0.00  0.00    -0.308 N 
ATOM     24  H   LIG    1       12.314  -5.037   0.957  0.00  0.00    +0.149 HD
ATOM     25  O   LIG    1        9.500  -5.797   2.236  0.00  0.00    -0.274 OA
BRANCH  23  26
ATOM     26  C   LIG    1       12.214  -6.801   2.145  0.00  0.00    +0.104 C 
BRANCH  26  27
ATOM     27  C   LIG    1       13.626  -6.586   2.790  0.00  0.00    +0.163 C 
BRANCH  27  28
ATOM     28  O   LIG    1       14.547  -6.012   1.838  0.00  0.00    -0.387 OA
ATOM     29  H   LIG    1       15.375  -5.878   2.345  0.00  0.00    +0.210 HD
ENDBRANCH  27  28
BRANCH  27  30
ATOM     30  C   LIG    1       13.655  -5.740   4.098  0.00  0.00    +0.148 C 
BRANCH  30  31
ATOM     31  C   LIG    1       13.186  -4.322   3.937  0.00  0.00    +0.020 C 
ATOM     32  C   LIG    1       11.893  -3.813   4.523  0.00  0.00    +0.006 C 
ATOM     33  C   LIG    1       13.185  -3.417   5.152  0.00  0.00    +0.006 C 
ENDBRANCH  30  31
BRANCH  30  34
ATOM     34  O   LIG    1       15.030  -5.696   4.536  0.00  0.00    -0.389 OA
ATOM     35  H   LIG    1       15.306  -4.761   4.569  0.00  0.00    +0.210 HD
ENDBRANCH  30  34
ENDBRANCH  27  30
ENDBRANCH  26  27
BRANCH  26  36
ATOM     36  C   LIG    1       12.191  -7.896   1.023  0.00  0.00    +0.028 C 
BRANCH  36  37
ATOM     37  C   LIG    1       12.761  -9.308   1.350  0.00  0.00    -0.009 C 
ATOM     38  C   LIG    1       12.179  -9.960   2.613  0.00  0.00    +0.003 C 
ATOM     39  C   LIG    1       10.759 -10.482   2.417  0.00  0.00    +0.000 C 
ATOM     40  C   LIG    1       10.723 -11.529   1.311  0.00  0.00    +0.000 C 
ATOM     41  C   LIG    1       11.268 -10.971   0.001  0.00  0.00    +0.000 C 
ATOM     42  C   LIG    1       12.637 -10.299   0.161  0.00  0.00    +0.003 C 
ENDBRANCH  36  37
ENDBRANCH  26  36
ENDBRANCH  23  26
ENDBRANCH   1  22
BRANCH   1  43
ATOM     43  C   LIG    1       10.876  -2.650   1.610  0.00  0.00    +0.086 C 
BRANCH  43  44
ATOM     44  C   LIG    1       10.883  -1.244   1.132  0.00  0.00    +0.037 A 
ATOM     45  N   LIG    1       10.131  -0.764   0.108  0.00  0.00    -0.348 N 
ATOM     46  H   LIG    1        9.391  -1.257  -0.384  0.00  0.00    +0.167 HD
ATOM     47  C   LIG    1       10.345   0.582   0.014  0.00  0.00    +0.196 A 
ATOM     48  N   LIG    1       11.224   0.992   0.896  0.00  0.00    -0.244 NA
ATOM     49  C   LIG    1       11.559  -0.132   1.603  0.00  0.00    +0.133 A 
ENDBRANCH  43  44
ENDBRANCH   1  43
TORSDOF 18
