REMARK  Name = *****
REMARK                            x       y       z     vdW  Elec       q    Type
REMARK                         _______ _______ _______ _____ _____    ______ ____
ROOT
ATOM      1  C   LIG    1        3.321  -0.822   1.229  0.00  0.00    +0.028 C 
ATOM      2  N   LIG    1        4.383   0.082   1.391  0.00  0.00    -0.341 NA
ATOM      3  C   LIG    1        3.891   1.333   1.778  0.00  0.00    +0.052 C 
ATOM      4  C   LIG    1        2.534   1.194   2.007  0.00  0.00    +0.002 C 
ATOM      5  C   LIG    1        1.782   2.292   2.483  0.00  0.00    +0.036 C 
ATOM      6  C   LIG    1        2.378   3.541   2.669  0.00  0.00    +0.070 C 
ATOM      7  C   LIG    1        3.743   3.665   2.397  0.00  0.00    +0.146 C 
ATOM      8  F   LIG    1        4.336   4.862   2.545  0.00  0.00    -0.203 F 
ATOM      9  C   LIG    1        4.528   2.582   1.968  0.00  0.00    +0.066 C 
ATOM     10  C   LIG    1        2.190  -0.129   1.654  0.00  0.00    +0.032 C 
ENDROOT
BRANCH   6  11
ATOM     11  N   LIG    1        1.656   4.692   3.097  0.00  0.00    -0.282 N 
ATOM     12  H   LIG    1        2.194   5.548   3.169  0.00  0.00    +0.155 HD
ATOM     13  C   LIG    1        0.309   4.746   3.419  0.00  0.00    +0.228 C 
ATOM     14  O   LIG    1       -0.489   3.815   3.408  0.00  0.00    -0.275 OA
BRANCH  13  15
ATOM     15  C   LIG    1       -0.209   6.115   3.835  0.00  0.00    +0.072 C 
ATOM     16  C   LIG    1       -0.030   7.286   2.870  0.00  0.00    +0.022 C 
ATOM     17  C   LIG    1       -1.369   6.630   2.965  0.00  0.00    +0.022 C 
BRANCH  15  18
ATOM     18  C   LIG    1       -0.209   6.433   5.353  0.00  0.00    -0.029 C 
ATOM     19  C   LIG    1       -1.198   7.234   5.967  0.00  0.00    +0.054 C 
ATOM     20  C   LIG    1       -1.110   7.528   7.314  0.00  0.00    +0.173 C 
ATOM     21  O   LIG    1       -1.977   8.314   8.008  0.00  0.00    -0.395 OA
ATOM     22  C   LIG    1       -1.338   8.307   9.293  0.00  0.00    +0.589 C 
ATOM     23  O   LIG    1       -0.181   7.465   9.386  0.00  0.00    -0.396 OA
ATOM     24  F   LIG    1       -2.241   7.912  10.223  0.00  0.00    -0.125 F 
ATOM     25  F   LIG    1       -0.971   9.578   9.594  0.00  0.00    -0.125 F 
ATOM     26  C   LIG    1       -0.093   7.045   8.097  0.00  0.00    +0.173 C 
ATOM     27  C   LIG    1        0.883   6.234   7.572  0.00  0.00    +0.050 C 
ATOM     28  C   LIG    1        0.821   5.938   6.202  0.00  0.00    +0.008 C 
ENDBRANCH  15  18
ENDBRANCH  13  15
ENDBRANCH   6  11
BRANCH   1  30
ATOM     29  C   LIG    1        2.160  -3.088   1.290  0.00  0.00    +0.019 C 
ATOM     30  C   LIG    1        3.334  -2.273   0.672  0.00  0.00    +0.028 C 
ATOM     31  C   LIG    1        4.607  -3.063   1.008  0.00  0.00    +0.019 C 
BRANCH  30  32
ATOM     32  C   LIG    1        3.145  -2.265  -0.872  0.00  0.00    +0.168 C 
BRANCH  32  33
ATOM     33  O   LIG    1        3.169  -3.596  -1.399  0.00  0.00    -0.394 OA
ATOM     34  H   LIG    1        3.153  -3.528  -2.368  0.00  0.00    +0.209 HD
ENDBRANCH  32  33
ENDBRANCH  30  32
ENDBRANCH   1  30
BRANCH   2  35
ATOM     35  C   LIG    1        5.819  -0.168   1.328  0.00  0.00    +0.155 C 
BRANCH  35  36
ATOM     36  C   LIG    1        6.434   0.032  -0.059  0.00  0.00    +0.159 C 
BRANCH  36  37
ATOM     37  O   LIG    1        6.306   1.397  -0.484  0.00  0.00    -0.388 OA
ATOM     38  H   LIG    1        6.849   1.454  -1.297  0.00  0.00    +0.210 HD
ENDBRANCH  36  37
BRANCH  36  39
ATOM     39  C   LIG    1        7.935  -0.281  -0.057  0.00  0.00    +0.188 C 
BRANCH  39  40
ATOM     40  O   LIG    1        8.446   0.021  -1.360  0.00  0.00    -0.392 OA
ATOM     41  H   LIG    1        9.412   0.112  -1.277  0.00  0.00    +0.209 HD
ENDBRANCH  39  40
ENDBRANCH  36  39
ENDBRANCH  35  36
ENDBRANCH   2  35
TORSDOF 11
