REMARK  Name = *****
REMARK                            x       y       z     vdW  Elec       q    Type
REMARK                         _______ _______ _______ _____ _____    ______ ____
ROOT
ATOM      1  O   LIG    1        5.910   4.519   1.895  0.00  0.00    -0.489 OA
ENDROOT
BRANCH   1   2
ATOM      2  C   LIG    1        5.926   5.416   0.862  0.00  0.00    +0.126 A 
ATOM      3  C   LIG    1        5.512   6.721   1.182  0.00  0.00    +0.016 A 
ATOM      4  C   LIG    1        5.120   7.108   2.584  0.00  0.00    +0.050 C 
ATOM      5  C   LIG    1        5.336   8.592   2.834  0.00  0.00    +0.101 C 
ATOM      6  C   LIG    1        4.756   9.447   1.731  0.00  0.00    +0.217 C 
ATOM      7  N   LIG    1        4.869   8.944   0.460  0.00  0.00    -0.285 N 
ATOM      8  H   LIG    1        4.609   9.580  -0.283  0.00  0.00    +0.155 HD
ATOM      9  O   LIG    1        4.321  10.569   1.928  0.00  0.00    -0.276 OA
ATOM     10  C   LIG    1        5.358   7.669   0.161  0.00  0.00    +0.040 A 
ATOM     11  C   LIG    1        5.676   7.354  -1.157  0.00  0.00    +0.024 A 
ATOM     12  C   LIG    1        6.206   6.099  -1.449  0.00  0.00    +0.005 A 
ATOM     13  C   LIG    1        6.333   5.132  -0.443  0.00  0.00    +0.046 A 
ENDBRANCH   1   2
BRANCH   1  14
ATOM     14  C   LIG    1        5.644   3.133   1.630  0.00  0.00    +0.261 C 
BRANCH  14  15
ATOM     15  C   LIG    1        4.138   2.769   1.728  0.00  0.00    +0.166 C 
BRANCH  15  16
ATOM     16  O   LIG    1        3.663   3.034   3.058  0.00  0.00    -0.387 OA
ATOM     17  H   LIG    1        3.818   3.979   3.228  0.00  0.00    +0.210 HD
ENDBRANCH  15  16
BRANCH  15  18
ATOM     18  C   LIG    1        3.249   3.508   0.693  0.00  0.00    +0.116 C 
BRANCH  18  19
ATOM     19  N   LIG    1        1.817   3.142   0.770  0.00  0.00    -0.309 NA
ATOM     20  H   LIG    1        1.503   3.313   1.730  0.00  0.00    +0.122 HD
BRANCH  19  22
ATOM     21  C   LIG    1       -0.531   3.359   0.057  0.00  0.00    +0.027 C 
ATOM     22  C   LIG    1        0.920   3.838  -0.185  0.00  0.00    +0.011 C 
ATOM     23  C   LIG    1        0.942   5.368  -0.005  0.00  0.00    +0.027 C 
ATOM     24  C   LIG    1        1.274   3.488  -1.642  0.00  0.00    +0.027 C 
ENDBRANCH  19  22
ENDBRANCH  18  19
ENDBRANCH  15  18
ENDBRANCH  14  15
ENDBRANCH   1  14
TORSDOF 7
