REMARK  Name = *****
REMARK                            x       y       z     vdW  Elec       q    Type
REMARK                         _______ _______ _______ _____ _____    ______ ____
ROOT
ATOM      1  C   LIG    1        1.298  -0.700   1.426  0.00  0.00    +0.117 A 
ATOM      2  C   LIG    1        2.051   0.464   1.292  0.00  0.00    +0.050 A 
ATOM      3  C   LIG    1        3.424   0.404   0.987  0.00  0.00    -0.032 A 
ATOM      4  C   LIG    1        4.253   1.690   0.769  0.00  0.00    +0.028 C 
ATOM      5  C   LIG    1        3.953   2.151  -0.681  0.00  0.00    +0.030 C 
ATOM      6  C   LIG    1        4.475   1.139  -1.717  0.00  0.00    +0.086 C 
ATOM      7  N   LIG    1        5.872   0.693  -1.494  0.00  0.00    -0.296 NA
ATOM      8  C   LIG    1        6.139   0.268  -0.078  0.00  0.00    +0.093 C 
ATOM      9  C   LIG    1        5.457  -1.022   0.417  0.00  0.00    +0.057 C 
ATOM     10  C   LIG    1        5.793   1.448   0.868  0.00  0.00    +0.091 C 
ATOM     11  C   LIG    1        6.320   1.292   2.315  0.00  0.00    +0.037 C 
ATOM     12  C   LIG    1        5.240   1.299   3.391  0.00  0.00    +0.003 C 
ATOM     13  C   LIG    1        4.234   2.438   3.232  0.00  0.00    +0.001 C 
ATOM     14  C   LIG    1        3.905   2.808   1.780  0.00  0.00    +0.014 C 
ATOM     15  C   LIG    1        4.005  -0.865   0.787  0.00  0.00    -0.042 A 
ATOM     16  C   LIG    1        3.232  -2.029   0.946  0.00  0.00    +0.007 A 
ATOM     17  C   LIG    1        1.878  -1.947   1.262  0.00  0.00    +0.045 A 
ENDROOT
BRANCH   1  18
ATOM     18  O   LIG    1       -0.029  -0.567   1.710  0.00  0.00    -0.507 OA
ATOM     19  H   LIG    1       -0.425  -1.452   1.754  0.00  0.00    +0.292 HD
ENDBRANCH   1  18
BRANCH  10  20
ATOM     20  O   LIG    1        6.511   2.605   0.351  0.00  0.00    -0.386 OA
ATOM     21  H   LIG    1        6.587   2.446  -0.613  0.00  0.00    +0.210 HD
ENDBRANCH  10  20
BRANCH   7  22
ATOM     22  C   LIG    1        6.215  -0.326  -2.510  0.00  0.00    +0.088 C 
BRANCH  22  23
ATOM     23  C   LIG    1        7.705  -0.661  -2.576  0.00  0.00    +0.003 C 
ATOM     24  C   LIG    1        8.335  -1.675  -1.574  0.00  0.00    +0.005 C 
ATOM     25  C   LIG    1        9.166  -2.219  -2.751  0.00  0.00    +0.001 C 
ATOM     26  C   LIG    1        8.050  -1.705  -3.679  0.00  0.00    +0.005 C 
ENDBRANCH  22  23
ENDBRANCH   7  22
TORSDOF 4
