REMARK  Name = *****
REMARK                            x       y       z     vdW  Elec       q    Type
REMARK                         _______ _______ _______ _____ _____    ______ ____
ROOT
ATOM      1  C   LIG    1        7.775  -4.050  -1.231  0.00  0.00    +0.166 C 
ENDROOT
BRANCH   1   2
ATOM      2  O   LIG    1        8.895  -4.760  -0.770  0.00  0.00    -0.387 OA
ATOM      3  H   LIG    1        8.439  -5.263  -0.081  0.00  0.00    +0.210 HD
ENDBRANCH   1   2
BRANCH   1   4
ATOM      4  C   LIG    1        7.224  -4.888  -2.401  0.00  0.00    +0.115 C 
BRANCH   4   5
ATOM      5  N   LIG    1        6.387  -4.042  -3.228  0.00  0.00    -0.310 NA
ATOM      6  H   LIG    1        5.731  -3.546  -2.623  0.00  0.00    +0.122 HD
BRANCH   5   7
ATOM      7  C   LIG    1        5.619  -4.742  -4.251  0.00  0.00    +0.122 C 
BRANCH   7   8
ATOM      8  C   LIG    1        6.174  -5.107  -5.652  0.00  0.00    +0.244 C 
BRANCH   8   9
ATOM      9  O   LIG    1        5.293  -5.673  -6.687  0.00  0.00    -0.487 OA
BRANCH   9  11
ATOM     10  C   LIG    1        3.211  -5.456  -7.961  0.00  0.00    +0.162 A 
ATOM     11  C   LIG    1        3.945  -5.434  -6.771  0.00  0.00    +0.162 A 
ATOM     12  C   LIG    1        3.170  -5.293  -5.610  0.00  0.00    +0.049 A 
ATOM     13  C   LIG    1        1.792  -5.113  -5.582  0.00  0.00    +0.004 A 
ATOM     14  C   LIG    1        1.125  -5.037  -6.764  0.00  0.00    +0.004 A 
ATOM     15  C   LIG    1        1.837  -5.140  -7.964  0.00  0.00    +0.049 A 
BRANCH  10  17
ATOM     16  C   LIG    1        4.628  -6.808  -9.343  0.00  0.00    +0.277 C 
ATOM     17  O   LIG    1        3.670  -5.760  -9.233  0.00  0.00    -0.491 OA
ENDBRANCH  10  17
ENDBRANCH   9  11
ENDBRANCH   8   9
ENDBRANCH   7   8
ENDBRANCH   5   7
ENDBRANCH   4   5
ENDBRANCH   1   4
BRANCH   1  18
ATOM     18  C   LIG    1        6.853  -3.847   0.005  0.00  0.00    +0.261 C 
BRANCH  18  19
ATOM     19  O   LIG    1        7.667  -3.285   1.066  0.00  0.00    -0.489 OA
BRANCH  19  20
ATOM     20  C   LIG    1        7.857  -4.023   2.250  0.00  0.00    +0.130 C 
ATOM     21  C   LIG    1        8.012  -5.453   2.434  0.00  0.00    +0.049 C 
ATOM     22  C   LIG    1        7.813  -5.882   3.740  0.00  0.00    +0.051 C 
ATOM     23  N   LIG    1        7.629  -7.256   3.721  0.00  0.00    -0.354 NA
ATOM     24  H   LIG    1        7.356  -7.786   4.490  0.00  0.00    +0.166 HD
ATOM     25  C   LIG    1        7.697  -7.711   2.417  0.00  0.00    +0.048 C 
ATOM     26  C   LIG    1        7.305  -8.970   1.891  0.00  0.00    +0.026 C 
ATOM     27  C   LIG    1        7.430  -9.154   0.529  0.00  0.00    +0.002 C 
ATOM     28  C   LIG    1        8.143  -8.262  -0.219  0.00  0.00    +0.001 C 
ATOM     29  C   LIG    1        8.740  -7.166   0.405  0.00  0.00    +0.010 C 
ATOM     30  C   LIG    1        7.717  -5.061   4.880  0.00  0.00    +0.026 C 
ATOM     31  C   LIG    1        7.766  -3.686   4.690  0.00  0.00    +0.006 C 
ATOM     32  C   LIG    1        8.239  -6.690   1.647  0.00  0.00    +0.011 C 
ATOM     33  C   LIG    1        7.797  -3.177   3.398  0.00  0.00    +0.046 C 
ENDBRANCH  19  20
ENDBRANCH  18  19
ENDBRANCH   1  18
TORSDOF 11
