REMARK  Name = *****
REMARK                            x       y       z     vdW  Elec       q    Type
REMARK                         _______ _______ _______ _____ _____    ______ ____
ROOT
ATOM      1  O   LIG    1        0.951   0.233   0.608  0.00  0.00    -0.273 OA
ATOM      2  C   LIG    1        2.168   0.145   0.453  0.00  0.00    +0.239 C 
ATOM      3  N   LIG    1        2.960   1.233   0.718  0.00  0.00    -0.283 N 
ATOM      4  H   LIG    1        2.417   2.066   0.912  0.00  0.00    +0.155 HD
ATOM      5  C   LIG    1        4.344   1.341   0.520  0.00  0.00    +0.043 A 
ATOM      6  C   LIG    1        5.247   0.262   0.571  0.00  0.00    +0.028 A 
ATOM      7  C   LIG    1        6.594   0.460   0.223  0.00  0.00    +0.096 A 
ATOM      8  C   LIG    1        7.052   1.752  -0.071  0.00  0.00    +0.274 A 
ATOM      9  C   LIG    1        6.176   2.842  -0.041  0.00  0.00    +0.086 A 
ATOM     10  C   LIG    1        4.842  -1.067   1.128  0.00  0.00    +0.077 C 
ATOM     11  N   LIG    1        3.752  -1.679   0.806  0.00  0.00    -0.273 NA
ATOM     12  C   LIG    1        4.827   2.631   0.253  0.00  0.00    +0.030 A 
ATOM     13  C   LIG    1        2.831  -1.079  -0.149  0.00  0.00    +0.238 C 
ENDROOT
BRANCH  10  14
ATOM     14  C   LIG    1        5.738  -1.786   2.108  0.00  0.00    +0.019 A 
ATOM     15  C   LIG    1        6.500  -1.176   3.118  0.00  0.00    +0.050 A 
ATOM     16 CL   LIG    1        6.437   0.511   3.494  0.00  0.00    -0.083 Cl
ATOM     17  C   LIG    1        7.323  -1.958   3.943  0.00  0.00    +0.021 A 
ATOM     18  C   LIG    1        7.354  -3.345   3.810  0.00  0.00    +0.002 A 
ATOM     19  C   LIG    1        6.560  -3.964   2.852  0.00  0.00    +0.001 A 
ATOM     20  C   LIG    1        5.764  -3.191   2.005  0.00  0.00    +0.011 A 
ENDBRANCH  10  14
BRANCH   8  21
ATOM     21  N   LIG    1        8.473   1.972  -0.367  0.00  0.00    +0.080 N 
ATOM     22  O   LIG    1        8.835   3.129  -0.622  0.00  0.00    -0.576 OA
ATOM     23  O   LIG    1        9.223   0.987  -0.343  0.00  0.00    +0.041 OA
ENDBRANCH   8  21
TORSDOF 2
