REMARK  Name = *****
REMARK                            x       y       z     vdW  Elec       q    Type
REMARK                         _______ _______ _______ _____ _____    ______ ____
ROOT
ATOM      1  O   LIG    1        2.946  -0.688   0.499  0.00  0.00    -0.254 OA
ATOM      2  P   LIG    1        3.758   0.522   0.814  0.00  0.00    +0.346 P 
ATOM      3  N   LIG    1        3.227   1.418   2.087  0.00  0.00    -0.218 NA
ATOM      4  C   LIG    1        3.621   0.997   3.430  0.00  0.00    +0.097 C 
ATOM      5  C   LIG    1        5.096   0.601   3.520  0.00  0.00    +0.044 C 
ATOM      6  C   LIG    1        5.434  -0.459   2.484  0.00  0.00    +0.171 C 
ATOM      7  O   LIG    1        5.270   0.108   1.198  0.00  0.00    -0.305 OA
ENDROOT
BRANCH   2   8
ATOM      8  N   LIG    1        3.934   1.582  -0.418  0.00  0.00    -0.231 NA
ATOM      9  H   LIG    1        4.247   1.100  -1.257  0.00  0.00    +0.133 HD
BRANCH   8  10
ATOM     10  C   LIG    1        4.773   2.761  -0.215  0.00  0.00    +0.107 C 
BRANCH  10  11
ATOM     11  C   LIG    1        4.850   3.641  -1.461  0.00  0.00    +0.124 C 
ATOM     12 CL   LIG    1        5.585   2.763  -2.827  0.00  0.00    -0.124 Cl
ENDBRANCH  10  11
ENDBRANCH   8  10
ENDBRANCH   2   8
BRANCH   3  13
ATOM     13  C   LIG    1        1.813   1.841   2.051  0.00  0.00    +0.110 C 
BRANCH  13  14
ATOM     14  C   LIG    1        0.786   0.733   2.328  0.00  0.00    +0.124 C 
ATOM     15 CL   LIG    1       -0.871   1.388   2.274  0.00  0.00    -0.124 Cl
ENDBRANCH  13  14
ENDBRANCH   3  13
TORSDOF 5
