REMARK  Name = *****
REMARK                            x       y       z     vdW  Elec       q    Type
REMARK                         _______ _______ _______ _____ _____    ______ ____
ROOT
ATOM      1  N   LIG    1        3.029  -0.568   1.560  0.00  0.00    -0.311 N 
ATOM      2  H   LIG    1        2.531  -1.077   2.278  0.00  0.00    +0.149 HD
ATOM      3  C   LIG    1        4.397  -0.713   1.497  0.00  0.00    +0.230 C 
ATOM      4  O   LIG    1        5.079  -0.301   0.555  0.00  0.00    -0.274 OA
ENDROOT
BRANCH   1   6
ATOM      5  C   LIG    1        1.776  -0.991  -0.501  0.00  0.00    +0.028 C 
ATOM      6  C   LIG    1        2.229   0.068   0.508  0.00  0.00    +0.074 C 
BRANCH   6   7
ATOM      7  C   LIG    1        0.995   0.784   1.099  0.00  0.00    +0.057 C 
BRANCH   7   8
ATOM      8  C   LIG    1        1.351   1.869   2.090  0.00  0.00    -0.046 A 
ATOM      9  C   LIG    1        1.514   1.562   3.449  0.00  0.00    +0.003 A 
ATOM     10  C   LIG    1        1.870   2.553   4.363  0.00  0.00    +0.000 A 
ATOM     11  C   LIG    1        2.058   3.863   3.929  0.00  0.00    +0.000 A 
ATOM     12  C   LIG    1        1.899   4.181   2.582  0.00  0.00    +0.000 A 
ATOM     13  C   LIG    1        1.551   3.188   1.664  0.00  0.00    +0.003 A 
ENDBRANCH   7   8
ENDBRANCH   6   7
ENDBRANCH   1   6
BRANCH   3  14
ATOM     14  C   LIG    1        5.017  -1.473   2.697  0.00  0.00    +0.138 C 
BRANCH  14  15
ATOM     15  N   LIG    1        6.237  -2.181   2.260  0.00  0.00    -0.320 NA
ATOM     16  H   LIG    1        6.014  -2.693   1.405  0.00  0.00    +0.119 HD
ATOM     17  H   LIG    1        6.904  -1.470   1.947  0.00  0.00    +0.119 HD
ENDBRANCH  14  15
BRANCH  14  18
ATOM     18  C   LIG    1        5.335  -0.527   3.868  0.00  0.00    +0.028 C 
BRANCH  18  19
ATOM     19  C   LIG    1        5.886  -1.236   5.119  0.00  0.00    +0.003 C 
BRANCH  19  20
ATOM     20  C   LIG    1        4.889  -2.242   5.701  0.00  0.00    +0.015 C 
BRANCH  20  21
ATOM     21  C   LIG    1        5.437  -2.939   6.942  0.00  0.00    +0.077 C 
BRANCH  21  22
ATOM     22  N   LIG    1        4.454  -3.892   7.448  0.00  0.00    -0.330 NA
ATOM     23  H   LIG    1        4.798  -4.300   8.316  0.00  0.00    +0.118 HD
ATOM     24  H   LIG    1        3.588  -3.408   7.681  0.00  0.00    +0.118 HD
ENDBRANCH  21  22
ENDBRANCH  20  21
ENDBRANCH  19  20
ENDBRANCH  18  19
ENDBRANCH  14  18
ENDBRANCH   3  14
TORSDOF 10
