REMARK  Name = *****
REMARK                            x       y       z     vdW  Elec       q    Type
REMARK                         _______ _______ _______ _____ _____    ______ ____
ROOT
ATOM      1  C   LIG    1        4.832  -0.740   2.599  0.00  0.00    +0.122 C 
ATOM      2  C   LIG    1        6.124  -1.047   2.802  0.00  0.00    +0.079 C 
ATOM      3  N   LIG    1        7.231  -0.908   1.992  0.00  0.00    -0.267 N 
ATOM      4  C   LIG    1        7.275  -0.190   0.737  0.00  0.00    +0.139 C 
ATOM      5  C   LIG    1        8.422  -1.464   2.475  0.00  0.00    +0.248 C 
ATOM      6  O   LIG    1        9.422  -1.671   1.789  0.00  0.00    -0.273 OA
ATOM      7  C   LIG    1        8.354  -1.716   3.999  0.00  0.00    +0.208 C 
ATOM      8  S   LIG    1        6.550  -1.794   4.312  0.00  0.00    -0.081 S 
ENDROOT
BRANCH   7   9
ATOM      9  N   LIG    1        9.025  -0.604   4.728  0.00  0.00    -0.283 NA
ATOM     10  C   LIG    1        8.812  -0.608   6.184  0.00  0.00    +0.086 C 
ATOM     11  C   LIG    1        9.507  -1.757   6.914  0.00  0.00    +0.015 C 
ATOM     12  C   LIG    1       10.999  -1.800   6.605  0.00  0.00    +0.002 C 
ATOM     13  C   LIG    1       11.276  -1.681   5.109  0.00  0.00    +0.015 C 
ATOM     14  C   LIG    1       10.478  -0.541   4.470  0.00  0.00    +0.086 C 
ENDBRANCH   7   9
BRANCH   1  15
ATOM     15  C   LIG    1        4.167  -0.218   1.403  0.00  0.00    +0.334 C 
ATOM     16  O   LIG    1        4.516  -0.378   0.242  0.00  0.00    -0.245 OA
BRANCH  15  17
ATOM     17  O   LIG    1        3.084   0.482   1.825  0.00  0.00    -0.462 OA
BRANCH  17  19
ATOM     18  C   LIG    1        3.163   2.473   0.480  0.00  0.00    +0.048 C 
ATOM     19  C   LIG    1        2.394   1.204   0.797  0.00  0.00    +0.229 C 
ENDBRANCH  17  19
ENDBRANCH  15  17
ENDBRANCH   1  15
TORSDOF 4
