REMARK  Name = *****
REMARK                            x       y       z     vdW  Elec       q    Type
REMARK                         _______ _______ _______ _____ _____    ______ ____
ROOT
ATOM      1  C   LIG    1        3.025  -1.750  -0.355  0.00  0.00    -0.002 C 
ATOM      2  C   LIG    1        4.040  -1.853   0.858  0.00  0.00    -0.026 C 
ATOM      3  C   LIG    1        5.280  -2.710   0.503  0.00  0.00    +0.012 C 
ATOM      4  C   LIG    1        3.250  -2.613   1.986  0.00  0.00    +0.001 C 
ATOM      5  C   LIG    1        3.133  -2.031   3.436  0.00  0.00    +0.025 C 
ATOM      6  C   LIG    1        3.652  -0.581   3.660  0.00  0.00    +0.001 C 
ATOM      7  C   LIG    1        3.638   0.184   2.330  0.00  0.00    +0.005 C 
ATOM      8  C   LIG    1        4.936  -0.416   4.593  0.00  0.00    -0.026 C 
ATOM      9  C   LIG    1        5.814   0.804   4.171  0.00  0.00    +0.012 C 
ATOM     10  C   LIG    1        5.859  -1.685   4.600  0.00  0.00    +0.000 C 
ATOM     11  C   LIG    1        6.868  -1.693   5.774  0.00  0.00    +0.035 C 
ATOM     12  C   LIG    1        6.240  -1.419   7.140  0.00  0.00    +0.115 C 
ATOM     13  C   LIG    1        5.471  -0.108   7.141  0.00  0.00    +0.032 C 
ATOM     14  C   LIG    1        5.182  -3.068   4.484  0.00  0.00    +0.035 C 
ATOM     15  C   LIG    1        4.426  -0.040   6.030  0.00  0.00    +0.009 C 
ATOM     16  C   LIG    1        3.670  -3.050   4.453  0.00  0.00    +0.118 C 
ATOM     17  C   LIG    1        1.851  -2.869   1.397  0.00  0.00    +0.005 C 
ATOM     18  C   LIG    1        4.526  -0.460   1.285  0.00  0.00    +0.007 C 
ATOM     19  C   LIG    1        2.069  -2.922  -0.101  0.00  0.00    +0.004 C 
ENDROOT
BRANCH   1  21
ATOM     20  C   LIG    1        4.536  -0.587  -2.106  0.00  0.00    +0.008 C 
ATOM     21  C   LIG    1        3.587  -1.756  -1.812  0.00  0.00    -0.010 C 
BRANCH  21  22
ATOM     22  C   LIG    1        2.482  -1.801  -2.907  0.00  0.00    +0.015 C 
BRANCH  22  23
ATOM     23  C   LIG    1        1.615  -0.546  -3.012  0.00  0.00    +0.121 C 
BRANCH  23  24
ATOM     24  C   LIG    1        0.576  -0.691  -4.096  0.00  0.00    +0.305 C 
ATOM     25  O   LIG    1       -0.536  -1.170  -3.917  0.00  0.00    -0.251 OA
BRANCH  24  26
ATOM     26  O   LIG    1        0.991  -0.261  -5.308  0.00  0.00    -0.481 OA
ATOM     27  H   LIG    1        1.900   0.094  -5.320  0.00  0.00    +0.295 HD
ENDBRANCH  24  26
ENDBRANCH  23  24
ENDBRANCH  22  23
ENDBRANCH  21  22
ENDBRANCH   1  21
BRANCH  12  28
ATOM     28  O   LIG    1        5.400  -2.491   7.554  0.00  0.00    -0.392 OA
ATOM     29  H   LIG    1        4.606  -2.516   6.979  0.00  0.00    +0.210 HD
ENDBRANCH  12  28
BRANCH  16  30
ATOM     30  O   LIG    1        3.196  -2.787   5.770  0.00  0.00    -0.392 OA
ATOM     31  H   LIG    1        2.224  -2.866   5.749  0.00  0.00    +0.210 HD
ENDBRANCH  16  30
TORSDOF 7
