REMARK  Name = *****
REMARK                            x       y       z     vdW  Elec       q    Type
REMARK                         _______ _______ _______ _____ _____    ______ ____
ROOT
ATOM      1  C   LIG    1        1.246   0.089   1.237  0.00  0.00    +0.049 C 
ATOM      2  C   LIG    1        2.606  -0.155   0.640  0.00  0.00    +0.013 A 
ATOM      3  C   LIG    1        2.933  -1.319  -0.076  0.00  0.00    +0.060 A 
ATOM      4  N   LIG    1        4.170  -1.519  -0.605  0.00  0.00    -0.259 NA
ATOM      5  C   LIG    1        5.093  -0.552  -0.443  0.00  0.00    +0.114 A 
ATOM      6  C   LIG    1        4.856   0.637   0.217  0.00  0.00    +0.065 A 
ATOM      7  C   LIG    1        3.595   0.843   0.766  0.00  0.00    +0.127 A 
ENDROOT
BRANCH   3   8
ATOM      8  C   LIG    1        1.945  -2.427  -0.351  0.00  0.00    +0.167 C 
BRANCH   8   9
ATOM      9  S   LIG    1        1.943  -3.696   0.952  0.00  0.00    +0.095 S 
ATOM     10  O   LIG    1        1.563  -3.087   2.272  0.00  0.00    -0.249 OA
BRANCH   9  11
ATOM     11  C   LIG    1        0.512  -4.521   0.409  0.00  0.00    +0.198 A 
ATOM     12  N   LIG    1       -0.618  -4.632   1.177  0.00  0.00    -0.331 N 
ATOM     13  H   LIG    1       -0.705  -4.279   2.119  0.00  0.00    +0.168 HD
ATOM     14  C   LIG    1       -1.601  -5.189   0.402  0.00  0.00    +0.067 A 
ATOM     15  C   LIG    1       -0.966  -5.471  -0.804  0.00  0.00    +0.090 A 
ATOM     16  C   LIG    1       -1.700  -6.068  -1.839  0.00  0.00    +0.030 A 
ATOM     17  C   LIG    1       -3.062  -6.327  -1.635  0.00  0.00    +0.002 A 
ATOM     18  C   LIG    1       -3.676  -6.016  -0.419  0.00  0.00    +0.002 A 
ATOM     19  C   LIG    1       -2.953  -5.450   0.637  0.00  0.00    +0.028 A 
ATOM     20  N   LIG    1        0.347  -5.059  -0.779  0.00  0.00    -0.220 NA
ENDBRANCH   9  11
ENDBRANCH   8   9
ENDBRANCH   3   8
BRANCH   7  21
ATOM     21  O   LIG    1        3.219   1.978   1.442  0.00  0.00    -0.483 OA
BRANCH  21  22
ATOM     22  C   LIG    1        4.161   3.056   1.516  0.00  0.00    +0.342 C 
BRANCH  22  23
ATOM     23  C   LIG    1        3.616   4.237   2.317  0.00  0.00    +0.424 C 
ATOM     24  F   LIG    1        3.579   5.357   1.556  0.00  0.00    -0.167 F 
ATOM     25  F   LIG    1        4.416   4.504   3.378  0.00  0.00    -0.167 F 
ATOM     26  F   LIG    1        2.370   4.029   2.792  0.00  0.00    -0.167 F 
ENDBRANCH  22  23
ENDBRANCH  21  22
ENDBRANCH   7  21
TORSDOF 6
