REMARK  Name = *****
REMARK                            x       y       z     vdW  Elec       q    Type
REMARK                         _______ _______ _______ _____ _____    ______ ____
ROOT
ATOM      1  N   LIG    1        7.416   4.507  -3.448  0.00  0.00    -0.298 N 
ATOM      2  C   LIG    1        6.468   4.265  -4.479  0.00  0.00    +0.048 A 
ATOM      3  C   LIG    1        6.848   3.997  -5.802  0.00  0.00    +0.034 A 
ATOM      4  C   LIG    1        5.868   3.730  -6.771  0.00  0.00    +0.017 A 
ATOM      5  C   LIG    1        4.511   3.793  -6.445  0.00  0.00    +0.013 A 
ATOM      6  C   LIG    1        4.110   4.137  -5.153  0.00  0.00    +0.057 A 
ATOM      7  S   LIG    1        8.556   3.959  -6.312  0.00  0.00    -0.086 S 
ATOM      8  C   LIG    1        9.332   4.857  -4.977  0.00  0.00    +0.034 A 
ATOM      9  C   LIG    1       10.604   5.404  -5.216  0.00  0.00    +0.017 A 
ATOM     10  C   LIG    1       11.274   6.096  -4.206  0.00  0.00    +0.001 A 
ATOM     11  C   LIG    1       10.693   6.229  -2.954  0.00  0.00    +0.002 A 
ATOM     12  C   LIG    1        9.431   5.676  -2.704  0.00  0.00    +0.024 A 
ATOM     13  C   LIG    1        5.096   4.362  -4.178  0.00  0.00    +0.037 A 
ATOM     14  C   LIG    1        8.730   4.987  -3.712  0.00  0.00    +0.048 A 
ENDROOT
BRANCH   6  15
ATOM     15  C   LIG    1        2.656   4.285  -4.785  0.00  0.00    +0.417 C 
ATOM     16  F   LIG    1        2.357   5.536  -4.339  0.00  0.00    -0.166 F 
ATOM     17  F   LIG    1        2.284   3.435  -3.788  0.00  0.00    -0.166 F 
ATOM     18  F   LIG    1        1.804   4.044  -5.820  0.00  0.00    -0.166 F 
ENDBRANCH   6  15
BRANCH   1  19
ATOM     19  C   LIG    1        7.337   3.501  -2.351  0.00  0.00    +0.112 C 
BRANCH  19  20
ATOM     20  C   LIG    1        8.147   2.233  -2.665  0.00  0.00    +0.035 C 
BRANCH  20  21
ATOM     21  C   LIG    1        8.044   1.190  -1.542  0.00  0.00    +0.086 C 
BRANCH  21  25
ATOM     22  N   LIG    1       10.722  -0.225   0.524  0.00  0.00    -0.298 NA
ATOM     23  C   LIG    1       10.935   0.707  -0.610  0.00  0.00    +0.100 C 
ATOM     24  C   LIG    1       10.287   0.235  -1.931  0.00  0.00    +0.100 C 
ATOM     25  N   LIG    1        8.836  -0.026  -1.818  0.00  0.00    -0.300 NA
ATOM     26  C   LIG    1        8.674  -1.039  -0.752  0.00  0.00    +0.100 C 
ATOM     27  C   LIG    1        9.308  -0.650   0.608  0.00  0.00    +0.100 C 
BRANCH  22  28
ATOM     28  C   LIG    1       11.182   0.426   1.774  0.00  0.00    +0.112 C 
BRANCH  28  29
ATOM     29  C   LIG    1       11.109  -0.462   3.026  0.00  0.00    +0.171 C 
BRANCH  29  30
ATOM     30  O   LIG    1       11.876  -1.648   2.859  0.00  0.00    -0.394 OA
ATOM     31  H   LIG    1       11.619  -2.007   1.989  0.00  0.00    +0.209 HD
ENDBRANCH  29  30
ENDBRANCH  28  29
ENDBRANCH  22  28
ENDBRANCH  21  25
ENDBRANCH  20  21
ENDBRANCH  19  20
ENDBRANCH   1  19
TORSDOF 8
