REMARK  Name = *****
REMARK                            x       y       z     vdW  Elec       q    Type
REMARK                         _______ _______ _______ _____ _____    ______ ____
ROOT
ATOM      1  C   LIG    1        1.992   2.643  -0.818  0.00  0.00    +0.144 C 
ENDROOT
BRANCH   1   2
ATOM      2  C   LIG    1        2.441   2.636  -2.311  0.00  0.00    -0.003 C 
ATOM      3  C   LIG    1        3.616   1.626  -2.487  0.00  0.00    +0.012 C 
ATOM      4  C   LIG    1        4.120   1.595  -3.939  0.00  0.00    -0.007 C 
ATOM      5  C   LIG    1        2.964   1.178  -4.859  0.00  0.00    +0.038 C 
ATOM      6  C   LIG    1        1.809   2.185  -4.737  0.00  0.00    +0.067 C 
ATOM      7  C   LIG    1        2.310   3.581  -5.135  0.00  0.00    +0.038 C 
ATOM      8  C   LIG    1        3.460   4.006  -4.211  0.00  0.00    -0.007 C 
ATOM      9  C   LIG    1        4.610   2.996  -4.335  0.00  0.00    +0.007 C 
ATOM     10  C   LIG    1        1.303   2.221  -3.282  0.00  0.00    +0.043 C 
ATOM     11  C   LIG    1        2.959   4.032  -2.756  0.00  0.00    +0.012 C 
BRANCH   6  12
ATOM     12  O   LIG    1        0.752   1.808  -5.609  0.00  0.00    -0.389 OA
ATOM     13  H   LIG    1        0.400   0.956  -5.301  0.00  0.00    +0.210 HD
ENDBRANCH   6  12
ENDBRANCH   1   2
BRANCH   1  16
ATOM     14  C   LIG    1        0.259   5.881   0.498  0.00  0.00    +0.179 C 
ATOM     15  N   LIG    1        1.274   4.906   0.042  0.00  0.00    -0.281 N 
ATOM     16  C   LIG    1        0.890   3.687  -0.478  0.00  0.00    +0.234 C 
ATOM     17  O   LIG    1       -0.305   3.402  -0.613  0.00  0.00    -0.274 OA
ATOM     18  C   LIG    1        2.598   5.375   0.349  0.00  0.00    +0.081 C 
ATOM     19  C   LIG    1        2.485   6.604   1.205  0.00  0.00    +0.014 C 
ATOM     20  C   LIG    1        3.092   6.699  -0.167  0.00  0.00    +0.028 C 
ATOM     21  C   LIG    1        1.016   6.807   1.482  0.00  0.00    +0.043 C 
BRANCH  14  23
ATOM     22  N   LIG    1       -0.717   7.318  -1.490  0.00  0.00    -0.195 NA
ATOM     23  C   LIG    1       -0.298   6.664  -0.626  0.00  0.00    +0.085 C 
ENDBRANCH  14  23
ENDBRANCH   1  16
BRANCH   1  24
ATOM     24  N   LIG    1        1.494   1.310  -0.386  0.00  0.00    -0.320 NA
ATOM     25  H   LIG    1        1.325   1.337   0.621  0.00  0.00    +0.119 HD
ATOM     26  H   LIG    1        0.555   1.198  -0.783  0.00  0.00    +0.119 HD
ENDBRANCH   1  24
TORSDOF 5
