REMARK  Name = *****
REMARK                            x       y       z     vdW  Elec       q    Type
REMARK                         _______ _______ _______ _____ _____    ______ ____
ROOT
ATOM      1  C   LIG    1        2.520   0.805  -0.208  0.00  0.00    +0.000 A 
ATOM      2  C   LIG    1        1.289   1.445  -0.070  0.00  0.00    +0.004 A 
ATOM      3  C   LIG    1        0.099   0.704  -0.004  0.00  0.00    -0.043 A 
ATOM      4  C   LIG    1       -1.210   1.440   0.134  0.00  0.00    +0.035 C 
ATOM      5  C   LIG    1       -2.405   0.592  -0.290  0.00  0.00    +0.006 C 
ATOM      6  C   LIG    1       -2.367  -0.752   0.423  0.00  0.00    +0.020 C 
ATOM      7  C   LIG    1       -1.110  -1.551   0.042  0.00  0.00    +0.134 C 
ATOM      8  C   LIG    1        0.154  -0.703  -0.034  0.00  0.00    -0.030 A 
ATOM      9  C   LIG    1        1.401  -1.331  -0.205  0.00  0.00    +0.005 A 
ATOM     10  C   LIG    1        2.575  -0.582  -0.284  0.00  0.00    +0.000 A 
ENDROOT
BRANCH   7  11
ATOM     11  C   LIG    1       -0.976  -2.704   1.028  0.00  0.00    +0.288 C 
ATOM     12  N   LIG    1       -0.588  -2.510   2.334  0.00  0.00    -0.233 N 
ATOM     13  H   LIG    1        0.040  -1.732   2.509  0.00  0.00    +0.291 HD
ATOM     14  C   LIG    1       -0.233  -3.799   2.876  0.00  0.00    +0.272 C 
ATOM     15  C   LIG    1       -0.958  -4.734   1.903  0.00  0.00    +0.333 C 
ATOM     16  N   LIG    1       -1.207  -3.942   0.664  0.00  0.00    -0.083 NA
ENDBRANCH   7  11
TORSDOF 1
