REMARK  Name = *****
REMARK                            x       y       z     vdW  Elec       q    Type
REMARK                         _______ _______ _______ _____ _____    ______ ____
ROOT
ATOM      1  C   LIG    1        2.082   0.119   0.590  0.00  0.00    +0.086 C 
ATOM      2  C   LIG    1        3.375   0.806  -0.002  0.00  0.00    +0.103 C 
ATOM      3  O   LIG    1        3.773  -0.136  -0.962  0.00  0.00    -0.464 OA
ATOM      4  C   LIG    1        4.460   0.886  -1.551  0.00  0.00    +0.235 C 
ATOM      5  N   LIG    1        5.582   1.071  -0.241  0.00  0.00    -0.243 N 
ATOM      6  C   LIG    1        5.058   0.893   1.474  0.00  0.00    +0.208 C 
ATOM      7  C   LIG    1        3.502   1.810   2.156  0.00  0.00    +0.237 C 
ATOM      8  N   LIG    1        2.286   2.551   1.183  0.00  0.00    -0.273 N 
ATOM      9  C   LIG    1        2.083   2.732  -0.571  0.00  0.00    +0.045 A 
ATOM     10  C   LIG    1        1.008   3.512  -0.975  0.00  0.00    +0.025 A 
ATOM     11  C   LIG    1        0.784   3.719  -2.351  0.00  0.00    +0.022 A 
ATOM     12  C   LIG    1        1.599   3.180  -3.382  0.00  0.00    +0.042 A 
ATOM     13  C   LIG    1        2.721   2.382  -3.146  0.00  0.00    +0.031 A 
ATOM     14 CL   LIG    1        1.163   3.517  -5.021  0.00  0.00    -0.084 Cl
ATOM     15  C   LIG    1        1.258   3.203   1.984  0.00  0.00    +0.138 C 
ATOM     16  O   LIG    1        3.335   1.812   3.386  0.00  0.00    -0.274 OA
ATOM     17  C   LIG    1        5.596   2.407  -0.310  0.00  0.00    +0.246 C 
ATOM     18  O   LIG    1        6.375   3.286  -0.051  0.00  0.00    -0.270 OA
ATOM     19  C   LIG    1        3.040   2.115  -1.818  0.00  0.00    +0.042 A 
ATOM     20  C   LIG    1        4.194   2.270   0.086  0.00  0.00    +0.108 C 
ENDROOT
BRANCH   4  21
ATOM     21  C   LIG    1        5.166   0.482  -2.837  0.00  0.00    +0.019 A 
ATOM     22  C   LIG    1        4.716  -0.618  -3.590  0.00  0.00    +0.009 A 
ATOM     23  C   LIG    1        5.351  -0.981  -4.779  0.00  0.00    +0.001 A 
ATOM     24  C   LIG    1        6.443  -0.250  -5.237  0.00  0.00    +0.000 A 
ATOM     25  C   LIG    1        6.899   0.846  -4.509  0.00  0.00    +0.001 A 
ATOM     26  C   LIG    1        6.264   1.213  -3.320  0.00  0.00    +0.009 A 
ENDBRANCH   4  21
TORSDOF 1
