REMARK  Name = *****
REMARK                            x       y       z     vdW  Elec       q    Type
REMARK                         _______ _______ _______ _____ _____    ______ ____
ROOT
ATOM      1  N   LIG    1        2.715  -3.186   0.984  0.00  0.00    -0.282 N 
ATOM      2  C   LIG    1        2.036  -3.250   2.233  0.00  0.00    +0.139 A 
ATOM      3  C   LIG    1        1.561  -4.461   2.743  0.00  0.00    +0.053 A 
ATOM      4  C   LIG    1        1.026  -4.493   4.041  0.00  0.00    +0.020 A 
ATOM      5  C   LIG    1        0.954  -3.330   4.793  0.00  0.00    +0.021 A 
ATOM      6  C   LIG    1        1.382  -2.167   4.206  0.00  0.00    +0.113 A 
ATOM      7  S   LIG    1        1.544  -5.984   1.839  0.00  0.00    -0.084 S 
ATOM      8  C   LIG    1        2.548  -5.585   0.424  0.00  0.00    +0.034 A 
ATOM      9  C   LIG    1        2.840  -6.668  -0.428  0.00  0.00    +0.017 A 
ATOM     10  C   LIG    1        3.644  -6.501  -1.546  0.00  0.00    +0.001 A 
ATOM     11  C   LIG    1        4.162  -5.245  -1.822  0.00  0.00    +0.002 A 
ATOM     12  C   LIG    1        3.855  -4.159  -0.990  0.00  0.00    +0.024 A 
ATOM     13  N   LIG    1        1.899  -2.106   2.959  0.00  0.00    -0.239 NA
ATOM     14  C   LIG    1        3.031  -4.287   0.150  0.00  0.00    +0.049 A 
ENDROOT
BRANCH   1  15
ATOM     15  C   LIG    1        2.953  -1.805   0.505  0.00  0.00    +0.131 C 
BRANCH  15  17
ATOM     16  C   LIG    1        4.665  -1.165   2.342  0.00  0.00    +0.026 C 
ATOM     17  C   LIG    1        4.370  -1.224   0.833  0.00  0.00    +0.071 C 
BRANCH  17  18
ATOM     18  N   LIG    1        4.664   0.103   0.203  0.00  0.00    -0.304 NA
ATOM     19  C   LIG    1        3.912   1.215   0.789  0.00  0.00    +0.105 C 
ATOM     20  C   LIG    1        4.494   0.092  -1.250  0.00  0.00    +0.105 C 
ENDBRANCH  17  18
ENDBRANCH  15  17
ENDBRANCH   1  15
TORSDOF 3
