REMARK  Name = *****
REMARK                            x       y       z     vdW  Elec       q    Type
REMARK                         _______ _______ _______ _____ _____    ______ ____
ROOT
ATOM      1  N   LIG    1        6.525   6.306  -2.929  0.00  0.00    -0.312 N 
ATOM      2  H   LIG    1        5.835   5.579  -2.812  0.00  0.00    +0.149 HD
ENDROOT
BRANCH   1   3
ATOM      3  C   LIG    1        7.349   6.254  -4.011  0.00  0.00    +0.197 A 
ATOM      4  N   LIG    1        7.636   5.073  -4.680  0.00  0.00    -0.307 N 
ATOM      5  C   LIG    1        8.304   5.406  -5.846  0.00  0.00    +0.070 A 
ATOM      6  C   LIG    1        8.520   6.776  -5.723  0.00  0.00    +0.091 A 
ATOM      7  C   LIG    1        9.209   7.464  -6.732  0.00  0.00    +0.030 A 
ATOM      8  C   LIG    1        9.617   6.762  -7.871  0.00  0.00    +0.002 A 
ATOM      9  C   LIG    1        9.372   5.394  -7.987  0.00  0.00    +0.002 A 
ATOM     10  C   LIG    1        8.728   4.679  -6.967  0.00  0.00    +0.028 A 
ATOM     11  N   LIG    1        7.957   7.264  -4.573  0.00  0.00    -0.214 NA
BRANCH   4  12
ATOM     12  C   LIG    1        7.249   3.724  -4.301  0.00  0.00    +0.160 C 
BRANCH  12  13
ATOM     13  C   LIG    1        8.311   3.000  -3.497  0.00  0.00    -0.028 A 
ATOM     14  C   LIG    1        8.729   3.475  -2.241  0.00  0.00    +0.008 A 
ATOM     15  C   LIG    1        9.681   2.776  -1.495  0.00  0.00    +0.039 A 
ATOM     16  C   LIG    1       10.217   1.597  -1.995  0.00  0.00    +0.123 A 
ATOM     17  F   LIG    1       11.129   0.926  -1.279  0.00  0.00    -0.205 F 
ATOM     18  C   LIG    1        9.816   1.101  -3.229  0.00  0.00    +0.039 A 
ATOM     19  C   LIG    1        8.863   1.799  -3.977  0.00  0.00    +0.008 A 
ENDBRANCH  12  13
ENDBRANCH   4  12
ENDBRANCH   1   3
BRANCH   1  23
ATOM     20  N   LIG    1        5.748   7.019   0.473  0.00  0.00    -0.302 NA
ATOM     21  C   LIG    1        4.736   6.659  -0.527  0.00  0.00    +0.086 C 
ATOM     22  C   LIG    1        4.724   7.543  -1.771  0.00  0.00    +0.037 C 
ATOM     23  C   LIG    1        6.104   7.628  -2.421  0.00  0.00    +0.075 C 
ATOM     24  C   LIG    1        7.066   8.170  -1.367  0.00  0.00    +0.037 C 
ATOM     25  C   LIG    1        7.079   7.298  -0.111  0.00  0.00    +0.086 C 
BRANCH  20  26
ATOM     26  C   LIG    1        5.896   5.938   1.484  0.00  0.00    +0.089 C 
BRANCH  26  27
ATOM     27  C   LIG    1        4.596   5.509   2.206  0.00  0.00    +0.050 C 
BRANCH  27  31
ATOM     28  C   LIG    1        5.408   2.306   5.007  0.00  0.00    +0.120 A 
ATOM     29  C   LIG    1        4.519   2.101   3.950  0.00  0.00    +0.046 A 
ATOM     30  C   LIG    1        4.231   3.138   3.052  0.00  0.00    +0.007 A 
ATOM     31  C   LIG    1        4.838   4.393   3.199  0.00  0.00    -0.046 A 
ATOM     32  C   LIG    1        5.692   4.601   4.286  0.00  0.00    +0.007 A 
ATOM     33  C   LIG    1        5.979   3.567   5.176  0.00  0.00    +0.046 A 
BRANCH  28  35
ATOM     34  C   LIG    1        6.577   1.433   6.869  0.00  0.00    +0.277 C 
ATOM     35  O   LIG    1        5.649   1.222   5.808  0.00  0.00    -0.495 OA
ENDBRANCH  28  35
ENDBRANCH  27  31
ENDBRANCH  26  27
ENDBRANCH  20  26
ENDBRANCH   1  23
TORSDOF 8
