REMARK  Name = *****
REMARK                            x       y       z     vdW  Elec       q    Type
REMARK                         _______ _______ _______ _____ _____    ______ ____
ROOT
ATOM      1  C   LIG    1        4.911  -2.685  -1.812  0.00  0.00    +0.170 A 
ATOM      2  C   LIG    1        4.680  -2.737  -3.178  0.00  0.00    +0.075 A 
ATOM      3  C   LIG    1        3.987  -1.814  -4.093  0.00  0.00    +0.163 C 
ATOM      4  N   LIG    1        4.966  -1.335  -5.037  0.00  0.00    -0.295 N 
ATOM      5  C   LIG    1        5.497  -2.130  -6.038  0.00  0.00    +0.249 C 
ATOM      6  C   LIG    1        5.202  -3.596  -6.064  0.00  0.00    +0.063 A 
ATOM      7  C   LIG    1        5.156  -4.447  -4.938  0.00  0.00    +0.060 A 
ATOM      8  C   LIG    1        5.064  -5.842  -5.121  0.00  0.00    +0.029 A 
ATOM      9  C   LIG    1        4.986  -6.380  -6.407  0.00  0.00    +0.040 A 
ATOM     10  C   LIG    1        5.017  -5.537  -7.507  0.00  0.00    +0.124 A 
ATOM     11  F   LIG    1        4.946  -6.058  -8.738  0.00  0.00    -0.205 F 
ATOM     12  C   LIG    1        5.134  -4.163  -7.349  0.00  0.00    +0.053 A 
ATOM     13  O   LIG    1        6.219  -1.681  -6.927  0.00  0.00    -0.270 OA
ATOM     14  C   LIG    1        5.348   0.066  -4.940  0.00  0.00    +0.133 C 
ATOM     15  N   LIG    1        5.181  -3.946  -3.610  0.00  0.00    -0.300 N 
ATOM     16  C   LIG    1        5.631  -4.595  -2.484  0.00  0.00    +0.205 A 
ATOM     17  N   LIG    1        5.498  -3.868  -1.399  0.00  0.00    -0.229 NA
ENDROOT
BRANCH   1  18
ATOM     18  C   LIG    1        4.569  -1.584  -0.906  0.00  0.00    +0.359 C 
ATOM     19  O   LIG    1        4.054  -0.537  -1.288  0.00  0.00    -0.243 OA
BRANCH  18  20
ATOM     20  O   LIG    1        4.878  -1.854   0.395  0.00  0.00    -0.460 OA
BRANCH  20  22
ATOM     21  C   LIG    1        5.664   0.211   1.387  0.00  0.00    +0.048 C 
ATOM     22  C   LIG    1        4.555  -0.823   1.336  0.00  0.00    +0.229 C 
ENDBRANCH  20  22
ENDBRANCH  18  20
ENDBRANCH   1  18
TORSDOF 3
