REMARK  Name = *****
REMARK                            x       y       z     vdW  Elec       q    Type
REMARK                         _______ _______ _______ _____ _____    ______ ____
ROOT
ATOM      1  O   LIG    1       -7.647  -5.394   0.320  0.00  0.00    -0.461 OA
ENDROOT
BRANCH   1   2
ATOM      2  C   LIG    1       -6.662  -6.457   0.391  0.00  0.00    +0.187 C 
ATOM      3  C   LIG    1       -6.595  -7.076   1.797  0.00  0.00    +0.099 C 
ATOM      4  C   LIG    1       -5.930  -8.453   1.839  0.00  0.00    +0.070 C 
ATOM      5  N   LIG    1       -6.593  -9.403   0.824  0.00  0.00    +0.243 N 
ATOM      6  C   LIG    1       -8.115  -9.498   0.901  0.00  0.00    +0.192 C 
ATOM      7  C   LIG    1       -6.129 -10.852   1.045  0.00  0.00    +0.192 C 
ATOM      8  C   LIG    1       -6.059  -8.803  -0.489  0.00  0.00    +0.070 C 
ATOM      9  C   LIG    1       -4.566  -8.598  -0.179  0.00  0.00    +0.060 C 
ATOM     10  C   LIG    1       -4.484  -8.363   1.332  0.00  0.00    +0.060 C 
ATOM     11  C   LIG    1       -6.755  -7.455  -0.778  0.00  0.00    +0.099 C 
ENDBRANCH   1   2
BRANCH   1  12
ATOM     12  C   LIG    1       -8.947  -5.624   0.672  0.00  0.00    +0.310 C 
ATOM     13  O   LIG    1       -9.419  -6.710   0.942  0.00  0.00    -0.251 OA
BRANCH  12  14
ATOM     14  C   LIG    1       -9.736  -4.344   0.845  0.00  0.00    +0.098 C 
BRANCH  14  15
ATOM     15  C   LIG    1       -9.410  -3.805   2.249  0.00  0.00    +0.014 C 
BRANCH  15  17
ATOM     16  C   LIG    1       -9.837  -2.121   4.060  0.00  0.00    +0.004 C 
ATOM     17  C   LIG    1      -10.229  -2.583   2.664  0.00  0.00    -0.003 C 
ENDBRANCH  15  17
ENDBRANCH  14  15
BRANCH  14  18
ATOM     18  C   LIG    1       -9.474  -3.349  -0.291  0.00  0.00    +0.014 C 
BRANCH  18  19
ATOM     19  C   LIG    1       -9.785  -3.896  -1.691  0.00  0.00    -0.003 C 
ATOM     20  C   LIG    1      -11.240  -4.306  -1.865  0.00  0.00    +0.004 C 
ENDBRANCH  18  19
ENDBRANCH  14  18
ENDBRANCH  12  14
ENDBRANCH   1  12
TORSDOF 7
