REMARK  Name = *****
REMARK                            x       y       z     vdW  Elec       q    Type
REMARK                         _______ _______ _______ _____ _____    ______ ____
ROOT
ATOM      1  O   LIG    1        0.952  -0.181  -0.078  0.00  0.00    -0.251 OA
ATOM      2  C   LIG    1        2.174  -0.141  -0.070  0.00  0.00    +0.341 C 
ATOM      3  N   LIG    1        3.024  -1.243  -0.087  0.00  0.00    -0.005 NA
ATOM      4  C   LIG    1        4.233  -0.763  -0.063  0.00  0.00    +0.370 C 
ATOM      5  N   LIG    1        4.329   0.588  -0.015  0.00  0.00    -0.212 N 
ATOM      6  C   LIG    1        5.527   1.376  -0.089  0.00  0.00    +0.228 C 
ATOM      7  C   LIG    1        6.776   0.522  -0.072  0.00  0.00    +0.040 A 
ATOM      8  C   LIG    1        6.651  -0.883  -0.074  0.00  0.00    +0.099 A 
ATOM      9  C   LIG    1        7.797  -1.684  -0.068  0.00  0.00    +0.042 A 
ATOM     10  C   LIG    1        9.065  -1.104  -0.064  0.00  0.00    +0.025 A 
ATOM     11  C   LIG    1        9.200   0.285  -0.065  0.00  0.00    +0.060 A 
ATOM     12 CL   LIG    1       10.807   0.925  -0.063  0.00  0.00    -0.082 Cl
ATOM     13  C   LIG    1        8.060   1.103  -0.071  0.00  0.00    +0.068 A 
ATOM     14 CL   LIG    1        8.218   2.833  -0.081  0.00  0.00    -0.082 Cl
ATOM     15  N   LIG    1        5.382  -1.473  -0.076  0.00  0.00    -0.207 N 
ATOM     16  H   LIG    1        5.301  -2.480  -0.096  0.00  0.00    +0.251 HD
ATOM     17  C   LIG    1        3.001   1.155  -0.049  0.00  0.00    +0.305 C 
ENDROOT
TORSDOF 0
