REMARK  Name = *****
REMARK                            x       y       z     vdW  Elec       q    Type
REMARK                         _______ _______ _______ _____ _____    ______ ____
ROOT
ATOM      1  C   LIG    1        0.369   2.023   1.294  0.00  0.00    -0.000 C 
ATOM      2  C   LIG    1        0.241   2.692   2.465  0.00  0.00    -0.066 C 
ATOM      3  C   LIG    1       -0.878   3.596   2.946  0.00  0.00    +0.021 C 
ATOM      4  C   LIG    1       -1.964   4.064   1.984  0.00  0.00    +0.009 C 
ATOM      5  C   LIG    1       -2.405   5.404   2.563  0.00  0.00    +0.005 C 
ATOM      6  C   LIG    1       -1.121   6.088   3.066  0.00  0.00    +0.002 C 
ATOM      7  C   LIG    1       -0.328   4.898   3.677  0.00  0.00    -0.022 C 
ATOM      8  C   LIG    1       -0.646   4.757   5.196  0.00  0.00    +0.012 C 
ATOM      9  C   LIG    1        1.191   5.087   3.580  0.00  0.00    +0.008 C 
ATOM     10  C   LIG    1        1.934   3.873   4.031  0.00  0.00    +0.005 C 
ATOM     11  C   LIG    1        1.222   2.621   3.585  0.00  0.00    +0.031 C 
ENDROOT
BRANCH   1  19
ATOM     12  C   LIG    1        2.443  -0.151   3.582  0.00  0.00    +0.015 C 
ATOM     13  C   LIG    1        3.039   0.506   2.601  0.00  0.00    -0.023 C 
ATOM     14  C   LIG    1        4.216   1.481   2.708  0.00  0.00    +0.147 C 
ATOM     15  C   LIG    1        5.390   0.893   1.960  0.00  0.00    +0.067 C 
ATOM     16  C   LIG    1        4.987   0.472   0.533  0.00  0.00    +0.122 C 
ATOM     17  C   LIG    1        3.585  -0.195   0.396  0.00  0.00    +0.067 C 
ATOM     18  C   LIG    1        2.526   0.524   1.225  0.00  0.00    -0.040 C 
ATOM     19  C   LIG    1        1.435   1.151   0.736  0.00  0.00    +0.004 C 
BRANCH  14  20
ATOM     20  O   LIG    1        4.575   1.746   4.059  0.00  0.00    -0.387 OA
ATOM     21  H   LIG    1        3.800   2.147   4.485  0.00  0.00    +0.210 HD
ENDBRANCH  14  20
BRANCH  16  22
ATOM     22  O   LIG    1        5.057   1.613  -0.330  0.00  0.00    -0.391 OA
ATOM     23  H   LIG    1        4.256   2.149  -0.193  0.00  0.00    +0.210 HD
ENDBRANCH  16  22
ENDBRANCH   1  19
BRANCH   6  24
ATOM     24  C   LIG    1       -0.447   6.995   1.974  0.00  0.00    +0.012 C 
ATOM     25  C   LIG    1       -0.045   6.286   0.666  0.00  0.00    +0.012 C 
BRANCH  24  26
ATOM     26  C   LIG    1        0.705   7.847   2.510  0.00  0.00    -0.027 C 
ATOM     27  C   LIG    1        0.573   8.957   3.261  0.00  0.00    -0.027 C 
BRANCH  27  28
ATOM     28  C   LIG    1        1.747   9.759   3.812  0.00  0.00    +0.011 C 
ATOM     29  C   LIG    1        2.081   9.210   5.208  0.00  0.00    +0.012 C 
BRANCH  28  30
ATOM     30  C   LIG    1        1.477  11.296   3.857  0.00  0.00    -0.011 C 
ATOM     31  C   LIG    1        1.075  11.872   2.493  0.00  0.00    +0.008 C 
ATOM     32  C   LIG    1        2.693  12.088   4.366  0.00  0.00    +0.008 C 
ENDBRANCH  28  30
ENDBRANCH  27  28
ENDBRANCH  24  26
ENDBRANCH   6  24
TORSDOF 7
