REMARK  Name = *****
REMARK                            x       y       z     vdW  Elec       q    Type
REMARK                         _______ _______ _______ _____ _____    ______ ____
ROOT
ATOM      1  C   LIG    1        9.889  -0.548   6.216  0.00  0.00    +0.134 C 
ATOM      2  C   LIG    1        8.620  -0.874   7.016  0.00  0.00    +0.079 C 
ATOM      3  C   LIG    1        7.450   0.060   6.675  0.00  0.00    +0.158 C 
ATOM      4  C   LIG    1        7.880   1.525   6.792  0.00  0.00    +0.030 A 
ATOM      5  C   LIG    1        9.239   1.893   6.666  0.00  0.00    +0.007 A 
ATOM      6  C   LIG    1        9.596   3.251   6.736  0.00  0.00    +0.132 A 
ATOM      7  C   LIG    1        8.633   4.253   6.927  0.00  0.00    +0.078 A 
ATOM      8  C   LIG    1        9.042   5.664   6.969  0.00  0.00    +0.198 C 
ATOM      9  O   LIG    1       10.234   5.951   6.877  0.00  0.00    -0.286 OA
ATOM     10  C   LIG    1        8.035   6.724   7.109  0.00  0.00    +0.037 A 
ATOM     11  C   LIG    1        6.685   6.412   7.296  0.00  0.00    +0.075 A 
ATOM     12  C   LIG    1        5.765   7.471   7.452  0.00  0.00    +0.132 A 
ATOM     13  C   LIG    1        6.218   8.800   7.376  0.00  0.00    +0.046 A 
ATOM     14  C   LIG    1        7.565   9.091   7.181  0.00  0.00    +0.004 A 
ATOM     15  C   LIG    1        6.289   4.973   7.346  0.00  0.00    +0.202 C 
ATOM     16  O   LIG    1        5.146   4.613   7.614  0.00  0.00    -0.286 OA
ATOM     17  C   LIG    1        8.475   8.054   7.054  0.00  0.00    +0.012 A 
ATOM     18  C   LIG    1        7.296   3.908   7.087  0.00  0.00    +0.078 A 
ATOM     19  C   LIG    1        6.927   2.544   7.022  0.00  0.00    +0.135 A 
ATOM     20  C   LIG    1       10.353   0.869   6.564  0.00  0.00    +0.082 C 
ENDROOT
BRANCH   1  21
ATOM     21  O   LIG    1        9.619  -0.686   4.820  0.00  0.00    -0.381 OA
ATOM     22  H   LIG    1       10.097   0.005   4.326  0.00  0.00    +0.211 HD
ENDBRANCH   1  21
BRANCH  19  23
ATOM     23  O   LIG    1        5.622   2.152   7.210  0.00  0.00    -0.506 OA
ATOM     24  H   LIG    1        5.084   2.952   7.415  0.00  0.00    +0.292 HD
ENDBRANCH  19  23
BRANCH   6  25
ATOM     25  O   LIG    1       10.934   3.542   6.617  0.00  0.00    -0.506 OA
ATOM     26  H   LIG    1       11.052   4.518   6.684  0.00  0.00    +0.292 HD
ENDBRANCH   6  25
BRANCH  12  27
ATOM     27  O   LIG    1        4.436   7.175   7.611  0.00  0.00    -0.494 OA
ATOM     28  C   LIG    1        3.657   8.116   8.345  0.00  0.00    +0.277 C 
ENDBRANCH  12  27
BRANCH   1  29
ATOM     29  C   LIG    1       11.004  -1.533   6.624  0.00  0.00    +0.202 C 
ATOM     30  O   LIG    1       11.010  -2.069   7.738  0.00  0.00    -0.291 OA
BRANCH  29  31
ATOM     31  C   LIG    1       12.120  -1.810   5.623  0.00  0.00    +0.309 C 
BRANCH  31  32
ATOM     32  O   LIG    1       12.149  -3.213   5.348  0.00  0.00    -0.457 OA
BRANCH  32  33
ATOM     33  C   LIG    1       12.954  -3.939   6.160  0.00  0.00    +0.307 C 
ATOM     34  O   LIG    1       13.784  -3.459   6.935  0.00  0.00    -0.251 OA
BRANCH  33  35
ATOM     35  C   LIG    1       12.687  -5.408   5.987  0.00  0.00    +0.120 C 
BRANCH  35  36
ATOM     36  C   LIG    1       13.500  -6.229   6.979  0.00  0.00    +0.011 C 
BRANCH  36  38
ATOM     37  C   LIG    1       14.027  -8.524   7.847  0.00  0.00    +0.004 C 
ATOM     38  C   LIG    1       13.211  -7.718   6.851  0.00  0.00    -0.003 C 
ENDBRANCH  36  38
ENDBRANCH  35  36
ENDBRANCH  33  35
ENDBRANCH  32  33
ENDBRANCH  31  32
ENDBRANCH  29  31
ENDBRANCH   1  29
BRANCH   3  39
ATOM     39  O   LIG    1        6.906  -0.132   5.360  0.00  0.00    -0.343 OA
BRANCH  39  40
ATOM     40  C   LIG    1        6.438  -1.450   5.068  0.00  0.00    +0.253 C 
ATOM     41  O   LIG    1        5.444  -1.920   5.985  0.00  0.00    -0.346 OA
ATOM     42  C   LIG    1        4.237  -1.138   5.964  0.00  0.00    +0.148 C 
ATOM     43  C   LIG    1        3.325  -1.684   7.055  0.00  0.00    +0.040 C 
ATOM     44  C   LIG    1        3.589  -1.201   4.566  0.00  0.00    +0.163 C 
ATOM     45  C   LIG    1        4.611  -0.665   3.544  0.00  0.00    +0.109 C 
ATOM     46  C   LIG    1        5.891  -1.503   3.635  0.00  0.00    +0.086 C 
BRANCH  45  47
ATOM     47  N   LIG    1        4.073  -0.615   2.179  0.00  0.00    -0.302 N 
ATOM     48  H   LIG    1        3.425  -1.342   1.884  0.00  0.00    +0.149 HD
ATOM     49  C   LIG    1        4.492   0.366   1.279  0.00  0.00    +0.318 C 
ATOM     50  O   LIG    1        5.316   1.223   1.614  0.00  0.00    -0.266 OA
BRANCH  49  51
ATOM     51  C   LIG    1        3.854   0.352  -0.131  0.00  0.00    +0.469 C 
ATOM     52  F   LIG    1        4.787   0.386  -1.124  0.00  0.00    -0.162 F 
ATOM     53  F   LIG    1        3.037   1.424  -0.336  0.00  0.00    -0.162 F 
ATOM     54  F   LIG    1        3.093  -0.757  -0.358  0.00  0.00    -0.162 F 
ENDBRANCH  49  51
ENDBRANCH  45  47
BRANCH  44  55
ATOM     55  O   LIG    1        3.229  -2.552   4.224  0.00  0.00    -0.387 OA
ATOM     56  H   LIG    1        3.865  -3.137   4.681  0.00  0.00    +0.210 HD
ENDBRANCH  44  55
ENDBRANCH  39  40
ENDBRANCH   3  39
TORSDOF 16
