REMARK  Name = *****
REMARK                            x       y       z     vdW  Elec       q    Type
REMARK                         _______ _______ _______ _____ _____    ______ ____
ROOT
ATOM      1  C   LIG    1        4.587   0.585  -0.883  0.00  0.00    +0.080 C 
ATOM      2  C   LIG    1        5.546  -0.146   0.058  0.00  0.00    +0.097 C 
ATOM      3  C   LIG    1        6.989  -0.189  -0.468  0.00  0.00    +0.065 C 
ATOM      4  C   LIG    1        7.399   0.728  -1.379  0.00  0.00    +0.016 C 
ATOM      5  C   LIG    1        8.802   0.878  -1.911  0.00  0.00    +0.061 C 
ATOM      6  N   LIG    1        6.473   1.620  -1.898  0.00  0.00    -0.309 N 
ATOM      7  H   LIG    1        6.793   2.237  -2.646  0.00  0.00    +0.152 HD
ATOM      8  C   LIG    1        5.099   1.452  -1.778  0.00  0.00    +0.120 C 
ENDROOT
BRANCH   2   9
ATOM      9  C   LIG    1        5.504   0.488   1.466  0.00  0.00    -0.029 A 
ATOM     10  C   LIG    1        5.037  -0.257   2.562  0.00  0.00    +0.088 A 
ATOM     11  C   LIG    1        5.007   0.314   3.846  0.00  0.00    +0.273 A 
ATOM     12  C   LIG    1        5.428   1.633   4.056  0.00  0.00    +0.084 A 
ATOM     13  C   LIG    1        5.881   2.382   2.973  0.00  0.00    +0.007 A 
ATOM     14  C   LIG    1        5.919   1.817   1.694  0.00  0.00    +0.005 A 
BRANCH  11  15
ATOM     15  N   LIG    1        4.533  -0.484   4.984  0.00  0.00    +0.080 N 
ATOM     16  O   LIG    1        4.162  -1.645   4.758  0.00  0.00    -0.576 OA
ATOM     17  O   LIG    1        4.531   0.049   6.103  0.00  0.00    +0.041 OA
ENDBRANCH  11  15
ENDBRANCH   2   9
BRANCH   1  18
ATOM     18  C   LIG    1        3.130   0.314  -0.785  0.00  0.00    +0.338 C 
ATOM     19  O   LIG    1        2.282   0.801  -1.510  0.00  0.00    -0.245 OA
BRANCH  18  21
ATOM     20  C   LIG    1        1.520  -0.981   0.340  0.00  0.00    +0.280 C 
ATOM     21  O   LIG    1        2.890  -0.599   0.189  0.00  0.00    -0.465 OA
ENDBRANCH  18  21
ENDBRANCH   1  18
BRANCH   3  22
ATOM     22  C   LIG    1        7.870  -1.313  -0.041  0.00  0.00    +0.338 C 
ATOM     23  O   LIG    1        8.990  -1.520  -0.478  0.00  0.00    -0.245 OA
BRANCH  22  24
ATOM     24  O   LIG    1        7.209  -2.127   0.818  0.00  0.00    -0.459 OA
BRANCH  24  25
ATOM     25  C   LIG    1        7.838  -3.379   1.157  0.00  0.00    +0.171 C 
ATOM     26  C   LIG    1        6.917  -4.498   0.687  0.00  0.00    +0.051 C 
ATOM     27  C   LIG    1        8.028  -3.418   2.665  0.00  0.00    +0.051 C 
ENDBRANCH  24  25
ENDBRANCH  22  24
ENDBRANCH   3  22
BRANCH   8  28
ATOM     28  C   LIG    1        4.378   2.365  -2.567  0.00  0.00    +0.115 C 
ATOM     29  N   LIG    1        3.787   3.112  -3.213  0.00  0.00    -0.190 NA
ENDBRANCH   8  28
TORSDOF 8
