REMARK  Name = *****
REMARK                            x       y       z     vdW  Elec       q    Type
REMARK                         _______ _______ _______ _____ _____    ______ ____
ROOT
ATOM      1  N   LIG    1        4.878  -2.510   0.800  0.00  0.00    -0.314 N 
ATOM      2  H   LIG    1        4.253  -3.200   1.214  0.00  0.00    +0.152 HD
ENDROOT
BRANCH   1   7
ATOM      3  C   LIG    1        0.891   0.566   0.835  0.00  0.00    +0.044 C 
ATOM      4  C   LIG    1        2.352   0.272   0.612  0.00  0.00    -0.046 A 
ATOM      5  C   LIG    1        2.923  -0.990   0.929  0.00  0.00    -0.026 A 
ATOM      6  C   LIG    1        2.041  -2.061   1.528  0.00  0.00    +0.046 C 
ATOM      7  C   LIG    1        4.288  -1.232   0.627  0.00  0.00    +0.035 A 
ATOM      8  C   LIG    1        5.044  -0.198   0.046  0.00  0.00    +0.023 A 
ATOM      9  C   LIG    1        4.492   1.052  -0.216  0.00  0.00    +0.002 A 
ATOM     10  C   LIG    1        3.152   1.283   0.060  0.00  0.00    +0.003 A 
ENDBRANCH   1   7
BRANCH   1  11
ATOM     11  C   LIG    1        6.232  -2.848   1.062  0.00  0.00    +0.045 A 
ATOM     12  C   LIG    1        6.759  -4.082   0.625  0.00  0.00    +0.080 A 
ATOM     13  C   LIG    1        8.096  -4.420   0.892  0.00  0.00    +0.017 A 
ATOM     14  C   LIG    1        8.922  -3.533   1.579  0.00  0.00    +0.001 A 
ATOM     15  C   LIG    1        8.412  -2.317   2.023  0.00  0.00    +0.002 A 
ATOM     16  C   LIG    1        7.077  -1.984   1.777  0.00  0.00    +0.024 A 
BRANCH  12  17
ATOM     17  C   LIG    1        5.963  -5.075  -0.144  0.00  0.00    +0.339 C 
ATOM     18  O   LIG    1        6.167  -6.274  -0.085  0.00  0.00    -0.245 OA
BRANCH  17  19
ATOM     19  O   LIG    1        5.030  -4.525  -0.953  0.00  0.00    -0.477 OA
ATOM     20  H   LIG    1        4.995  -3.545  -0.893  0.00  0.00    +0.295 HD
ENDBRANCH  17  19
ENDBRANCH  12  17
ENDBRANCH   1  11
TORSDOF 4
