REMARK  Name = *****
REMARK                            x       y       z     vdW  Elec       q    Type
REMARK                         _______ _______ _______ _____ _____    ______ ____
ROOT
ATOM      1  C   LIG    1        3.043  -0.898  -1.025  0.00  0.00    +0.212 C 
ENDROOT
BRANCH   1   2
ATOM      2  S   LIG    1        4.806  -1.140  -0.890  0.00  0.00    +0.081 S 
ATOM      3  O   LIG    1        5.088  -2.106   0.146  0.00  0.00    -0.147 OA
ATOM      4  O   LIG    1        5.487   0.131  -0.976  0.00  0.00    -0.147 OA
BRANCH   2   5
ATOM      5  O   LIG    1        5.043  -1.855  -2.318  0.00  0.00    -0.254 OA
ATOM      6  H   LIG    1        5.665  -1.297  -2.835  0.00  0.00    +0.244 HD
ENDBRANCH   2   5
ENDBRANCH   1   2
BRANCH   1   7
ATOM      7  C   LIG    1        2.535  -0.111   0.171  0.00  0.00    +0.103 C 
BRANCH   7   8
ATOM      8  N   LIG    1        1.088   0.100   0.083  0.00  0.00    -0.328 NA
ATOM      9  H   LIG    1        0.599  -0.792   0.168  0.00  0.00    +0.118 HD
ATOM     10  H   LIG    1        0.781   0.659   0.880  0.00  0.00    +0.118 HD
ENDBRANCH   7   8
ENDBRANCH   1   7
TORSDOF 4
