REMARK  Name = *****
REMARK                            x       y       z     vdW  Elec       q    Type
REMARK                         _______ _______ _______ _____ _____    ______ ____
ROOT
ATOM      1  C   LIG    1      -15.071   4.993   4.296  0.00  0.00    +0.183 C 
ATOM      2  C   LIG    1      -15.316   6.503   4.633  0.00  0.00    +0.008 C 
ATOM      3  C   LIG    1      -15.780   7.262   3.357  0.00  0.00    +0.015 C 
ATOM      4  C   LIG    1      -13.902   7.037   5.031  0.00  0.00    +0.002 C 
ATOM      5  C   LIG    1      -13.725   7.794   6.366  0.00  0.00    -0.003 C 
ATOM      6  C   LIG    1      -15.028   8.283   7.018  0.00  0.00    -0.000 C 
ATOM      7  C   LIG    1      -15.996   7.094   7.067  0.00  0.00    +0.005 C 
ATOM      8  C   LIG    1      -15.625   9.582   6.394  0.00  0.00    +0.019 C 
ATOM      9  C   LIG    1      -14.555  10.630   6.130  0.00  0.00    -0.063 C 
ATOM     10  C   LIG    1      -14.714  11.939   6.393  0.00  0.00    +0.045 C 
ATOM     11  C   LIG    1      -16.008  12.474   6.872  0.00  0.00    +0.156 C 
ATOM     12  O   LIG    1      -16.110  13.670   7.131  0.00  0.00    -0.293 OA
ATOM     13  C   LIG    1      -17.186  11.534   6.912  0.00  0.00    +0.079 C 
ATOM     14  C   LIG    1      -13.283  10.140   5.489  0.00  0.00    +0.031 C 
ATOM     15  C   LIG    1      -16.741  10.135   7.308  0.00  0.00    +0.016 C 
ATOM     16  C   LIG    1      -12.710   8.940   6.233  0.00  0.00    +0.008 C 
ATOM     17  C   LIG    1      -12.968   5.810   4.978  0.00  0.00    +0.008 C 
ATOM     18  C   LIG    1      -16.445   6.641   5.686  0.00  0.00    +0.011 C 
ATOM     19  C   LIG    1      -13.594   4.909   3.933  0.00  0.00    +0.045 C 
ENDROOT
BRANCH   1  20
ATOM     20  O   LIG    1      -15.957   4.580   3.257  0.00  0.00    -0.461 OA
BRANCH  20  21
ATOM     21  C   LIG    1      -16.012   3.260   2.964  0.00  0.00    +0.307 C 
ATOM     22  O   LIG    1      -15.233   2.400   3.363  0.00  0.00    -0.251 OA
BRANCH  21  23
ATOM     23  C   LIG    1      -17.269   2.982   2.180  0.00  0.00    +0.120 C 
BRANCH  23  24
ATOM     24  C   LIG    1      -18.428   2.760   3.148  0.00  0.00    +0.011 C 
BRANCH  24  25
ATOM     25  C   LIG    1      -19.742   2.497   2.412  0.00  0.00    +0.000 C 
BRANCH  25  26
ATOM     26  C   LIG    1      -20.904   2.268   3.384  0.00  0.00    +0.000 C 
BRANCH  26  27
ATOM     27  C   LIG    1      -22.210   1.960   2.643  0.00  0.00    -0.000 C 
BRANCH  27  28
ATOM     28  C   LIG    1      -23.407   1.730   3.574  0.00  0.00    -0.000 C 
BRANCH  28  29
ATOM     29  C   LIG    1      -23.750   2.936   4.456  0.00  0.00    -0.000 C 
BRANCH  29  31
ATOM     30  C   LIG    1      -24.722   1.562   6.360  0.00  0.00    +0.004 C 
ATOM     31  C   LIG    1      -24.954   2.697   5.373  0.00  0.00    -0.003 C 
ENDBRANCH  29  31
ENDBRANCH  28  29
ENDBRANCH  27  28
ENDBRANCH  26  27
ENDBRANCH  25  26
ENDBRANCH  24  25
ENDBRANCH  23  24
ENDBRANCH  21  23
ENDBRANCH  20  21
ENDBRANCH   1  20
TORSDOF 10
