REMARK  Name = *****
REMARK                            x       y       z     vdW  Elec       q    Type
REMARK                         _______ _______ _______ _____ _____    ______ ____
ROOT
ATOM      1  C   LIG    1        1.190  -0.148   0.987  0.00  0.00    +0.141 C 
ATOM      2  N   LIG    1        2.407  -0.162   0.211  0.00  0.00    -0.245 N 
ATOM      3  C   LIG    1        2.909   0.947  -0.408  0.00  0.00    +0.229 C 
ATOM      4  O   LIG    1        2.408   2.062  -0.398  0.00  0.00    -0.275 OA
ATOM      5  C   LIG    1        4.203   0.576  -1.097  0.00  0.00    +0.114 C 
ATOM      6  C   LIG    1        4.412  -0.893  -0.738  0.00  0.00    +0.114 C 
ATOM      7  C   LIG    1        3.226  -1.245   0.108  0.00  0.00    +0.223 C 
ATOM      8  O   LIG    1        3.058  -2.338   0.629  0.00  0.00    -0.275 OA
ENDROOT
BRANCH   5   9
ATOM      9  C   LIG    1        4.217   0.803  -2.594  0.00  0.00    -0.035 A 
ATOM     10  C   LIG    1        5.415   1.186  -3.218  0.00  0.00    +0.004 A 
ATOM     11  C   LIG    1        5.473   1.366  -4.601  0.00  0.00    +0.000 A 
ATOM     12  C   LIG    1        4.338   1.161  -5.380  0.00  0.00    +0.000 A 
ATOM     13  C   LIG    1        3.144   0.773  -4.777  0.00  0.00    +0.000 A 
ATOM     14  C   LIG    1        3.083   0.589  -3.394  0.00  0.00    +0.004 A 
ENDBRANCH   5   9
TORSDOF 1
