REMARK  Name = *****
REMARK                            x       y       z     vdW  Elec       q    Type
REMARK                         _______ _______ _______ _____ _____    ______ ____
ROOT
ATOM      1  C   LIG    1        9.851   0.385   3.068  0.00  0.00    -0.002 C 
ATOM      2  C   LIG    1        9.736  -0.951   3.451  0.00  0.00    -0.016 C 
ATOM      3  C   LIG    1        8.592  -1.876   3.206  0.00  0.00    +0.015 C 
ATOM      4  C   LIG    1        8.837  -3.157   2.839  0.00  0.00    +0.078 C 
ATOM      5  C   LIG    1       10.282  -3.524   2.627  0.00  0.00    +0.203 C 
ATOM      6  N   LIG    1       10.722  -4.269   1.652  0.00  0.00    -0.229 N 
ATOM      7  C   LIG    1       11.135  -2.928   3.708  0.00  0.00    +0.078 C 
ATOM      8  C   LIG    1       10.783  -1.708   4.159  0.00  0.00    +0.015 C 
ENDROOT
BRANCH   1  12
ATOM      9  C   LIG    1        6.180   1.980   1.080  0.00  0.00    +0.030 A 
ATOM     10  C   LIG    1        7.226   1.388   0.352  0.00  0.00    +0.024 A 
ATOM     11  C   LIG    1        8.411   0.871   0.957  0.00  0.00    +0.010 A 
ATOM     12  C   LIG    1        8.627   0.944   2.344  0.00  0.00    -0.017 A 
ATOM     13  C   LIG    1        7.555   1.444   3.082  0.00  0.00    +0.010 A 
ATOM     14  C   LIG    1        6.351   1.869   2.464  0.00  0.00    +0.024 A 
BRANCH   9  15
ATOM     15  N   LIG    1        5.104   2.630   0.471  0.00  0.00    -0.330 N 
BRANCH  15  17
ATOM     16  C   LIG    1        4.145   4.131   2.336  0.00  0.00    +0.024 C 
ATOM     17  C   LIG    1        3.910   3.143   1.193  0.00  0.00    +0.102 C 
ENDBRANCH  15  17
BRANCH  15  18
ATOM     18  C   LIG    1        5.204   3.050  -0.951  0.00  0.00    +0.102 C 
ATOM     19  C   LIG    1        4.427   2.143  -1.904  0.00  0.00    +0.024 C 
ENDBRANCH  15  18
ENDBRANCH   9  15
ENDBRANCH   1  12
BRANCH   1  20
ATOM     20  C   LIG    1       11.216   1.223   3.248  0.00  0.00    +0.012 A 
ATOM     21  C   LIG    1       11.492   2.617   3.460  0.00  0.00    +0.125 A 
ATOM     22  C   LIG    1       12.844   3.122   3.492  0.00  0.00    +0.032 A 
ATOM     23  C   LIG    1       13.961   2.318   3.365  0.00  0.00    +0.031 A 
ATOM     24  C   LIG    1       13.740   0.977   3.199  0.00  0.00    +0.117 A 
ATOM     25  C   LIG    1       12.422   0.461   3.115  0.00  0.00    +0.040 A 
BRANCH  21  26
ATOM     26  S   LIG    1       10.364   3.972   3.816  0.00  0.00    +0.110 S 
ATOM     27  O   LIG    1        9.343   4.003   2.769  0.00  0.00    -0.142 OA
ATOM     28  O   LIG    1       11.093   5.186   4.123  0.00  0.00    -0.142 OA
BRANCH  26  29
ATOM     29  O   LIG    1        9.634   3.598   5.199  0.00  0.00    -0.250 OA
ATOM     30  H   LIG    1        9.426   4.465   5.630  0.00  0.00    +0.245 HD
ENDBRANCH  26  29
ENDBRANCH  21  26
BRANCH  24  31
ATOM     31  S   LIG    1       15.129  -0.118   3.069  0.00  0.00    +0.110 S 
ATOM     32  O   LIG    1       14.810  -1.108   2.072  0.00  0.00    -0.142 OA
ATOM     33  O   LIG    1       15.497  -0.502   4.417  0.00  0.00    -0.142 OA
BRANCH  31  34
ATOM     34  O   LIG    1       16.339   0.776   2.483  0.00  0.00    -0.250 OA
ATOM     35  H   LIG    1       17.178   0.277   2.562  0.00  0.00    +0.245 HD
ENDBRANCH  31  34
ENDBRANCH  24  31
ENDBRANCH   1  20
BRANCH   6  36
ATOM     36  C   LIG    1       12.162  -4.139   1.196  0.00  0.00    +0.347 C 
ATOM     37  C   LIG    1       13.098  -5.083   1.921  0.00  0.00    +0.082 C 
ENDBRANCH   6  36
BRANCH   6  38
ATOM     38  C   LIG    1        9.734  -5.062   0.811  0.00  0.00    +0.347 C 
ATOM     39  C   LIG    1       10.321  -5.904  -0.306  0.00  0.00    +0.082 C 
ENDBRANCH   6  38
TORSDOF 11
