REMARK  Name = *****
REMARK                            x       y       z     vdW  Elec       q    Type
REMARK                         _______ _______ _______ _____ _____    ______ ____
ROOT
ATOM      1  C   UNK A  0       10.734  -2.638  -0.594  0.00  0.00    +0.069 A 
ATOM      2  S   UNK A  0       11.486  -1.300  -1.381  0.00  0.00    -0.069 S 
ATOM      3  C   UNK A  0       13.054  -1.933  -1.199  0.00  0.00    +0.076 A 
ATOM      4  C   UNK A  0       13.029  -3.159  -0.573  0.00  0.00    +0.022 A 
ATOM      5  C   UNK A  0       11.697  -3.581  -0.276  0.00  0.00    +0.032 A 
ENDROOT
BRANCH   3   6
ATOM      6  C   UNK A  0       14.198  -1.176  -1.654  0.00  0.00    +0.251 C 
ATOM      7  N   GLU A  1       14.024  -0.471  -2.823  0.00  0.00    -0.298 N 
ATOM      8  H   GLU A  1       13.084  -0.429  -3.198  0.00  0.00    +0.150 HD
ATOM      9  O   UNK A  0       15.277  -1.117  -1.058  0.00  0.00    -0.270 OA
BRANCH   7  10
ATOM     10  CA  GLU A  1       15.103   0.284  -3.462  0.00  0.00    +0.182 C 
BRANCH  10  11
ATOM     11  C   GLU A  1       15.310   1.661  -2.800  0.00  0.00    +0.325 C 
ATOM     12  O   GLU A  1       15.284   2.728  -3.396  0.00  0.00    -0.249 OA
BRANCH  11  13
ATOM     13  OXT GLU A  1       15.603   1.580  -1.479  0.00  0.00    -0.479 OA
ATOM     14  HXT GLU A  1       15.658   0.652  -1.143  0.00  0.00    +0.295 HD
ENDBRANCH  11  13
ENDBRANCH  10  11
BRANCH  10  15
ATOM     15  CB  GLU A  1       14.954   0.343  -4.991  0.00  0.00    +0.045 C 
BRANCH  15  16
ATOM     16  CG  GLU A  1       13.637   0.930  -5.516  0.00  0.00    +0.123 C 
BRANCH  16  17
ATOM     17  CD  GLU A  1       13.590   0.916  -7.026  0.00  0.00    +0.305 C 
ATOM     18  OE1 GLU A  1       14.446   0.512  -7.788  0.00  0.00    -0.251 OA
BRANCH  17  19
ATOM     19  OE2 GLU A  1       12.420   1.396  -7.491  0.00  0.00    -0.481 OA
ATOM     20  HE2 GLU A  1       12.498   1.333  -8.466  0.00  0.00    +0.295 HD
ENDBRANCH  17  19
ENDBRANCH  16  17
ENDBRANCH  15  16
ENDBRANCH  10  15
ENDBRANCH   7  10
ENDBRANCH   3   6
BRANCH   1  21
ATOM     21  N   UNK A  0        9.381  -2.705  -0.357  0.00  0.00    -0.323 N 
ATOM     22  C   UNK A  0        8.821  -3.900   0.274  0.00  0.00    +0.130 C 
BRANCH  21  23
ATOM     23  C   UNK A  0        8.569  -1.479  -0.308  0.00  0.00    +0.140 C 
BRANCH  23  31
ATOM     24  C   UNK A  0       10.088   2.503   6.444  0.00  0.00    +0.086 C 
ATOM     25  C   UNK A  0        9.797   1.555   5.305  0.00  0.00    +0.108 A 
ATOM     26  N   UNK A  0        9.843   2.064   4.031  0.00  0.00    -0.343 N 
ATOM     27  H   UNK A  0       10.048   3.040   3.864  0.00  0.00    +0.167 HD
ATOM     28  C   UNK A  0        9.581   1.225   2.949  0.00  0.00    +0.053 A 
ATOM     29  C   UNK A  0        9.263  -0.113   3.197  0.00  0.00    +0.065 A 
ATOM     30  C   UNK A  0        8.948  -0.993   2.156  0.00  0.00    +0.020 A 
ATOM     31  C   UNK A  0        8.961  -0.548   0.829  0.00  0.00    -0.029 A 
ATOM     32  C   UNK A  0        9.317   0.789   0.578  0.00  0.00    +0.007 A 
ATOM     33  C   UNK A  0        9.248  -0.569   4.610  0.00  0.00    +0.281 A 
ATOM     34  O   UNK A  0        8.973  -1.741   4.837  0.00  0.00    -0.265 OA
ATOM     35  C   UNK A  0        9.621   1.669   1.627  0.00  0.00    +0.026 A 
ATOM     36  N   UNK A  0        9.525   0.329   5.616  0.00  0.00    -0.196 NA
ENDBRANCH  23  31
ENDBRANCH  21  23
ENDBRANCH   1  21
TORSDOF 11
