REMARK  Name = *****
REMARK                            x       y       z     vdW  Elec       q    Type
REMARK                         _______ _______ _______ _____ _____    ______ ____
ROOT
ATOM      1  C   LIG    1        4.539  -0.253   0.913  0.00  0.00    +0.117 C 
ENDROOT
BRANCH   1   2
ATOM      2  N   LIG    1        3.927  -0.180  -0.439  0.00  0.00    -0.310 NA
ATOM      3  H   LIG    1        4.613   0.291  -1.041  0.00  0.00    +0.122 HD
BRANCH   2   5
ATOM      4  C   LIG    1        1.557  -0.066   0.366  0.00  0.00    +0.024 C 
ATOM      5  C   LIG    1        2.659   0.583  -0.497  0.00  0.00    +0.055 C 
BRANCH   5   6
ATOM      6  C   LIG    1        2.127   0.713  -1.962  0.00  0.00    +0.053 C 
BRANCH   6   7
ATOM      7  C   LIG    1        2.966   1.542  -2.920  0.00  0.00    -0.046 A 
ATOM      8  C   LIG    1        3.937   0.930  -3.733  0.00  0.00    +0.007 A 
ATOM      9  C   LIG    1        4.728   1.701  -4.594  0.00  0.00    +0.045 A 
ATOM     10  C   LIG    1        4.556   3.072  -4.656  0.00  0.00    +0.117 A 
ATOM     11  C   LIG    1        3.569   3.697  -3.897  0.00  0.00    +0.045 A 
ATOM     12  C   LIG    1        2.778   2.925  -3.034  0.00  0.00    +0.007 A 
BRANCH  10  13
ATOM     13  O   LIG    1        5.384   3.787  -5.476  0.00  0.00    -0.507 OA
ATOM     14  H   LIG    1        5.226   4.730  -5.333  0.00  0.00    +0.292 HD
ENDBRANCH  10  13
ENDBRANCH   6   7
ENDBRANCH   5   6
ENDBRANCH   2   5
ENDBRANCH   1   2
BRANCH   1  15
ATOM     15  C   LIG    1        5.932  -0.960   0.914  0.00  0.00    +0.158 C 
BRANCH  15  16
ATOM     16  C   LIG    1        6.534  -1.161   2.302  0.00  0.00    -0.011 A 
ATOM     17  C   LIG    1        6.731  -0.081   3.180  0.00  0.00    +0.051 A 
ATOM     18  C   LIG    1        7.275  -0.286   4.448  0.00  0.00    +0.121 A 
ATOM     19  C   LIG    1        7.652  -1.554   4.872  0.00  0.00    +0.090 A 
ATOM     20  C   LIG    1        7.492  -2.622   3.997  0.00  0.00    +0.121 A 
ATOM     21  C   LIG    1        6.947  -2.440   2.724  0.00  0.00    +0.051 A 
BRANCH  18  22
ATOM     22  O   LIG    1        7.428   0.800   5.261  0.00  0.00    -0.507 OA
ATOM     23  H   LIG    1        7.786   0.501   6.113  0.00  0.00    +0.292 HD
ENDBRANCH  18  22
BRANCH  20  24
ATOM     24  O   LIG    1        7.893  -3.851   4.437  0.00  0.00    -0.507 OA
ATOM     25  H   LIG    1        7.757  -4.501   3.727  0.00  0.00    +0.292 HD
ENDBRANCH  20  24
ENDBRANCH  15  16
BRANCH  15  26
ATOM     26  O   LIG    1        6.843  -0.210   0.100  0.00  0.00    -0.386 OA
ATOM     27  H   LIG    1        7.676  -0.112   0.592  0.00  0.00    +0.210 HD
ENDBRANCH  15  26
ENDBRANCH   1  15
TORSDOF 10
