REMARK  Name = *****
REMARK                            x       y       z     vdW  Elec       q    Type
REMARK                         _______ _______ _______ _____ _____    ______ ____
ROOT
ATOM      1  C   LIG    1        5.732  -5.805   5.918  0.00  0.00    +0.136 A 
ATOM      2  C   LIG    1        6.277  -5.804   7.196  0.00  0.00    +0.094 A 
ATOM      3  C   LIG    1        6.850  -6.990   7.592  0.00  0.00    +0.131 A 
ATOM      4  N   LIG    1        6.856  -8.110   6.835  0.00  0.00    -0.222 NA
ATOM      5  C   LIG    1        6.281  -8.053   5.628  0.00  0.00    +0.220 A 
ATOM      6  N   LIG    1        5.715  -6.923   5.163  0.00  0.00    -0.199 NA
ENDROOT
BRANCH   5   7
ATOM      7  N   LIG    1        6.248  -9.197   4.829  0.00  0.00    -0.294 N 
ATOM      8  C   LIG    1        6.143  -8.935   3.372  0.00  0.00    +0.102 C 
ATOM      9  C   LIG    1        7.302  -9.728   2.744  0.00  0.00    +0.026 C 
ATOM     10  C   LIG    1        8.252 -10.001   3.897  0.00  0.00    +0.021 C 
ATOM     11  C   LIG    1        7.311 -10.176   5.079  0.00  0.00    +0.108 C 
BRANCH   8  12
ATOM     12  C   LIG    1        4.774  -9.399   2.846  0.00  0.00    +0.178 C 
BRANCH  12  13
ATOM     13  O   LIG    1        4.550 -10.782   3.128  0.00  0.00    -0.393 OA
ATOM     14  H   LIG    1        4.711 -10.869   4.088  0.00  0.00    +0.209 HD
ENDBRANCH  12  13
ENDBRANCH   8  12
ENDBRANCH   5   7
BRANCH   1  15
ATOM     15  N   LIG    1        5.135  -4.626   5.391  0.00  0.00    -0.324 N 
ATOM     16  H   LIG    1        5.846  -3.891   5.378  0.00  0.00    +0.148 HD
BRANCH  15  17
ATOM     17  C   LIG    1        4.559  -4.802   4.049  0.00  0.00    +0.138 C 
BRANCH  17  22
ATOM     18  C   LIG    1        2.706  -1.044   2.918  0.00  0.00    +0.138 A 
ATOM     19  C   LIG    1        1.930  -2.198   3.084  0.00  0.00    +0.083 A 
ATOM     20 CL   LIG    1        0.210  -2.164   2.910  0.00  0.00    -0.080 Cl
ATOM     21  C   LIG    1        2.533  -3.416   3.421  0.00  0.00    +0.028 A 
ATOM     22  C   LIG    1        3.924  -3.506   3.588  0.00  0.00    -0.029 A 
ATOM     23  C   LIG    1        4.701  -2.373   3.311  0.00  0.00    +0.009 A 
ATOM     24  C   LIG    1        4.097  -1.158   2.966  0.00  0.00    +0.047 A 
BRANCH  18  26
ATOM     25  C   LIG    1        2.673   1.321   3.193  0.00  0.00    +0.277 C 
ATOM     26  O   LIG    1        2.061   0.140   2.676  0.00  0.00    -0.494 OA
ENDBRANCH  18  26
ENDBRANCH  17  22
ENDBRANCH  15  17
ENDBRANCH   1  15
BRANCH   2  27
ATOM     27  C   LIG    1        6.178  -4.698   8.176  0.00  0.00    +0.220 C 
ATOM     28  N   LIG    1        6.923  -4.593   9.210  0.00  0.00    -0.242 NA
BRANCH  27  29
ATOM     29  O   LIG    1        5.163  -3.836   7.934  0.00  0.00    -0.492 OA
ATOM     30  H   LIG    1        4.655  -4.055   7.123  0.00  0.00    +0.294 HD
ENDBRANCH  27  29
BRANCH  28  31
ATOM     31  C   LIG    1        6.595  -3.489  10.149  0.00  0.00    +0.221 C 
BRANCH  31  32
ATOM     32  C   LIG    1        7.769  -2.915  10.932  0.00  0.00    +0.150 A 
ATOM     33  N   LIG    1        8.804  -3.724  11.244  0.00  0.00    -0.238 NA
ATOM     34  C   LIG    1        9.797  -3.181  11.971  0.00  0.00    +0.114 A 
ATOM     35  C   LIG    1        9.796  -1.882  12.416  0.00  0.00    +0.039 A 
ATOM     36  C   LIG    1        8.694  -1.140  12.066  0.00  0.00    +0.114 A 
ATOM     37  N   LIG    1        7.673  -1.626  11.335  0.00  0.00    -0.238 NA
ENDBRANCH  31  32
ENDBRANCH  28  31
ENDBRANCH   2  27
TORSDOF 11
