REMARK  Name = *****
REMARK                            x       y       z     vdW  Elec       q    Type
REMARK                         _______ _______ _______ _____ _____    ______ ____
ROOT
ATOM      1  C   LIG    1        3.652  -0.592  -1.067  0.00  0.00    +0.011 C 
ATOM      2  C   LIG    1        4.911   0.222  -1.356  0.00  0.00    +0.026 C 
ATOM      3  C   LIG    1        4.728   1.761  -1.331  0.00  0.00    +0.133 C 
ATOM      4  C   LIG    1        6.182   2.267  -1.029  0.00  0.00    +0.009 C 
ATOM      5  C   LIG    1        6.669   1.279   0.067  0.00  0.00    +0.003 C 
ATOM      6  C   LIG    1        6.298   1.641   1.538  0.00  0.00    +0.018 C 
ATOM      7  C   LIG    1        6.517   3.137   1.931  0.00  0.00    +0.086 C 
ATOM      8  C   LIG    1        5.844   4.045   0.853  0.00  0.00    +0.137 C 
ATOM      9 CL   LIG    1        8.326   3.502   1.849  0.00  0.00    -0.114 Cl
ATOM     10  C   LIG    1        6.006   3.406   3.437  0.00  0.00    +0.029 C 
ATOM     11  C   LIG    1        6.572   2.342   4.431  0.00  0.00    -0.054 C 
ATOM     12  C   LIG    1        6.229   2.463   5.737  0.00  0.00    +0.051 C 
ATOM     13  C   LIG    1        4.724   2.431   5.901  0.00  0.00    +0.179 C 
ATOM     14  C   LIG    1        3.898   2.856   4.729  0.00  0.00    +0.047 C 
ATOM     15  O   LIG    1        4.207   2.135   6.970  0.00  0.00    -0.288 OA
ATOM     16  C   LIG    1        6.595   0.902   3.941  0.00  0.00    +0.032 C 
ATOM     17  C   LIG    1        6.384   4.836   3.930  0.00  0.00    +0.022 C 
ATOM     18  C   LIG    1        4.477   3.320   3.605  0.00  0.00    -0.011 C 
ATOM     19  C   LIG    1        7.059   0.713   2.509  0.00  0.00    +0.010 C 
ATOM     20  C   LIG    1        7.109   2.124  -2.270  0.00  0.00    +0.015 C 
ATOM     21  C   LIG    1        6.280   3.733  -0.582  0.00  0.00    +0.043 C 
ATOM     22  C   LIG    1        6.032  -0.075  -0.342  0.00  0.00    +0.011 C 
ENDROOT
BRANCH   3  23
ATOM     23  O   LIG    1        3.874   2.118  -0.247  0.00  0.00    -0.380 OA
ATOM     24  H   LIG    1        2.985   1.750  -0.416  0.00  0.00    +0.211 HD
ENDBRANCH   3  23
BRANCH   3  25
ATOM     25  C   LIG    1        4.168   2.289  -2.680  0.00  0.00    +0.180 C 
ATOM     26  O   LIG    1        4.450   1.758  -3.758  0.00  0.00    -0.293 OA
BRANCH  25  27
ATOM     27  C   LIG    1        3.245   3.485  -2.636  0.00  0.00    +0.186 C 
ATOM     28 CL   LIG    1        1.598   2.909  -2.309  0.00  0.00    -0.117 Cl
ENDBRANCH  25  27
ENDBRANCH   3  25
BRANCH   8  29
ATOM     29  O   LIG    1        6.119   5.437   1.049  0.00  0.00    -0.390 OA
ATOM     30  H   LIG    1        7.090   5.536   1.093  0.00  0.00    +0.210 HD
ENDBRANCH   8  29
TORSDOF 4
