REMARK  Name = *****
REMARK                            x       y       z     vdW  Elec       q    Type
REMARK                         _______ _______ _______ _____ _____    ______ ____
ROOT
ATOM      1  C   LIG    1        5.023   1.746   2.704  0.00  0.00    +0.165 C 
ATOM      2  C   LIG    1        4.805   3.231   2.799  0.00  0.00    +0.249 C 
ATOM      3  O   LIG    1        5.022   4.016   1.882  0.00  0.00    -0.273 OA
ATOM      4  N   LIG    1        4.455   3.506   4.131  0.00  0.00    -0.180 N 
ATOM      5  N   LIG    1        4.312   2.294   4.854  0.00  0.00    -0.180 N 
ATOM      6  C   LIG    1        4.832   1.233   4.106  0.00  0.00    +0.249 C 
ATOM      7  O   LIG    1        5.044   0.071   4.441  0.00  0.00    -0.273 OA
ENDROOT
BRANCH   4   8
ATOM      8  C   LIG    1        4.994   4.674   4.746  0.00  0.00    +0.057 A 
ATOM      9  C   LIG    1        5.696   4.591   5.957  0.00  0.00    +0.029 A 
ATOM     10  C   LIG    1        6.214   5.742   6.553  0.00  0.00    +0.047 A 
ATOM     11  C   LIG    1        6.006   6.978   5.956  0.00  0.00    +0.117 A 
ATOM     12  C   LIG    1        5.310   7.084   4.757  0.00  0.00    +0.047 A 
ATOM     13  C   LIG    1        4.816   5.928   4.147  0.00  0.00    +0.029 A 
BRANCH  11  14
ATOM     14  O   LIG    1        6.500   8.079   6.590  0.00  0.00    -0.507 OA
ATOM     15  H   LIG    1        6.251   8.867   6.081  0.00  0.00    +0.292 HD
ENDBRANCH  11  14
ENDBRANCH   4   8
BRANCH   5  16
ATOM     16  C   LIG    1        3.285   2.127   5.844  0.00  0.00    +0.057 A 
ATOM     17  C   LIG    1        2.450   3.197   6.213  0.00  0.00    +0.025 A 
ATOM     18  C   LIG    1        1.394   3.023   7.118  0.00  0.00    +0.002 A 
ATOM     19  C   LIG    1        1.147   1.773   7.671  0.00  0.00    +0.000 A 
ATOM     20  C   LIG    1        1.959   0.700   7.322  0.00  0.00    +0.002 A 
ATOM     21  C   LIG    1        3.022   0.879   6.428  0.00  0.00    +0.025 A 
ENDBRANCH   5  16
BRANCH   1  22
ATOM     22  C   LIG    1        4.108   1.067   1.673  0.00  0.00    +0.022 C 
BRANCH  22  23
ATOM     23  C   LIG    1        2.595   1.216   1.931  0.00  0.00    +0.001 C 
BRANCH  23  25
ATOM     24  C   LIG    1        0.249   0.637   1.118  0.00  0.00    +0.004 C 
ATOM     25  C   LIG    1        1.748   0.498   0.868  0.00  0.00    -0.003 C 
ENDBRANCH  23  25
ENDBRANCH  22  23
ENDBRANCH   1  22
TORSDOF 6
