REMARK  Name = *****
REMARK                            x       y       z     vdW  Elec       q    Type
REMARK                         _______ _______ _______ _____ _____    ______ ____
ROOT
ATOM      1  C   LIG    1       -0.222  -0.178   0.323  0.00  0.00    +0.008 C 
ATOM      2  C   LIG    1        1.211   0.325   0.526  0.00  0.00    -0.008 C 
ATOM      3  C   LIG    1        1.827  -0.038   1.895  0.00  0.00    +0.032 C 
ATOM      4  C   LIG    1        2.450  -1.487   2.038  0.00  0.00    +0.161 C 
ATOM      5  C   LIG    1        1.819  -2.459   3.079  0.00  0.00    +0.293 C 
ATOM      6  O   LIG    1        1.771  -1.958   4.404  0.00  0.00    -0.314 OA
ATOM      7  C   LIG    1        2.493  -0.758   4.624  0.00  0.00    +0.203 C 
ATOM      8  O   LIG    1        3.680  -0.497   3.851  0.00  0.00    -0.199 OA
ATOM      9  C   LIG    1        1.531   0.412   4.401  0.00  0.00    +0.068 C 
ATOM     10  C   LIG    1        2.930  -0.769   6.089  0.00  0.00    +0.077 C 
ATOM     11  O   LIG    1        2.506  -3.712   3.207  0.00  0.00    -0.309 OA
ATOM     12  C   LIG    1        2.945  -4.342   2.010  0.00  0.00    +0.316 C 
ATOM     13  C   LIG    1        2.255  -3.741   0.780  0.00  0.00    +0.061 C 
ATOM     14  C   LIG    1        2.490  -4.568  -0.488  0.00  0.00    +0.014 C 
ATOM     15  C   LIG    1        2.711  -2.254   0.671  0.00  0.00    +0.038 C 
ATOM     16  C   LIG    1        2.176  -1.641  -0.627  0.00  0.00    +0.007 C 
ATOM     17  O   LIG    1        3.773  -1.316   2.633  0.00  0.00    -0.220 OA
ATOM     18  C   LIG    1        0.863   0.357   3.030  0.00  0.00    +0.012 C 
ATOM     19  C   LIG    1        2.145  -0.134  -0.586  0.00  0.00    +0.004 C 
ENDROOT
BRANCH  12  20
ATOM     20  O   LIG    1        4.374  -4.189   1.891  0.00  0.00    -0.435 OA
BRANCH  20  21
ATOM     21  C   LIG    1        5.051  -5.273   1.456  0.00  0.00    +0.310 C 
ATOM     22  O   LIG    1        4.548  -6.368   1.235  0.00  0.00    -0.251 OA
BRANCH  21  23
ATOM     23  C   LIG    1        6.509  -4.964   1.200  0.00  0.00    +0.132 C 
BRANCH  23  24
ATOM     24  C   LIG    1        7.268  -6.166   0.633  0.00  0.00    +0.131 C 
BRANCH  24  25
ATOM     25  C   LIG    1        6.839  -6.556  -0.769  0.00  0.00    +0.305 C 
ATOM     26  O   LIG    1        7.568  -6.485  -1.734  0.00  0.00    -0.251 OA
BRANCH  25  27
ATOM     27  O   LIG    1        5.579  -7.029  -0.872  0.00  0.00    -0.481 OA
ATOM     28  H   LIG    1        5.080  -7.077  -0.023  0.00  0.00    +0.295 HD
ENDBRANCH  25  27
ENDBRANCH  24  25
ENDBRANCH  23  24
ENDBRANCH  21  23
ENDBRANCH  20  21
ENDBRANCH  12  20
TORSDOF 6
