REMARK  Name = *****
REMARK                            x       y       z     vdW  Elec       q    Type
REMARK                         _______ _______ _______ _____ _____    ______ ____
ROOT
ATOM      1  C   LIG    1        2.513  -1.983  -0.006  0.00  0.00    -0.015 A 
ATOM      2  C   LIG    1        2.185  -3.325   0.215  0.00  0.00    -0.043 A 
ATOM      3  C   LIG    1        0.856  -3.740   0.783  0.00  0.00    +0.044 C 
ATOM      4  C   LIG    1        3.139  -4.310  -0.086  0.00  0.00    +0.008 A 
ATOM      5  C   LIG    1        4.409  -4.005  -0.628  0.00  0.00    -0.038 A 
ATOM      6  C   LIG    1        5.377  -5.154  -0.947  0.00  0.00    -0.009 C 
ATOM      7  C   LIG    1        6.558  -4.683  -1.825  0.00  0.00    +0.012 C 
ATOM      8  C   LIG    1        7.138  -3.365  -1.340  0.00  0.00    +0.012 C 
ATOM      9  C   LIG    1        6.104  -2.219  -1.405  0.00  0.00    -0.009 C 
ATOM     10  C   LIG    1        5.890  -1.786  -2.873  0.00  0.00    +0.016 C 
ATOM     11  C   LIG    1        6.723  -1.029  -0.635  0.00  0.00    +0.016 C 
ATOM     12  C   LIG    1        5.914  -5.734   0.380  0.00  0.00    +0.016 C 
ATOM     13  C   LIG    1        4.680  -6.292  -1.730  0.00  0.00    +0.016 C 
ATOM     14  C   LIG    1        4.751  -2.648  -0.822  0.00  0.00    -0.037 A 
ATOM     15  C   LIG    1        3.786  -1.663  -0.511  0.00  0.00    +0.013 A 
ENDROOT
BRANCH   1  17
ATOM     16  C   LIG    1        1.661  -0.354   1.520  0.00  0.00    +0.018 C 
ATOM     17  C   LIG    1        1.563  -0.876   0.281  0.00  0.00    -0.018 C 
BRANCH  17  18
ATOM     18  C   LIG    1        0.600  -0.313  -0.710  0.00  0.00    -0.018 A 
ATOM     19  C   LIG    1        0.875  -0.386  -2.086  0.00  0.00    +0.009 A 
ATOM     20  C   LIG    1       -0.010   0.144  -3.033  0.00  0.00    +0.015 A 
ATOM     21  C   LIG    1       -1.203   0.744  -2.621  0.00  0.00    +0.059 A 
ATOM     22  C   LIG    1       -1.497   0.821  -1.257  0.00  0.00    +0.015 A 
ATOM     23  C   LIG    1       -0.611   0.281  -0.317  0.00  0.00    +0.009 A 
BRANCH  21  24
ATOM     24  C   LIG    1       -2.108   1.316  -3.650  0.00  0.00    +0.337 C 
ATOM     25  O   LIG    1       -1.707   1.769  -4.711  0.00  0.00    -0.245 OA
BRANCH  24  26
ATOM     26  O   LIG    1       -3.416   1.257  -3.323  0.00  0.00    -0.477 OA
ATOM     27  H   LIG    1       -3.622   0.732  -2.529  0.00  0.00    +0.295 HD
ENDBRANCH  24  26
ENDBRANCH  21  24
ENDBRANCH  17  18
ENDBRANCH   1  17
TORSDOF 4
