REMARK  Name = *****
REMARK                            x       y       z     vdW  Elec       q    Type
REMARK                         _______ _______ _______ _____ _____    ______ ____
ROOT
ATOM      1  C   LIG    1        3.188  -0.689  -1.013  0.00  0.00    +0.043 C 
ENDROOT
BRANCH   1   2
ATOM      2  C   LIG    1        4.715  -0.654  -1.204  0.00  0.00    -0.043 A 
ATOM      3  C   LIG    1        5.506  -1.754  -0.835  0.00  0.00    +0.005 A 
ATOM      4  C   LIG    1        6.898  -1.718  -0.989  0.00  0.00    +0.020 A 
ATOM      5  C   LIG    1        7.514  -0.583  -1.512  0.00  0.00    +0.041 A 
ATOM      6 CL   LIG    1        9.223  -0.542  -1.710  0.00  0.00    -0.084 Cl
ATOM      7  C   LIG    1        6.750   0.520  -1.877  0.00  0.00    +0.020 A 
ATOM      8  C   LIG    1        5.361   0.484  -1.726  0.00  0.00    +0.005 A 
ENDBRANCH   1   2
BRANCH   1   9
ATOM      9  C   LIG    1        2.813   0.444  -0.024  0.00  0.00    +0.086 C 
BRANCH   9  10
ATOM     10  N   LIG    1        1.387   0.501   0.298  0.00  0.00    -0.329 NA
ATOM     11  H   LIG    1        1.152  -0.298   0.900  0.00  0.00    +0.118 HD
ATOM     12  H   LIG    1        1.211   1.317   0.895  0.00  0.00    +0.118 HD
ENDBRANCH   9  10
ENDBRANCH   1   9
BRANCH   1  13
ATOM     13  C   LIG    1        2.483  -0.616  -2.384  0.00  0.00    +0.129 C 
BRANCH  13  14
ATOM     14  C   LIG    1        0.986  -0.829  -2.450  0.00  0.00    +0.305 C 
ATOM     15  O   LIG    1        0.467  -1.757  -3.069  0.00  0.00    -0.251 OA
BRANCH  14  16
ATOM     16  O   LIG    1        0.235   0.142  -1.907  0.00  0.00    -0.481 OA
ATOM     17  H   LIG    1        0.725   0.610  -1.178  0.00  0.00    +0.295 HD
ENDBRANCH  14  16
ENDBRANCH  13  14
ENDBRANCH   1  13
TORSDOF 6
