REMARK  Name = *****
REMARK                            x       y       z     vdW  Elec       q    Type
REMARK                         _______ _______ _______ _____ _____    ______ ____
ROOT
ATOM      1  C   LIG    1       -3.080  -1.050  -0.542  0.00  0.00    +0.129 C 
ATOM      2  C   LIG    1       -4.375  -1.179  -1.411  0.00  0.00    +0.007 C 
ATOM      3  C   LIG    1       -4.035  -1.068  -2.925  0.00  0.00    +0.014 C 
ATOM      4  C   LIG    1       -5.199   0.077  -0.997  0.00  0.00    +0.002 C 
ATOM      5  C   LIG    1       -6.080  -0.087   0.272  0.00  0.00    -0.003 C 
ATOM      6  C   LIG    1       -6.927  -1.381   0.309  0.00  0.00    +0.002 C 
ATOM      7  C   LIG    1       -6.027  -2.598   0.022  0.00  0.00    +0.005 C 
ATOM      8  C   LIG    1       -8.323  -1.354  -0.436  0.00  0.00    -0.007 C 
ATOM      9  C   LIG    1       -9.186  -2.499   0.182  0.00  0.00    +0.016 C 
ATOM     10  C   LIG    1       -9.035   0.005  -0.278  0.00  0.00    -0.057 C 
ATOM     11  C   LIG    1      -10.334   0.099  -0.638  0.00  0.00    +0.046 C 
ATOM     12  C   LIG    1      -10.420  -0.159  -2.124  0.00  0.00    +0.156 C 
ATOM     13  O   LIG    1      -11.241   0.459  -2.797  0.00  0.00    -0.293 OA
ATOM     14  C   LIG    1       -9.595  -1.307  -2.694  0.00  0.00    +0.080 C 
ATOM     15  C   LIG    1       -8.158   1.249  -0.395  0.00  0.00    +0.013 C 
ATOM     16  C   LIG    1       -8.904   2.562  -0.106  0.00  0.00    +0.012 C 
ATOM     17  C   LIG    1       -8.261  -1.568  -1.969  0.00  0.00    +0.019 C 
ATOM     18  C   LIG    1       -6.971   1.134   0.562  0.00  0.00    +0.012 C 
ATOM     19  C   LIG    1       -4.122   1.167  -0.807  0.00  0.00    +0.007 C 
ATOM     20  C   LIG    1       -5.165  -2.488  -1.229  0.00  0.00    +0.010 C 
ATOM     21  C   LIG    1       -2.785   0.461  -0.560  0.00  0.00    +0.043 C 
ENDROOT
BRANCH   1  23
ATOM     22  C   LIG    1       -1.613  -3.220  -0.466  0.00  0.00    +0.089 C 
ATOM     23  C   LIG    1       -1.872  -1.864  -1.076  0.00  0.00    +0.162 C 
ATOM     24  O   LIG    1       -1.117  -1.429  -1.949  0.00  0.00    -0.295 OA
ENDBRANCH   1  23
BRANCH   1  25
ATOM     25  O   LIG    1       -3.334  -1.424   0.813  0.00  0.00    -0.381 OA
ATOM     26  H   LIG    1       -2.607  -1.087   1.366  0.00  0.00    +0.211 HD
ENDBRANCH   1  25
TORSDOF 2
