REMARK  Name = *****
REMARK                            x       y       z     vdW  Elec       q    Type
REMARK                         _______ _______ _______ _____ _____    ______ ____
ROOT
ATOM      1  C   LIG    1       12.872   4.918   0.048  0.00  0.00    +0.168 A 
ATOM      2  N   LIG    1       13.225   6.202   0.102  0.00  0.00    -0.208 NA
ATOM      3  C   LIG    1       14.541   6.412   0.025  0.00  0.00    +0.168 A 
ATOM      4  N   LIG    1       15.462   5.464  -0.118  0.00  0.00    -0.208 NA
ATOM      5  C   LIG    1       15.002   4.216  -0.144  0.00  0.00    +0.164 A 
ATOM      6  N   LIG    1       13.716   3.894  -0.059  0.00  0.00    -0.208 NA
ENDROOT
BRANCH   5   7
ATOM      7  C   LIG    1       15.979   3.127  -0.272  0.00  0.00    +0.019 A 
ATOM      8  C   LIG    1       15.587   1.778  -0.338  0.00  0.00    +0.015 A 
ATOM      9  C   LIG    1       16.532   0.756  -0.477  0.00  0.00    +0.046 A 
ATOM     10  C   LIG    1       17.890   1.059  -0.563  0.00  0.00    +0.120 A 
ATOM     11  C   LIG    1       18.303   2.382  -0.469  0.00  0.00    +0.046 A 
ATOM     12  C   LIG    1       17.359   3.401  -0.328  0.00  0.00    +0.015 A 
BRANCH  10  13
ATOM     13  O   LIG    1       18.732  -0.012  -0.701  0.00  0.00    -0.495 OA
ATOM     14  C   LIG    1       19.956   0.258  -1.380  0.00  0.00    +0.277 C 
ENDBRANCH  10  13
ENDBRANCH   5   7
BRANCH   3  15
ATOM     15  C   LIG    1       15.007   7.790   0.208  0.00  0.00    +0.061 A 
ATOM     16  C   LIG    1       14.310   8.720   0.998  0.00  0.00    +0.131 A 
ATOM     17  C   LIG    1       14.810   9.997   1.227  0.00  0.00    +0.091 A 
ATOM     18  C   LIG    1       16.018  10.395   0.661  0.00  0.00    +0.124 A 
ATOM     19  C   LIG    1       16.720   9.502  -0.145  0.00  0.00    +0.046 A 
ATOM     20  C   LIG    1       16.217   8.216  -0.375  0.00  0.00    +0.019 A 
BRANCH  16  21
ATOM     21  O   LIG    1       13.122   8.444   1.624  0.00  0.00    -0.506 OA
ATOM     22  H   LIG    1       12.811   7.567   1.341  0.00  0.00    +0.292 HD
ENDBRANCH  16  21
BRANCH  18  23
ATOM     23  O   LIG    1       16.622  11.606   0.869  0.00  0.00    -0.492 OA
BRANCH  23  24
ATOM     24  C   LIG    1       15.735  12.669   1.224  0.00  0.00    +0.232 C 
BRANCH  24  25
ATOM     25  C   LIG    1       16.536  13.941   1.545  0.00  0.00    +0.026 C 
BRANCH  25  26
ATOM     26  C   LIG    1       17.445  14.377   0.379  0.00  0.00    +0.003 C 
ATOM     27  C   LIG    1       16.720  14.724  -0.914  0.00  0.00    +0.004 C 
ENDBRANCH  25  26
BRANCH  25  28
ATOM     28  C   LIG    1       15.552  15.024   2.042  0.00  0.00    +0.007 C 
BRANCH  28  29
ATOM     29  C   LIG    1       16.201  16.360   2.415  0.00  0.00    +0.000 C 
BRANCH  29  30
ATOM     30  C   LIG    1       15.153  17.353   2.926  0.00  0.00    -0.003 C 
ATOM     31  C   LIG    1       15.769  18.687   3.320  0.00  0.00    +0.004 C 
ENDBRANCH  29  30
ENDBRANCH  28  29
ENDBRANCH  25  28
ENDBRANCH  24  25
ENDBRANCH  23  24
ENDBRANCH  18  23
ENDBRANCH   3  15
BRANCH   1  35
ATOM     32  C   LIG    1        8.722   3.868   0.298  0.00  0.00    +0.124 A 
ATOM     33  C   LIG    1        9.084   5.102  -0.249  0.00  0.00    +0.091 A 
ATOM     34  C   LIG    1       10.427   5.470  -0.320  0.00  0.00    +0.131 A 
ATOM     35  C   LIG    1       11.439   4.611   0.136  0.00  0.00    +0.061 A 
ATOM     36  C   LIG    1       11.052   3.378   0.687  0.00  0.00    +0.019 A 
ATOM     37  C   LIG    1        9.714   3.011   0.766  0.00  0.00    +0.046 A 
BRANCH  34  38
ATOM     38  O   LIG    1       10.683   6.699  -0.871  0.00  0.00    -0.506 OA
ATOM     39  H   LIG    1       11.637   6.890  -0.791  0.00  0.00    +0.292 HD
ENDBRANCH  34  38
BRANCH  32  40
ATOM     40  O   LIG    1        7.379   3.600   0.348  0.00  0.00    -0.492 OA
BRANCH  40  41
ATOM     41  C   LIG    1        7.040   2.278   0.758  0.00  0.00    +0.232 C 
BRANCH  41  42
ATOM     42  C   LIG    1        5.534   1.976   0.621  0.00  0.00    +0.026 C 
BRANCH  42  43
ATOM     43  C   LIG    1        5.069   1.958  -0.854  0.00  0.00    +0.003 C 
ATOM     44  C   LIG    1        5.175   3.275  -1.619  0.00  0.00    +0.004 C 
ENDBRANCH  42  43
BRANCH  42  45
ATOM     45  C   LIG    1        5.322   0.600   1.313  0.00  0.00    +0.007 C 
BRANCH  45  46
ATOM     46  C   LIG    1        3.884   0.086   1.384  0.00  0.00    +0.000 C 
BRANCH  46  48
ATOM     47  C   LIG    1        2.420  -1.808   2.215  0.00  0.00    +0.004 C 
ATOM     48  C   LIG    1        3.832  -1.252   2.134  0.00  0.00    -0.003 C 
ENDBRANCH  46  48
ENDBRANCH  45  46
ENDBRANCH  42  45
ENDBRANCH  41  42
ENDBRANCH  40  41
ENDBRANCH  32  40
ENDBRANCH   1  35
TORSDOF 20
