REMARK  Name = *****
REMARK                            x       y       z     vdW  Elec       q    Type
REMARK                         _______ _______ _______ _____ _____    ______ ____
ROOT
ATOM      1  C   LIG    1        1.264   0.024   0.044  0.00  0.00    +0.090 C 
ATOM      2  C   LIG    1        2.727   0.231   0.041  0.00  0.00    +0.142 A 
ATOM      3  C   LIG    1        3.571   1.329   0.058  0.00  0.00    +0.052 A 
ATOM      4  C   LIG    1        4.886   0.753  -0.058  0.00  0.00    +0.121 A 
ATOM      5  N   LIG    1        4.794  -0.590  -0.091  0.00  0.00    -0.077 NA
ATOM      6  O   LIG    1        3.464  -0.903  -0.028  0.00  0.00    -0.359 OA
ENDROOT
BRANCH   3   7
ATOM      7  C   LIG    1        3.083   2.702   0.077  0.00  0.00    -0.012 A 
ATOM      8  C   LIG    1        3.595   3.654  -0.815  0.00  0.00    +0.010 A 
ATOM      9  C   LIG    1        3.091   4.960  -0.834  0.00  0.00    +0.029 A 
ATOM     10  C   LIG    1        2.049   5.313   0.025  0.00  0.00    +0.105 A 
ATOM     11  C   LIG    1        1.535   4.383   0.930  0.00  0.00    +0.029 A 
ATOM     12  C   LIG    1        2.064   3.089   0.964  0.00  0.00    +0.010 A 
BRANCH  10  13
ATOM     13  S   LIG    1        1.328   6.926  -0.011  0.00  0.00    +0.056 S 
ATOM     14  O   LIG    1        1.617   7.580   1.243  0.00  0.00    -0.153 OA
ATOM     15  O   LIG    1       -0.012   6.809  -0.548  0.00  0.00    -0.153 OA
BRANCH  13  16
ATOM     16  N   LIG    1        2.209   7.762  -1.171  0.00  0.00    -0.203 NA
ATOM     17  H   LIG    1        2.685   8.552  -0.733  0.00  0.00    +0.144 HD
ATOM     18  H   LIG    1        1.592   8.028  -1.940  0.00  0.00    +0.144 HD
ENDBRANCH  13  16
ENDBRANCH  10  13
ENDBRANCH   3   7
BRANCH   4  19
ATOM     19  C   LIG    1        6.216   1.372  -0.147  0.00  0.00    +0.004 A 
ATOM     20  C   LIG    1        7.243   0.707  -0.843  0.00  0.00    +0.010 A 
ATOM     21  C   LIG    1        8.528   1.248  -0.928  0.00  0.00    +0.001 A 
ATOM     22  C   LIG    1        8.805   2.471  -0.325  0.00  0.00    +0.000 A 
ATOM     23  C   LIG    1        7.801   3.144   0.369  0.00  0.00    +0.001 A 
ATOM     24  C   LIG    1        6.517   2.594   0.467  0.00  0.00    +0.010 A 
ENDBRANCH   4  19
TORSDOF 4
