REMARK  Name = *****
REMARK                            x       y       z     vdW  Elec       q    Type
REMARK                         _______ _______ _______ _____ _____    ______ ____
ROOT
ATOM      1  N   LIG    1        6.838   3.418  -0.047  0.00  0.00    -0.299 NA
ATOM      2  C   LIG    1        7.907   2.433  -0.359  0.00  0.00    +0.103 C 
ATOM      3  C   LIG    1        7.927   1.899  -1.818  0.00  0.00    +0.120 C 
ATOM      4  N   LIG    1        7.955   3.017  -2.792  0.00  0.00    -0.327 N 
ATOM      5  C   LIG    1        6.926   4.049  -2.527  0.00  0.00    +0.120 C 
ATOM      6  C   LIG    1        6.947   4.506  -1.048  0.00  0.00    +0.103 C 
ENDROOT
BRANCH   4   7
ATOM      7  C   LIG    1        8.119   2.601  -4.128  0.00  0.00    +0.031 A 
ATOM      8  C   LIG    1        9.355   2.078  -4.547  0.00  0.00    +0.043 A 
ATOM      9  C   LIG    1        9.567   1.697  -5.878  0.00  0.00    +0.043 A 
ATOM     10 CL   LIG    1       11.103   1.087  -6.367  0.00  0.00    -0.084 Cl
ATOM     11  C   LIG    1        8.551   1.812  -6.821  0.00  0.00    +0.020 A 
ATOM     12  C   LIG    1        7.316   2.312  -6.426  0.00  0.00    +0.003 A 
ATOM     13  C   LIG    1        7.109   2.706  -5.098  0.00  0.00    +0.023 A 
ENDBRANCH   4   7
BRANCH   1  14
ATOM     14  C   LIG    1        5.500   2.786  -0.034  0.00  0.00    +0.090 C 
BRANCH  14  15
ATOM     15  C   LIG    1        4.366   3.745   0.375  0.00  0.00    +0.072 C 
BRANCH  15  21
ATOM     16  C   LIG    1        0.064   1.273   1.595  0.00  0.00    +0.065 C 
ATOM     17  C   LIG    1        1.192   2.001   0.973  0.00  0.00    +0.033 A 
ATOM     18  N   LIG    1        1.185   2.359  -0.352  0.00  0.00    -0.282 N 
ATOM     19  H   LIG    1        0.467   2.199  -1.042  0.00  0.00    +0.189 HD
ATOM     20  N   LIG    1        2.302   3.002  -0.730  0.00  0.00    -0.179 NA
ATOM     21  C   LIG    1        3.038   3.070   0.386  0.00  0.00    +0.064 A 
ATOM     22  C   LIG    1        2.383   2.453   1.477  0.00  0.00    +0.047 A 
ENDBRANCH  15  21
ENDBRANCH  14  15
ENDBRANCH   1  14
TORSDOF 4
