REMARK  Name = *****
REMARK                            x       y       z     vdW  Elec       q    Type
REMARK                         _______ _______ _______ _____ _____    ______ ____
ROOT
ATOM      1  C   LIG    1       10.306   5.007  -0.204  0.00  0.00    +0.019 C 
ENDROOT
BRANCH   1   2
ATOM      2  C   LIG    1        8.838   5.277   0.145  0.00  0.00    +0.042 C 
BRANCH   2   3
ATOM      3  C   LIG    1        8.705   6.040   1.450  0.00  0.00    +0.229 C 
BRANCH   3   4
ATOM      4  O   LIG    1        7.331   6.260   1.780  0.00  0.00    -0.492 OA
BRANCH   4  13
ATOM      5  O   LIG    1        2.784   9.737   5.905  0.00  0.00    -0.268 OA
ATOM      6  C   LIG    1        3.949   9.398   5.665  0.00  0.00    +0.249 C 
ATOM      7  N   LIG    1        4.265   8.566   4.631  0.00  0.00    -0.322 N 
ATOM      8  H   LIG    1        3.496   8.243   4.062  0.00  0.00    +0.169 HD
ATOM      9  C   LIG    1        5.580   8.182   4.329  0.00  0.00    +0.053 A 
ATOM     10  C   LIG    1        6.626   8.661   5.129  0.00  0.00    -0.001 A 
ATOM     11  C   LIG    1        7.936   8.292   4.830  0.00  0.00    +0.013 A 
ATOM     12  C   LIG    1        8.188   7.476   3.730  0.00  0.00    +0.046 A 
ATOM     13  C   LIG    1        7.146   7.018   2.913  0.00  0.00    +0.122 A 
ATOM     14  C   LIG    1        6.332   9.543   6.251  0.00  0.00    +0.015 C 
ATOM     15  C   LIG    1        5.829   7.351   3.234  0.00  0.00    +0.072 A 
ATOM     16  C   LIG    1        5.063   9.894   6.508  0.00  0.00    +0.071 C 
ENDBRANCH   4  13
ENDBRANCH   3   4
ENDBRANCH   2   3
ENDBRANCH   1   2
BRANCH   1  17
ATOM     17  C   LIG    1       11.109   6.294  -0.482  0.00  0.00    +0.085 C 
BRANCH  17  18
ATOM     18  N   LIG    1       12.514   6.052  -0.848  0.00  0.00    -0.299 NA
ATOM     19  C   LIG    1       12.657   5.276  -2.103  0.00  0.00    +0.103 C 
ATOM     20  C   LIG    1       12.253   6.015  -3.408  0.00  0.00    +0.120 C 
ATOM     21  N   LIG    1       12.959   7.314  -3.521  0.00  0.00    -0.327 N 
ATOM     22  C   LIG    1       12.838   8.135  -2.291  0.00  0.00    +0.120 C 
ATOM     23  C   LIG    1       13.254   7.331  -1.036  0.00  0.00    +0.103 C 
BRANCH  21  24
ATOM     24  C   LIG    1       12.675   7.981  -4.743  0.00  0.00    +0.038 A 
ATOM     25  C   LIG    1       13.322   7.637  -5.980  0.00  0.00    +0.010 A 
ATOM     26  C   LIG    1       13.024   8.373  -7.136  0.00  0.00    +0.021 A 
ATOM     27  S   LIG    1       13.912   7.828  -8.511  0.00  0.00    -0.097 S 
ATOM     28  C   LIG    1       14.702   6.623  -7.611  0.00  0.00    +0.046 A 
ATOM     29  C   LIG    1       12.103   9.433  -7.137  0.00  0.00    +0.016 A 
ATOM     30  C   LIG    1       11.464   9.757  -5.951  0.00  0.00    +0.003 A 
ATOM     31  C   LIG    1       14.311   6.628  -6.291  0.00  0.00    +0.018 A 
ATOM     32  C   LIG    1       11.743   9.047  -4.791  0.00  0.00    +0.024 A 
ENDBRANCH  21  24
ENDBRANCH  17  18
ENDBRANCH   1  17
TORSDOF 7
