REMARK  Name = *****
REMARK                            x       y       z     vdW  Elec       q    Type
REMARK                         _______ _______ _______ _____ _____    ______ ____
ROOT
ATOM      1  C   LIG    1        6.977  -1.207   0.051  0.00  0.00    +0.069 C 
ENDROOT
BRANCH   1   2
ATOM      2  C   LIG    1        6.486  -0.343  -1.117  0.00  0.00    -0.038 A 
ATOM      3  C   LIG    1        7.150  -0.334  -2.357  0.00  0.00    +0.005 A 
ATOM      4  C   LIG    1        6.697   0.472  -3.407  0.00  0.00    +0.015 A 
ATOM      5  C   LIG    1        5.571   1.270  -3.229  0.00  0.00    +0.018 A 
ATOM      6 BR   LIG    1        4.974   2.386  -4.633  0.00  0.00    -0.050 Br
ATOM      7  C   LIG    1        4.885   1.258  -2.017  0.00  0.00    +0.015 A 
ATOM      8  C   LIG    1        5.340   0.454  -0.967  0.00  0.00    +0.005 A 
ENDBRANCH   1   2
BRANCH   1   9
ATOM      9  C   LIG    1        8.397  -0.833   0.480  0.00  0.00    +0.049 A 
ATOM     10  N   LIG    1        9.447  -1.421  -0.156  0.00  0.00    -0.259 NA
ATOM     11  C   LIG    1       10.691  -1.017   0.190  0.00  0.00    +0.111 A 
ATOM     12  C   LIG    1       10.961  -0.060   1.151  0.00  0.00    +0.020 A 
ATOM     13  C   LIG    1        9.883   0.525   1.806  0.00  0.00    +0.003 A 
ATOM     14  C   LIG    1        8.590   0.141   1.461  0.00  0.00    +0.024 A 
ENDBRANCH   1   9
BRANCH   1  15
ATOM     15  C   LIG    1        6.774  -2.706  -0.281  0.00  0.00    +0.029 C 
BRANCH  15  16
ATOM     16  C   LIG    1        7.057  -3.646   0.905  0.00  0.00    +0.085 C 
BRANCH  16  18
ATOM     17  C   LIG    1        7.514  -5.585  -0.502  0.00  0.00    +0.104 C 
ATOM     18  N   LIG    1        6.733  -5.063   0.622  0.00  0.00    -0.308 NA
ATOM     19  C   LIG    1        6.990  -5.885   1.811  0.00  0.00    +0.104 C 
ENDBRANCH  16  18
ENDBRANCH  15  16
ENDBRANCH   1  15
TORSDOF 5
