REMARK  Name = *****
REMARK                            x       y       z     vdW  Elec       q    Type
REMARK                         _______ _______ _______ _____ _____    ______ ____
ROOT
ATOM      1  C   LIG    1        2.082   0.396   1.258  0.00  0.00    +0.044 C 
ATOM      2  C   LIG    1        1.821   0.103  -0.205  0.00  0.00    -0.050 C 
ATOM      3  C   LIG    1        1.007  -0.862  -0.667  0.00  0.00    +0.003 C 
ENDROOT
BRANCH   3   4
ATOM      4  C   LIG    1        0.281  -1.851   0.105  0.00  0.00    +0.001 C 
ATOM      5  C   LIG    1       -0.091  -3.080  -0.272  0.00  0.00    +0.003 C 
BRANCH   5   6
ATOM      6  C   LIG    1        0.172  -3.833  -1.501  0.00  0.00    -0.052 C 
ATOM      7  C   LIG    1       -0.654  -4.808  -1.934  0.00  0.00    +0.004 C 
ATOM      8  C   LIG    1        1.456  -3.579  -2.258  0.00  0.00    +0.043 C 
BRANCH   7   9
ATOM      9  C   LIG    1       -1.990  -5.210  -1.385  0.00  0.00    +0.183 C 
BRANCH   9  10
ATOM     10  O   LIG    1       -2.795  -5.697  -2.453  0.00  0.00    -0.391 OA
ATOM     11  H   LIG    1       -2.819  -5.005  -3.136  0.00  0.00    +0.210 HD
ENDBRANCH   9  10
ENDBRANCH   7   9
ENDBRANCH   5   6
ENDBRANCH   3   4
BRANCH   2  12
ATOM     12  C   LIG    1        2.548   0.997  -1.117  0.00  0.00    +0.003 C 
ATOM     13  C   LIG    1        2.956   0.685  -2.360  0.00  0.00    +0.004 C 
BRANCH  13  14
ATOM     14  C   LIG    1        3.697   1.575  -3.255  0.00  0.00    -0.043 C 
ATOM     15  C   LIG    1        3.017   1.871  -4.621  0.00  0.00    -0.010 C 
ATOM     16  C   LIG    1        2.491   0.598  -5.327  0.00  0.00    +0.016 C 
ATOM     17  C   LIG    1        1.819   2.825  -4.408  0.00  0.00    +0.016 C 
ATOM     18  C   LIG    1        4.012   2.525  -5.619  0.00  0.00    +0.011 C 
ATOM     19  C   LIG    1        4.858   3.604  -4.968  0.00  0.00    +0.005 C 
ATOM     20  C   LIG    1        5.687   3.003  -3.845  0.00  0.00    +0.031 C 
ATOM     21  C   LIG    1        4.919   2.071  -2.932  0.00  0.00    -0.069 C 
ATOM     22  C   LIG    1        5.701   1.758  -1.677  0.00  0.00    +0.039 C 
ENDBRANCH  13  14
ENDBRANCH   2  12
TORSDOF 6
