REMARK  Name = *****
REMARK                            x       y       z     vdW  Elec       q    Type
REMARK                         _______ _______ _______ _____ _____    ______ ____
ROOT
ATOM      1  N   LIG    1        8.618  -1.418   4.970  0.00  0.00    -0.308 N 
ATOM      2  H   LIG    1        9.080  -1.926   4.224  0.00  0.00    +0.149 HD
ATOM      3  C   LIG    1        9.293  -0.340   5.510  0.00  0.00    +0.248 C 
ATOM      4  O   LIG    1        8.945   0.241   6.523  0.00  0.00    -0.270 OA
ENDROOT
BRANCH   3   5
ATOM      5  C   LIG    1       10.507   0.118   4.782  0.00  0.00    +0.080 A 
ATOM      6  C   LIG    1       11.020  -0.514   3.658  0.00  0.00    +0.138 A 
ATOM      7  O   LIG    1       10.463  -1.614   3.046  0.00  0.00    -0.490 OA
ATOM      8  C   LIG    1       11.458  -2.043   2.095  0.00  0.00    +0.234 C 
ATOM      9  C   LIG    1       12.402  -0.882   1.801  0.00  0.00    +0.081 C 
ATOM     10  C   LIG    1       12.160  -0.051   3.006  0.00  0.00    +0.020 A 
ATOM     11  C   LIG    1       12.849   1.069   3.455  0.00  0.00    +0.050 A 
ATOM     12  C   LIG    1       12.305   1.747   4.565  0.00  0.00    +0.063 A 
ATOM     13 CL   LIG    1       13.052   3.193   5.156  0.00  0.00    -0.082 Cl
ATOM     14  C   LIG    1       11.166   1.270   5.235  0.00  0.00    +0.038 A 
BRANCH  11  15
ATOM     15  N   LIG    1       13.888   1.617   2.687  0.00  0.00    -0.356 N 
ATOM     16  H   LIG    1       14.448   0.939   2.183  0.00  0.00    +0.142 HD
ATOM     17  H   LIG    1       14.456   2.279   3.213  0.00  0.00    +0.142 HD
ENDBRANCH  11  15
ENDBRANCH   3   5
BRANCH   1  21
ATOM     18  N   LIG    1        5.092  -1.997   3.753  0.00  0.00    -0.302 NA
ATOM     19  C   LIG    1        5.587  -0.735   4.329  0.00  0.00    +0.086 C 
ATOM     20  C   LIG    1        6.270  -0.986   5.672  0.00  0.00    +0.037 C 
ATOM     21  C   LIG    1        7.419  -1.994   5.569  0.00  0.00    +0.076 C 
ATOM     22  C   LIG    1        6.966  -3.236   4.792  0.00  0.00    +0.037 C 
ATOM     23  C   LIG    1        6.228  -2.893   3.496  0.00  0.00    +0.086 C 
BRANCH  18  24
ATOM     24  C   LIG    1        4.288  -1.734   2.543  0.00  0.00    +0.086 C 
BRANCH  24  25
ATOM     25  C   LIG    1        3.610  -2.992   1.982  0.00  0.00    +0.043 C 
BRANCH  25  26
ATOM     26  C   LIG    1        2.766  -2.689   0.748  0.00  0.00    +0.161 C 
BRANCH  26  28
ATOM     27  C   LIG    1        1.407  -3.712  -0.891  0.00  0.00    +0.193 C 
ATOM     28  O   LIG    1        2.176  -3.907   0.289  0.00  0.00    -0.383 OA
ENDBRANCH  26  28
ENDBRANCH  25  26
ENDBRANCH  24  25
ENDBRANCH  18  24
ENDBRANCH   1  21
TORSDOF 7
