REMARK  Name = *****
REMARK                            x       y       z     vdW  Elec       q    Type
REMARK                         _______ _______ _______ _____ _____    ______ ____
ROOT
ATOM      1  C   LIG    1       -3.748  -5.604  -0.274  0.00  0.00    +0.007 C 
ENDROOT
BRANCH   1   2
ATOM      2  C   LIG    1       -4.834  -7.300   0.215  0.00  0.00    +0.041 C 
BRANCH   2   3
ATOM      3  C   LIG    1       -6.552  -6.616   1.004  0.00  0.00    +0.232 C 
BRANCH   3   4
ATOM      4  O   LIG    1       -6.792  -5.830   2.689  0.00  0.00    -0.465 OA
BRANCH   4   5
ATOM      5  C   LIG    1       -5.574  -6.400   4.369  0.00  0.00    +0.312 C 
ATOM      6  O   LIG    1       -5.412  -7.559   4.793  0.00  0.00    -0.251 OA
BRANCH   5   7
ATOM      7  C   LIG    1       -3.813  -5.765   4.404  0.00  0.00    +0.171 C 
BRANCH   7   8
ATOM      8  C   LIG    1       -2.516  -6.494   3.868  0.00  0.00    +0.145 C 
BRANCH   8   9
ATOM      9  N   LIG    1       -1.942  -6.388   2.364  0.00  0.00    +0.247 N 
ATOM     10  C   LIG    1       -2.856  -7.077   1.436  0.00  0.00    +0.102 C 
ATOM     11  C   LIG    1       -1.993  -7.310  -0.099  0.00  0.00    +0.008 A 
ATOM     12  C   LIG    1       -1.469  -6.140  -0.780  0.00  0.00    -0.030 A 
ATOM     13  C   LIG    1       -1.372  -5.915  -2.101  0.00  0.00    +0.053 A 
ATOM     14  C   LIG    1       -0.860  -7.019  -2.611  0.00  0.00    +0.162 A 
ATOM     15  C   LIG    1       -1.271  -8.302  -1.994  0.00  0.00    +0.162 A 
ATOM     16  C   LIG    1       -1.447  -4.873  -0.101  0.00  0.00    +0.086 C 
ATOM     17  C   LIG    1       -2.020  -8.439  -0.811  0.00  0.00    +0.059 A 
ATOM     18  C   LIG    1       -1.515  -5.071   1.841  0.00  0.00    +0.138 C 
ATOM     19  C   LIG    1       -0.607  -7.035   2.224  0.00  0.00    +0.193 C 
BRANCH  14  20
ATOM     20  O   LIG    1        0.110  -6.812  -3.554  0.00  0.00    -0.491 OA
ATOM     21  C   LIG    1        0.460  -5.438  -3.876  0.00  0.00    +0.277 C 
ENDBRANCH  14  20
BRANCH  15  22
ATOM     22  O   LIG    1       -0.896  -9.544  -2.373  0.00  0.00    -0.491 OA
ATOM     23  C   LIG    1       -0.652  -9.628  -3.746  0.00  0.00    +0.277 C 
ENDBRANCH  15  22
BRANCH  10  24
ATOM     24  C   LIG    1       -4.449  -5.962   1.484  0.00  0.00    +0.095 C 
BRANCH  24  25
ATOM     25  C   LIG    1       -5.003  -6.381   2.523  0.00  0.00    -0.038 A 
ATOM     26  C   LIG    1       -5.315  -4.596   3.198  0.00  0.00    +0.053 A 
ATOM     27  C   LIG    1       -6.392  -4.314   4.312  0.00  0.00    +0.162 A 
ATOM     28  C   LIG    1       -7.531  -5.500   4.754  0.00  0.00    +0.162 A 
ATOM     29  C   LIG    1       -7.644  -7.054   4.048  0.00  0.00    +0.050 A 
ATOM     30  C   LIG    1       -6.352  -7.708   2.968  0.00  0.00    +0.007 A 
BRANCH  28  31
ATOM     31  O   LIG    1       -7.963  -5.623   6.054  0.00  0.00    -0.491 OA
ATOM     32  C   LIG    1       -8.683  -4.472   6.413  0.00  0.00    +0.277 C 
ENDBRANCH  28  31
BRANCH  27  33
ATOM     33  O   LIG    1       -5.891  -3.262   5.035  0.00  0.00    -0.491 OA
ATOM     34  C   LIG    1       -5.799  -3.545   6.404  0.00  0.00    +0.277 C 
ENDBRANCH  27  33
ENDBRANCH  24  25
ENDBRANCH  10  24
ENDBRANCH   8   9
ENDBRANCH   7   8
ENDBRANCH   5   7
ENDBRANCH   4   5
ENDBRANCH   3   4
ENDBRANCH   2   3
ENDBRANCH   1   2
BRANCH   1  35
ATOM     35  C   LIG    1       -3.345  -4.093   1.014  0.00  0.00    +0.041 C 
BRANCH  35  36
ATOM     36  C   LIG    1       -1.869  -3.050   0.933  0.00  0.00    +0.232 C 
BRANCH  36  37
ATOM     37  O   LIG    1       -1.679  -2.211   2.035  0.00  0.00    -0.465 OA
BRANCH  37  38
ATOM     38  C   LIG    1       -0.697  -2.530   2.921  0.00  0.00    +0.312 C 
ATOM     39  O   LIG    1       -0.287  -3.557   3.459  0.00  0.00    -0.251 OA
BRANCH  38  40
ATOM     40  C   LIG    1        0.145  -1.402   3.012  0.00  0.00    +0.171 C 
BRANCH  40  41
ATOM     41  C   LIG    1        0.098  -0.134   2.224  0.00  0.00    +0.145 C 
BRANCH  41  43
ATOM     42  C   LIG    1        1.836  -0.390   0.195  0.00  0.00    +0.102 C 
ATOM     43  N   LIG    1        0.357  -0.118   0.703  0.00  0.00    +0.247 N 
ATOM     44  C   LIG    1       -0.607  -0.937  -0.087  0.00  0.00    +0.193 C 
ATOM     45  C   LIG    1       -0.030   1.260   0.176  0.00  0.00    +0.138 C 
ATOM     46  C   LIG    1        0.781   2.460   0.537  0.00  0.00    +0.086 C 
ATOM     47  C   LIG    1        2.227   2.149   0.522  0.00  0.00    -0.030 A 
ATOM     48  C   LIG    1        3.040   3.290   0.622  0.00  0.00    +0.053 A 
ATOM     49  C   LIG    1        4.413   3.178   0.657  0.00  0.00    +0.162 A 
ATOM     50  C   LIG    1        4.958   1.891   0.521  0.00  0.00    +0.162 A 
ATOM     51  C   LIG    1        4.122   0.751   0.318  0.00  0.00    +0.059 A 
ATOM     52  C   LIG    1        2.739   0.835   0.393  0.00  0.00    +0.008 A 
BRANCH  50  53
ATOM     53  O   LIG    1        6.282   1.543   0.579  0.00  0.00    -0.491 OA
ATOM     54  C   LIG    1        7.117   2.350   1.389  0.00  0.00    +0.277 C 
ENDBRANCH  50  53
BRANCH  49  55
ATOM     55  O   LIG    1        5.000   4.401   0.855  0.00  0.00    -0.491 OA
ATOM     56  C   LIG    1        6.307   4.591   0.360  0.00  0.00    +0.277 C 
ENDBRANCH  49  55
BRANCH  42  57
ATOM     57  C   LIG    1        2.338  -1.911   0.383  0.00  0.00    +0.095 C 
BRANCH  57  61
ATOM     58  C   LIG    1        3.909  -3.658   4.144  0.00  0.00    +0.162 A 
ATOM     59  C   LIG    1        2.953  -2.682   4.185  0.00  0.00    +0.162 A 
ATOM     60  C   LIG    1        2.763  -1.993   2.970  0.00  0.00    +0.053 A 
ATOM     61  C   LIG    1        2.970  -2.485   1.665  0.00  0.00    -0.038 A 
ATOM     62  C   LIG    1        3.764  -3.617   1.643  0.00  0.00    +0.007 A 
ATOM     63  C   LIG    1        4.295  -4.118   2.859  0.00  0.00    +0.050 A 
BRANCH  58  65
ATOM     64  C   LIG    1        4.933  -3.415   6.282  0.00  0.00    +0.277 C 
ATOM     65  O   LIG    1        4.566  -4.247   5.183  0.00  0.00    -0.491 OA
ENDBRANCH  58  65
BRANCH  59  66
ATOM     66  O   LIG    1        2.024  -2.347   5.142  0.00  0.00    -0.491 OA
ATOM     67  C   LIG    1        2.381  -2.126   6.495  0.00  0.00    +0.277 C 
ENDBRANCH  59  66
ENDBRANCH  57  61
ENDBRANCH  42  57
ENDBRANCH  41  43
ENDBRANCH  40  41
ENDBRANCH  38  40
ENDBRANCH  37  38
ENDBRANCH  36  37
ENDBRANCH  35  36
ENDBRANCH   1  35
TORSDOF 26
