REMARK  Name = *****
REMARK                            x       y       z     vdW  Elec       q    Type
REMARK                         _______ _______ _______ _____ _____    ______ ____
ROOT
ATOM      1  C   LIG    1        6.058  -3.703   3.091  0.00  0.00    +0.122 A 
ATOM      2  C   LIG    1        7.103  -4.491   3.576  0.00  0.00    +0.062 A 
ATOM      3  C   LIG    1        6.795  -5.550   4.466  0.00  0.00    +0.044 A 
ATOM      4  C   LIG    1        5.492  -5.814   4.868  0.00  0.00    +0.081 A 
ATOM      5  N   LIG    1        5.344  -6.865   5.751  0.00  0.00    -0.225 NA
ATOM      6  C   LIG    1        6.504  -7.397   6.045  0.00  0.00    +0.161 A 
ATOM      7  C   LIG    1        4.457  -5.022   4.366  0.00  0.00    +0.032 A 
ATOM      8  S   LIG    1        7.848  -6.674   5.204  0.00  0.00    -0.052 S 
ATOM      9  C   LIG    1        4.748  -3.975   3.486  0.00  0.00    +0.048 A 
ENDROOT
BRANCH   6  10
ATOM     10  N   LIG    1        6.676  -8.453   6.919  0.00  0.00    -0.316 N 
ATOM     11  C   LIG    1        5.490  -8.888   7.650  0.00  0.00    +0.131 C 
ATOM     12  C   LIG    1        7.933  -8.575   7.640  0.00  0.00    +0.131 C 
ENDBRANCH   6  10
BRANCH   1  13
ATOM     13  O   LIG    1        6.412  -2.679   2.247  0.00  0.00    -0.491 OA
BRANCH  13  14
ATOM     14  C   LIG    1        5.349  -1.911   1.652  0.00  0.00    +0.244 C 
BRANCH  14  15
ATOM     15  C   LIG    1        4.974  -0.692   2.529  0.00  0.00    +0.125 C 
BRANCH  15  16
ATOM     16  N   LIG    1        3.844   0.158   2.077  0.00  0.00    -0.300 NA
BRANCH  16  18
ATOM     17  C   LIG    1        5.360   1.547   0.617  0.00  0.00    +0.020 C 
ATOM     18  C   LIG    1        4.054   0.761   0.752  0.00  0.00    +0.081 C 
ENDBRANCH  16  18
BRANCH  16  19
ATOM     19  C   LIG    1        2.568  -0.579   2.178  0.00  0.00    +0.081 C 
ATOM     20  C   LIG    1        1.291   0.225   1.934  0.00  0.00    +0.020 C 
ENDBRANCH  16  19
ENDBRANCH  15  16
ENDBRANCH  14  15
ENDBRANCH  13  14
ENDBRANCH   1  13
TORSDOF 7
