REMARK  Name = *****
REMARK                            x       y       z     vdW  Elec       q    Type
REMARK                         _______ _______ _______ _____ _____    ______ ____
ROOT
ATOM      1  C   LIG    1        9.178   4.641  -1.173  0.00  0.00    +0.005 A 
ATOM      2  C   LIG    1        8.870   5.921  -0.618  0.00  0.00    +0.000 A 
ATOM      3  C   LIG    1        9.735   7.009  -1.014  0.00  0.00    +0.009 A 
ATOM      4  C   LIG    1       10.736   6.740  -1.981  0.00  0.00    +0.072 A 
ATOM      5  C   LIG    1       11.502   7.772  -2.505  0.00  0.00    +0.028 A 
ATOM      6  C   LIG    1       11.359   9.091  -2.084  0.00  0.00    +0.002 A 
ATOM      7  C   LIG    1       10.468   9.376  -1.069  0.00  0.00    +0.001 A 
ATOM      8  N   LIG    1       11.028   5.519  -2.429  0.00  0.00    -0.251 NA
ATOM      9  C   LIG    1        9.698   8.346  -0.522  0.00  0.00    +0.010 A 
ATOM     10  C   LIG    1       10.314   4.464  -1.990  0.00  0.00    +0.053 A 
ENDROOT
BRANCH   2  11
ATOM     11  C   LIG    1        7.689   6.122   0.327  0.00  0.00    -0.017 A 
ATOM     12  C   LIG    1        6.923   7.308   0.342  0.00  0.00    +0.011 A 
ATOM     13  C   LIG    1        5.882   7.524   1.258  0.00  0.00    +0.039 A 
ATOM     14  C   LIG    1        5.486   6.502   2.100  0.00  0.00    +0.123 A 
ATOM     15  F   LIG    1        4.455   6.682   2.935  0.00  0.00    -0.205 F 
ATOM     16  C   LIG    1        6.150   5.292   2.079  0.00  0.00    +0.039 A 
ATOM     17  C   LIG    1        7.269   5.134   1.248  0.00  0.00    +0.011 A 
ENDBRANCH   2  11
BRANCH  10  18
ATOM     18  C   LIG    1       10.812   3.078  -2.390  0.00  0.00    +0.038 C 
ATOM     19  C   LIG    1       12.266   2.686  -2.221  0.00  0.00    +0.010 C 
ATOM     20  C   LIG    1       11.243   2.124  -1.288  0.00  0.00    +0.010 C 
ENDBRANCH  10  18
BRANCH   1  22
ATOM     21  C   LIG    1        7.341   3.050  -1.694  0.00  0.00    +0.005 C 
ATOM     22  C   LIG    1        8.371   3.437  -0.925  0.00  0.00    +0.008 C 
BRANCH  21  23
ATOM     23  C   LIG    1        6.467   1.859  -1.404  0.00  0.00    +0.140 C 
BRANCH  23  24
ATOM     24  O   LIG    1        7.015   0.720  -2.064  0.00  0.00    -0.388 OA
ATOM     25  H   LIG    1        7.979   0.853  -2.128  0.00  0.00    +0.210 HD
ENDBRANCH  23  24
BRANCH  23  26
ATOM     26  C   LIG    1        6.299   1.555   0.096  0.00  0.00    +0.067 C 
BRANCH  26  27
ATOM     27  C   LIG    1        5.407   0.345   0.401  0.00  0.00    +0.128 C 
BRANCH  27  28
ATOM     28  O   LIG    1        5.971  -0.839  -0.177  0.00  0.00    -0.391 OA
ATOM     29  H   LIG    1        6.142  -0.625  -1.125  0.00  0.00    +0.210 HD
ENDBRANCH  27  28
BRANCH  27  30
ATOM     30  C   LIG    1        5.332   0.129   1.911  0.00  0.00    +0.151 C 
BRANCH  30  32
ATOM     31  O   LIG    1        3.531  -0.980   3.054  0.00  0.00    -0.251 OA
ATOM     32  C   LIG    1        4.464  -1.049   2.283  0.00  0.00    +0.307 C 
BRANCH  32  33
ATOM     33  O   LIG    1        4.877  -2.214   1.728  0.00  0.00    -0.481 OA
ATOM     34  H   LIG    1        5.568  -2.052   1.040  0.00  0.00    +0.295 HD
ENDBRANCH  32  33
ENDBRANCH  30  32
ENDBRANCH  27  30
ENDBRANCH  26  27
ENDBRANCH  23  26
ENDBRANCH  21  23
ENDBRANCH   1  22
TORSDOF 11
