REMARK  Name = *****
REMARK                            x       y       z     vdW  Elec       q    Type
REMARK                         _______ _______ _______ _____ _____    ______ ____
ROOT
ATOM      1  CA  MET A  1        5.354   2.643  -1.877  0.00  0.00    +0.161 C 
ENDROOT
BRANCH   1   2
ATOM      2  N   MET A  1        6.762   2.244  -2.213  0.00  0.00    -0.318 NA
ATOM      3  H1  MET A  1        7.285   2.191  -1.332  0.00  0.00    +0.119 HD
ATOM      4  H2  MET A  1        6.761   1.275  -2.551  0.00  0.00    +0.119 HD
ENDBRANCH   1   2
BRANCH   1   5
ATOM      5  C   MET A  1        4.697   3.201  -3.159  0.00  0.00    +0.322 C 
ATOM      6  O   MET A  1        3.565   3.633  -3.239  0.00  0.00    -0.249 OA
BRANCH   5   7
ATOM      7  OXT MET A  1        5.561   3.186  -4.208  0.00  0.00    -0.479 OA
ATOM      8  HXT MET A  1        6.427   2.885  -3.839  0.00  0.00    +0.295 HD
ENDBRANCH   5   7
ENDBRANCH   1   5
BRANCH   1   9
ATOM      9  CB  MET A  1        4.596   1.447  -1.277  0.00  0.00    +0.040 C 
BRANCH   9  10
ATOM     10  CG  MET A  1        3.143   1.766  -0.899  0.00  0.00    +0.071 C 
BRANCH  10  12
ATOM     11  CE  MET A  1        0.704   1.029   0.175  0.00  0.00    +0.084 C 
ATOM     12  SD  MET A  1        2.356   0.327  -0.096  0.00  0.00    -0.164 S 
ENDBRANCH  10  12
ENDBRANCH   9  10
ENDBRANCH   1   9
TORSDOF 6
