REMARK  Name = *****
REMARK                            x       y       z     vdW  Elec       q    Type
REMARK                         _______ _______ _______ _____ _____    ______ ____
ROOT
ATOM      1  C   LIG    1        3.723   0.043   0.018  0.00  0.00    +0.146 C 
ENDROOT
BRANCH   1   2
ATOM      2  C   LIG    1        4.202  -1.010  -0.958  0.00  0.00    +0.032 C 
ATOM      3  C   LIG    1        4.510  -2.297  -0.763  0.00  0.00    +0.079 C 
ATOM      4 CL   LIG    1        4.383  -3.155   0.711  0.00  0.00    -0.092 Cl
ENDBRANCH   1   2
BRANCH   1   6
ATOM      5  C   LIG    1        1.089   0.043   0.018  0.00  0.00    +0.007 C 
ATOM      6  C   LIG    1        2.279   0.043   0.018  0.00  0.00    -0.067 C 
ENDBRANCH   1   6
BRANCH   1   7
ATOM      7  C   LIG    1        4.226   1.454  -0.368  0.00  0.00    +0.049 C 
ATOM      8  C   LIG    1        5.743   1.619  -0.342  0.00  0.00    +0.008 C 
ENDBRANCH   1   7
BRANCH   1   9
ATOM      9  O   LIG    1        4.185  -0.225   1.334  0.00  0.00    -0.373 OA
ATOM     10  H   LIG    1        3.870  -1.117   1.561  0.00  0.00    +0.212 HD
ENDBRANCH   1   9
TORSDOF 4
