REMARK  Name = *****
REMARK                            x       y       z     vdW  Elec       q    Type
REMARK                         _______ _______ _______ _____ _____    ______ ____
ROOT
ATOM      1  C   LIG    1        2.541   0.820  -0.607  0.00  0.00    +0.123 C 
ATOM      2  C   LIG    1        1.381   1.551  -1.266  0.00  0.00    +0.235 C 
ATOM      3  O   LIG    1        0.994   1.317  -2.410  0.00  0.00    -0.274 OA
ATOM      4  N   LIG    1        0.722   2.470  -0.504  0.00  0.00    -0.239 N 
ATOM      5  H   LIG    1       -0.031   2.958  -0.971  0.00  0.00    +0.159 HD
ATOM      6  C   LIG    1        1.278   3.139   0.539  0.00  0.00    +0.312 C 
ATOM      7  O   LIG    1        0.849   4.226   0.904  0.00  0.00    -0.252 OA
ATOM      8  N   LIG    1        2.389   2.590   1.097  0.00  0.00    -0.239 N 
ATOM      9  H   LIG    1        2.834   3.145   1.815  0.00  0.00    +0.159 HD
ATOM     10  C   LIG    1        3.182   1.656   0.495  0.00  0.00    +0.235 C 
ATOM     11  O   LIG    1        4.329   1.476   0.903  0.00  0.00    -0.274 OA
ENDROOT
BRANCH   1  13
ATOM     12  C   LIG    1        1.317  -1.489  -0.761  0.00  0.00    +0.005 C 
ATOM     13  C   LIG    1        1.979  -0.437   0.122  0.00  0.00    +0.022 C 
ENDBRANCH   1  13
BRANCH   1  14
ATOM     14  C   LIG    1        3.612   0.440  -1.664  0.00  0.00    +0.026 C 
BRANCH  14  15
ATOM     15  C   LIG    1        4.224   1.655  -2.396  0.00  0.00    +0.004 C 
BRANCH  15  16
ATOM     16  C   LIG    1        5.281   1.280  -3.455  0.00  0.00    -0.017 C 
ATOM     17  C   LIG    1        6.456   0.506  -2.858  0.00  0.00    +0.007 C 
ATOM     18  C   LIG    1        5.800   2.546  -4.146  0.00  0.00    +0.007 C 
ENDBRANCH  15  16
ENDBRANCH  14  15
ENDBRANCH   1  14
TORSDOF 4
