REMARK  Name = *****
REMARK                            x       y       z     vdW  Elec       q    Type
REMARK                         _______ _______ _______ _____ _____    ______ ____
ROOT
ATOM      1  C   LIG    1       12.122   4.501  -4.306  0.00  0.00    +0.150 C 
ATOM      2  C   LIG    1       12.088   6.064  -4.609  0.00  0.00    +0.060 C 
ATOM      3  C   LIG    1       10.805   6.462  -5.346  0.00  0.00    +0.014 C 
ATOM      4  C   LIG    1       12.636   7.211  -3.587  0.00  0.00    +0.187 C 
ATOM      5  C   LIG    1       11.823   8.590  -3.429  0.00  0.00    +0.056 C 
ATOM      6  C   LIG    1       12.727   9.716  -4.007  0.00  0.00    +0.014 C 
ATOM      7  C   LIG    1       11.182   9.163  -2.100  0.00  0.00    +0.126 C 
ATOM      8  C   LIG    1       10.096   8.426  -1.252  0.00  0.00    +0.044 C 
ATOM      9  C   LIG    1       10.526   8.091   0.190  0.00  0.00    +0.013 C 
ATOM     10  C   LIG    1        9.367   7.284  -1.989  0.00  0.00    +0.126 C 
ATOM     11  C   LIG    1        8.063   7.718  -2.742  0.00  0.00    +0.037 C 
ATOM     12  C   LIG    1        8.164   8.999  -3.571  0.00  0.00    +0.014 C 
ATOM     13  C   LIG    1        7.529   6.543  -3.549  0.00  0.00    -0.021 C 
ATOM     14  C   LIG    1        7.274   6.455  -4.869  0.00  0.00    -0.003 C 
ATOM     15  C   LIG    1        6.733   5.235  -5.407  0.00  0.00    +0.008 C 
ATOM     16  C   LIG    1        6.301   4.935  -6.641  0.00  0.00    +0.011 C 
ATOM     17  C   LIG    1        5.554   3.630  -6.800  0.00  0.00    +0.049 C 
ATOM     18  C   LIG    1        6.311   5.795  -7.874  0.00  0.00    +0.244 C 
ATOM     19  O   LIG    1        5.264   6.064  -8.461  0.00  0.00    -0.270 OA
ATOM     20  N   LIG    1        7.534   5.988  -8.504  0.00  0.00    -0.278 N 
ATOM     21  H   LIG    1        8.231   6.430  -7.912  0.00  0.00    +0.155 HD
ATOM     22  C   LIG    1        8.101   4.924  -9.308  0.00  0.00    +0.089 A 
ATOM     23  C   LIG    1        7.322   3.833  -9.703  0.00  0.00    +0.150 A 
ATOM     24  C   LIG    1        7.853   2.538  -9.579  0.00  0.00    +0.071 A 
ATOM     25  C   LIG    1        9.260   2.408  -9.415  0.00  0.00    +0.046 A 
ATOM     26  C   LIG    1       10.076   3.545  -9.527  0.00  0.00    +0.136 A 
ATOM     27  C   LIG    1        9.726   1.200  -8.907  0.00  0.00    +0.079 A 
ATOM     28  C   LIG    1       11.000   0.887  -8.262  0.00  0.00    +0.251 C 
ATOM     29  C   LIG    1       10.601   0.463  -6.865  0.00  0.00    +0.314 C 
ATOM     30  O   LIG    1        9.365  -0.295  -7.185  0.00  0.00    -0.444 OA
ATOM     31  C   LIG    1       11.523  -0.503  -6.146  0.00  0.00    +0.114 C 
ATOM     32  O   LIG    1       10.305   1.654  -6.092  0.00  0.00    -0.453 OA
ATOM     33  C   LIG    1       11.343   2.511  -5.776  0.00  0.00    +0.190 C 
ATOM     34  O   LIG    1       12.089   0.866  -8.760  0.00  0.00    -0.284 OA
ATOM     35  C   LIG    1        8.836   0.336  -8.297  0.00  0.00    +0.143 A 
ATOM     36  C   LIG    1        7.486   0.319  -8.607  0.00  0.00    +0.034 A 
ATOM     37  C   LIG    1        6.538  -0.661  -7.985  0.00  0.00    +0.051 C 
ATOM     38  C   LIG    1        7.017   1.413  -9.337  0.00  0.00    +0.135 A 
ATOM     39  C   LIG    1        9.491   4.806  -9.417  0.00  0.00    +0.061 A 
ATOM     40  C   LIG    1       11.108   3.646  -5.094  0.00  0.00    +0.042 C 
ENDROOT
BRANCH   1  42
ATOM     41  C   LIG    1       12.067   2.834  -2.600  0.00  0.00    +0.194 C 
ATOM     42  O   LIG    1       11.866   4.222  -2.919  0.00  0.00    -0.375 OA
ENDBRANCH   1  42
BRANCH   7  43
ATOM     43  O   LIG    1       12.136   9.768  -1.234  0.00  0.00    -0.391 OA
ATOM     44  H   LIG    1       12.332  10.667  -1.550  0.00  0.00    +0.210 HD
ENDBRANCH   7  43
BRANCH  10  45
ATOM     45  O   LIG    1        8.983   6.262  -1.051  0.00  0.00    -0.391 OA
ATOM     46  H   LIG    1        9.802   5.810  -0.774  0.00  0.00    +0.210 HD
ENDBRANCH  10  45
BRANCH  26  47
ATOM     47  O   LIG    1       11.426   3.367  -9.624  0.00  0.00    -0.505 OA
ATOM     48  H   LIG    1       11.898   4.225  -9.615  0.00  0.00    +0.292 HD
ENDBRANCH  26  47
BRANCH  38  49
ATOM     49  O   LIG    1        5.664   1.460  -9.574  0.00  0.00    -0.506 OA
ATOM     50  H   LIG    1        5.463   2.343  -9.950  0.00  0.00    +0.292 HD
ENDBRANCH  38  49
BRANCH  23  51
ATOM     51  O   LIG    1        5.984   3.974  -9.983  0.00  0.00    -0.504 OA
ATOM     52  H   LIG    1        5.729   4.922  -9.903  0.00  0.00    +0.292 HD
ENDBRANCH  23  51
BRANCH  39  53
ATOM     53  C   LIG    1       10.307   6.024  -9.396  0.00  0.00    +0.143 C 
ATOM     54  N   LIG    1       11.542   6.021  -9.002  0.00  0.00    -0.192 NA
BRANCH  54  55
ATOM     55  N   LIG    1       12.170   7.229  -9.135  0.00  0.00    -0.253 N 
ATOM     56  C   LIG    1       12.249   7.763 -10.518  0.00  0.00    +0.141 C 
ATOM     57  C   LIG    1       12.872   9.159 -10.602  0.00  0.00    +0.105 C 
ATOM     58  N   LIG    1       14.254   9.144 -10.102  0.00  0.00    -0.296 NA
ATOM     59  C   LIG    1       14.253   8.624  -8.717  0.00  0.00    +0.105 C 
ATOM     60  C   LIG    1       13.543   7.258  -8.569  0.00  0.00    +0.141 C 
BRANCH  58  61
ATOM     61  C   LIG    1       14.895  10.461 -10.200  0.00  0.00    +0.057 C 
ATOM     62  C   LIG    1       16.366  10.463  -9.765  0.00  0.00    +0.019 C 
ATOM     63  C   LIG    1       16.900  11.749 -10.369  0.00  0.00    +0.002 C 
ATOM     64  C   LIG    1       16.286  11.767 -11.758  0.00  0.00    +0.002 C 
ATOM     65  C   LIG    1       14.936  11.062 -11.623  0.00  0.00    +0.019 C 
ENDBRANCH  58  61
ENDBRANCH  54  55
ENDBRANCH  39  53
BRANCH   4  66
ATOM     66  O   LIG    1       13.169   6.810  -2.320  0.00  0.00    -0.461 OA
BRANCH  66  67
ATOM     67  C   LIG    1       14.426   7.319  -2.095  0.00  0.00    +0.304 C 
ATOM     68  O   LIG    1       15.389   7.138  -2.833  0.00  0.00    -0.251 OA
ATOM     69  C   LIG    1       14.451   8.293  -0.955  0.00  0.00    +0.136 C 
ENDBRANCH  66  67
ENDBRANCH   4  66
TORSDOF 11
