REMARK  Name = *****
REMARK                            x       y       z     vdW  Elec       q    Type
REMARK                         _______ _______ _______ _____ _____    ______ ____
ROOT
ATOM      1  O   LIG    1       -0.634  -6.898  -4.857  0.00  0.00    -0.461 OA
ENDROOT
BRANCH   1   5
ATOM      2  N   LIG    1        3.155  -8.194  -3.987  0.00  0.00    +0.247 N 
ATOM      3  C   LIG    1        2.290  -8.481  -5.247  0.00  0.00    +0.070 C 
ATOM      4  C   LIG    1        1.631  -7.189  -5.745  0.00  0.00    +0.099 C 
ATOM      5  C   LIG    1        0.753  -6.491  -4.695  0.00  0.00    +0.187 C 
ATOM      6  C   LIG    1        1.197  -6.729  -3.236  0.00  0.00    +0.099 C 
ATOM      7  C   LIG    1        1.221  -9.475  -4.739  0.00  0.00    +0.060 C 
ATOM      8  C   LIG    1        1.125  -9.252  -3.230  0.00  0.00    +0.060 C 
ATOM      9  C   LIG    1        1.994  -8.023  -2.964  0.00  0.00    +0.070 C 
ATOM     10  C   LIG    1        4.007  -9.455  -3.655  0.00  0.00    +0.193 C 
BRANCH   2  12
ATOM     11  C   LIG    1        4.872  -6.737  -2.754  0.00  0.00    +0.063 C 
ATOM     12  C   LIG    1        4.123  -6.957  -4.074  0.00  0.00    +0.060 C 
ATOM     13  C   LIG    1        5.116  -7.083  -5.235  0.00  0.00    +0.063 C 
ENDBRANCH   2  12
ENDBRANCH   1   5
BRANCH   1  14
ATOM     14  C   LIG    1       -1.334  -6.237  -5.840  0.00  0.00    +0.317 C 
ATOM     15  O   LIG    1       -0.813  -5.419  -6.602  0.00  0.00    -0.250 OA
BRANCH  14  16
ATOM     16  C   LIG    1       -2.794  -6.670  -5.899  0.00  0.00    +0.153 C 
BRANCH  16  17
ATOM     17  C   LIG    1       -3.740  -5.485  -5.740  0.00  0.00    -0.032 A 
ATOM     18  C   LIG    1       -3.842  -4.481  -6.716  0.00  0.00    +0.004 A 
ATOM     19  C   LIG    1       -4.716  -3.405  -6.545  0.00  0.00    +0.000 A 
ATOM     20  C   LIG    1       -5.496  -3.314  -5.395  0.00  0.00    +0.000 A 
ATOM     21  C   LIG    1       -5.403  -4.297  -4.414  0.00  0.00    +0.000 A 
ATOM     22  C   LIG    1       -4.530  -5.375  -4.584  0.00  0.00    +0.004 A 
ENDBRANCH  16  17
BRANCH  16  23
ATOM     23  C   LIG    1       -3.031  -7.460  -7.198  0.00  0.00    +0.175 C 
BRANCH  23  24
ATOM     24  O   LIG    1       -4.312  -8.087  -7.206  0.00  0.00    -0.394 OA
ATOM     25  H   LIG    1       -4.910  -7.532  -7.743  0.00  0.00    +0.209 HD
ENDBRANCH  23  24
ENDBRANCH  16  23
ENDBRANCH  14  16
ENDBRANCH   1  14
TORSDOF 7
