REMARK  Name = *****
REMARK                            x       y       z     vdW  Elec       q    Type
REMARK                         _______ _______ _______ _____ _____    ______ ____
ROOT
ATOM      1  C   LIG    1       10.802   0.890  -6.695  0.00  0.00    -0.021 C 
ATOM      2  C   LIG    1       12.031   0.868  -7.277  0.00  0.00    -0.035 C 
ATOM      3  C   LIG    1       12.262   1.450  -8.665  0.00  0.00    +0.059 C 
ATOM      4  C   LIG    1       13.472   2.402  -8.802  0.00  0.00    +0.085 C 
ATOM      5  C   LIG    1       13.660   2.796 -10.256  0.00  0.00    -0.011 C 
ATOM      6  C   LIG    1       13.248   2.023 -11.263  0.00  0.00    +0.009 C 
ATOM      7  C   LIG    1       12.624   0.719 -11.026  0.00  0.00    +0.051 C 
ATOM      8  S   LIG    1       15.058   1.693  -8.264  0.00  0.00    -0.116 S 
ATOM      9  C   LIG    1       14.557   0.711  -6.862  0.00  0.00    +0.016 A 
ATOM     10  C   LIG    1       15.638   0.241  -6.085  0.00  0.00    +0.015 A 
ATOM     11  C   LIG    1       15.437  -0.595  -4.993  0.00  0.00    +0.001 A 
ATOM     12  C   LIG    1       14.149  -0.994  -4.680  0.00  0.00    +0.001 A 
ATOM     13  C   LIG    1       13.069  -0.529  -5.440  0.00  0.00    +0.009 A 
ATOM     14  C   LIG    1       12.197   0.420  -9.780  0.00  0.00    -0.005 C 
ATOM     15  C   LIG    1       13.232   0.363  -6.526  0.00  0.00    -0.008 A 
ENDROOT
BRANCH   7  16
ATOM     16  C   LIG    1       12.420  -0.213 -12.196  0.00  0.00    +0.417 C 
ATOM     17  F   LIG    1       11.100  -0.492 -12.374  0.00  0.00    -0.166 F 
ATOM     18  F   LIG    1       13.050  -1.401 -12.022  0.00  0.00    -0.166 F 
ATOM     19  F   LIG    1       12.859   0.302 -13.374  0.00  0.00    -0.166 F 
ENDBRANCH   7  16
BRANCH   1  20
ATOM     20  C   LIG    1        9.475   1.365  -7.272  0.00  0.00    +0.043 C 
BRANCH  20  21
ATOM     21  C   LIG    1        8.946   0.559  -8.490  0.00  0.00    +0.088 C 
BRANCH  21  25
ATOM     22  N   LIG    1        7.844   1.835 -11.921  0.00  0.00    -0.298 NA
ATOM     23  C   LIG    1        8.232   2.703 -10.787  0.00  0.00    +0.100 C 
ATOM     24  C   LIG    1        7.548   2.375  -9.435  0.00  0.00    +0.100 C 
ATOM     25  N   LIG    1        7.622   0.971  -8.996  0.00  0.00    -0.300 NA
ATOM     26  C   LIG    1        7.162   0.129 -10.126  0.00  0.00    +0.100 C 
ATOM     27  C   LIG    1        7.808   0.415 -11.509  0.00  0.00    +0.100 C 
BRANCH  22  28
ATOM     28  C   LIG    1        8.793   2.041 -13.049  0.00  0.00    +0.112 C 
BRANCH  28  29
ATOM     29  C   LIG    1        8.445   1.272 -14.338  0.00  0.00    +0.171 C 
BRANCH  29  30
ATOM     30  O   LIG    1        7.180   1.671 -14.858  0.00  0.00    -0.394 OA
ATOM     31  H   LIG    1        6.675   2.030 -14.104  0.00  0.00    +0.209 HD
ENDBRANCH  29  30
ENDBRANCH  28  29
ENDBRANCH  22  28
ENDBRANCH  21  25
ENDBRANCH  20  21
ENDBRANCH   1  20
TORSDOF 7
