REMARK  Name = *****
REMARK                            x       y       z     vdW  Elec       q    Type
REMARK                         _______ _______ _______ _____ _____    ______ ____
ROOT
ATOM      1  C   LIG    1        6.939  -2.185   1.612  0.00  0.00    -0.014 A 
ATOM      2  C   LIG    1        7.630  -1.301   0.767  0.00  0.00    +0.055 A 
ATOM      3  C   LIG    1        8.918  -1.605   0.348  0.00  0.00    +0.159 A 
ATOM      4  C   LIG    1        9.556  -2.759   0.779  0.00  0.00    +0.158 A 
ATOM      5  C   LIG    1        8.918  -3.628   1.652  0.00  0.00    +0.049 A 
ATOM      6  C   LIG    1        7.614  -3.334   2.069  0.00  0.00    +0.010 A 
ENDROOT
BRANCH   3   7
ATOM      7  O   LIG    1        9.546  -0.750  -0.512  0.00  0.00    -0.503 OA
ATOM      8  H   LIG    1       10.417  -1.167  -0.675  0.00  0.00    +0.292 HD
ENDBRANCH   3   7
BRANCH   4   9
ATOM      9  O   LIG    1       10.820  -2.998   0.313  0.00  0.00    -0.503 OA
ATOM     10  H   LIG    1       11.120  -3.845   0.683  0.00  0.00    +0.292 HD
ENDBRANCH   4   9
BRANCH   1  11
ATOM     11  C   LIG    1        5.513  -1.901   2.056  0.00  0.00    +0.158 C 
BRANCH  11  12
ATOM     12  O   LIG    1        4.842  -3.146   2.298  0.00  0.00    -0.386 OA
ATOM     13  H   LIG    1        4.485  -3.403   1.424  0.00  0.00    +0.210 HD
ENDBRANCH  11  12
BRANCH  11  14
ATOM     14  C   LIG    1        4.637  -1.082   1.065  0.00  0.00    +0.117 C 
BRANCH  14  15
ATOM     15  N   LIG    1        4.414  -1.813  -0.202  0.00  0.00    -0.311 NA
ATOM     16  H   LIG    1        5.324  -2.062  -0.600  0.00  0.00    +0.122 HD
BRANCH  15  18
ATOM     17  C   LIG    1        3.588  -1.821  -2.495  0.00  0.00    +0.024 C 
ATOM     18  C   LIG    1        3.680  -1.014  -1.197  0.00  0.00    +0.048 C 
ATOM     19  C   LIG    1        2.275  -0.643  -0.720  0.00  0.00    +0.024 C 
ENDBRANCH  15  18
ENDBRANCH  14  15
ENDBRANCH  11  14
ENDBRANCH   1  11
TORSDOF 7
