REMARK  Name = *****
REMARK                            x       y       z     vdW  Elec       q    Type
REMARK                         _______ _______ _______ _____ _____    ______ ____
ROOT
ATOM      1  N   LIG    1        7.270   3.239  -0.800  0.00  0.00    -0.283 NA
ATOM      2  C   LIG    1        7.817   4.401  -0.943  0.00  0.00    +0.076 C 
ENDROOT
BRANCH   2   3
ATOM      3  C   LIG    1        7.252   5.576  -1.704  0.00  0.00    +0.045 A 
ATOM      4  C   LIG    1        8.017   6.332  -2.619  0.00  0.00    +0.126 A 
ATOM      5  C   LIG    1        7.439   7.350  -3.392  0.00  0.00    +0.049 A 
ATOM      6  C   LIG    1        6.090   7.646  -3.236  0.00  0.00    +0.042 A 
ATOM      7  C   LIG    1        5.353   6.964  -2.275  0.00  0.00    +0.124 A 
ATOM      8  F   LIG    1        4.061   7.274  -2.111  0.00  0.00    -0.205 F 
ATOM      9  C   LIG    1        5.920   5.951  -1.498  0.00  0.00    +0.052 A 
BRANCH   4  10
ATOM     10  O   LIG    1        9.354   6.098  -2.788  0.00  0.00    -0.506 OA
ATOM     11  H   LIG    1        9.773   6.903  -3.141  0.00  0.00    +0.292 HD
ENDBRANCH   4  10
ENDBRANCH   2   3
BRANCH   2  12
ATOM     12  C   LIG    1        9.165   4.558  -0.274  0.00  0.00    +0.001 A 
ATOM     13  C   LIG    1        9.976   3.419  -0.141  0.00  0.00    +0.011 A 
ATOM     14  C   LIG    1       11.242   3.507   0.444  0.00  0.00    +0.020 A 
ATOM     15  C   LIG    1       11.704   4.737   0.901  0.00  0.00    +0.041 A 
ATOM     16 CL   LIG    1       13.279   4.857   1.583  0.00  0.00    -0.084 Cl
ATOM     17  C   LIG    1       10.900   5.872   0.804  0.00  0.00    +0.020 A 
ATOM     18  C   LIG    1        9.624   5.782   0.230  0.00  0.00    +0.011 A 
ENDBRANCH   2  12
BRANCH   1  19
ATOM     19  C   LIG    1        6.010   2.737  -1.330  0.00  0.00    +0.142 C 
BRANCH  19  20
ATOM     20  C   LIG    1        6.112   1.200  -1.462  0.00  0.00    +0.032 C 
BRANCH  20  21
ATOM     21  C   LIG    1        4.815   0.532  -1.935  0.00  0.00    +0.097 C 
BRANCH  21  25
ATOM     22  N   LIG    1        5.233   0.961  -4.304  0.00  0.00    -0.329 N 
ATOM     23  H   LIG    1        6.227   1.052  -4.127  0.00  0.00    +0.145 HD
ATOM     24  H   LIG    1        4.901   1.216  -5.226  0.00  0.00    +0.145 HD
ATOM     25  C   LIG    1        4.319   0.944  -3.302  0.00  0.00    +0.210 C 
ATOM     26  O   LIG    1        3.121   1.159  -3.544  0.00  0.00    -0.276 OA
ENDBRANCH  21  25
ENDBRANCH  20  21
ENDBRANCH  19  20
ENDBRANCH   1  19
TORSDOF 7
