REMARK  Name = *****
REMARK                            x       y       z     vdW  Elec       q    Type
REMARK                         _______ _______ _______ _____ _____    ______ ____
ROOT
ATOM      1  N   LIG    1       -0.047  -1.625   3.092  0.00  0.00    -0.282 N 
ATOM      2  C   LIG    1       -1.331  -2.220   2.952  0.00  0.00    +0.139 A 
ATOM      3  C   LIG    1       -1.666  -3.400   3.635  0.00  0.00    +0.053 A 
ATOM      4  C   LIG    1       -2.957  -3.932   3.493  0.00  0.00    +0.020 A 
ATOM      5  C   LIG    1       -3.888  -3.298   2.687  0.00  0.00    +0.021 A 
ATOM      6  C   LIG    1       -3.488  -2.152   2.036  0.00  0.00    +0.113 A 
ATOM      7  S   LIG    1       -0.545  -4.313   4.658  0.00  0.00    -0.084 S 
ATOM      8  C   LIG    1        0.852  -3.214   4.753  0.00  0.00    +0.034 A 
ATOM      9  C   LIG    1        1.860  -3.600   5.658  0.00  0.00    +0.017 A 
ATOM     10  C   LIG    1        2.999  -2.824   5.836  0.00  0.00    +0.001 A 
ATOM     11  C   LIG    1        3.144  -1.663   5.096  0.00  0.00    +0.002 A 
ATOM     12  C   LIG    1        2.154  -1.290   4.180  0.00  0.00    +0.024 A 
ATOM     13  N   LIG    1       -2.251  -1.617   2.147  0.00  0.00    -0.239 NA
ATOM     14  C   LIG    1        0.974  -2.038   3.982  0.00  0.00    +0.049 A 
ENDROOT
BRANCH   1  15
ATOM     15  C   LIG    1        0.213  -0.528   2.126  0.00  0.00    +0.131 C 
BRANCH  15  17
ATOM     16  C   LIG    1        0.056   1.319   3.949  0.00  0.00    +0.026 C 
ATOM     17  C   LIG    1       -0.366   0.866   2.543  0.00  0.00    +0.071 C 
BRANCH  17  18
ATOM     18  N   LIG    1       -0.099   1.984   1.589  0.00  0.00    -0.304 NA
ATOM     19  C   LIG    1       -0.874   1.838   0.355  0.00  0.00    +0.105 C 
ATOM     20  C   LIG    1        1.311   2.203   1.277  0.00  0.00    +0.105 C 
ENDBRANCH  17  18
ENDBRANCH  15  17
ENDBRANCH   1  15
TORSDOF 3
