REMARK  Name = *****
REMARK                            x       y       z     vdW  Elec       q    Type
REMARK                         _______ _______ _______ _____ _____    ______ ____
ROOT
ATOM      1  C   LIG    1       -1.281  -0.499  -4.485  0.00  0.00    +0.064 A 
ATOM      2  C   LIG    1       -0.373  -0.030  -5.469  0.00  0.00    +0.057 A 
ATOM      3  I   LIG    1        1.594  -0.938  -5.810  0.00  0.00    -0.040 I 
ATOM      4  C   LIG    1       -0.689   1.057  -6.319  0.00  0.00    +0.053 A 
ATOM      5  C   LIG    1       -1.999   1.560  -6.296  0.00  0.00    +0.036 A 
ATOM      6  I   LIG    1       -2.612   3.052  -7.649  0.00  0.00    -0.042 I 
ATOM      7  C   LIG    1       -2.938   1.076  -5.385  0.00  0.00    +0.032 A 
ATOM      8  C   LIG    1       -2.578   0.068  -4.473  0.00  0.00    +0.037 A 
ATOM      9  I   LIG    1       -4.139  -0.618  -3.232  0.00  0.00    -0.042 I 
ENDROOT
BRANCH   1  12
ATOM     10  C   LIG    1       -1.274  -3.306  -5.226  0.00  0.00    +0.110 C 
ATOM     11  C   LIG    1       -0.604  -2.814  -3.958  0.00  0.00    +0.217 C 
ATOM     12  N   LIG    1       -0.895  -1.512  -3.543  0.00  0.00    -0.269 N 
ATOM     13  O   LIG    1        0.139  -3.560  -3.315  0.00  0.00    -0.276 OA
BRANCH  12  14
ATOM     14  C   LIG    1       -0.415  -1.056  -2.209  0.00  0.00    +0.128 C 
BRANCH  14  15
ATOM     15  C   LIG    1        1.114  -0.917  -2.045  0.00  0.00    +0.112 C 
ATOM     16  C   LIG    1        1.567  -0.785  -0.589  0.00  0.00    +0.021 C 
BRANCH  15  17
ATOM     17  C   LIG    1        1.644   0.355  -2.680  0.00  0.00    +0.309 C 
ATOM     18  O   LIG    1        0.969   1.310  -2.944  0.00  0.00    -0.251 OA
BRANCH  17  19
ATOM     19  O   LIG    1        2.979   0.326  -2.912  0.00  0.00    -0.480 OA
ATOM     20  H   LIG    1        3.379  -0.516  -2.711  0.00  0.00    +0.295 HD
ENDBRANCH  17  19
ENDBRANCH  15  17
ENDBRANCH  14  15
ENDBRANCH  12  14
ENDBRANCH   1  12
BRANCH   4  21
ATOM     21  N   LIG    1        0.228   1.466  -7.313  0.00  0.00    -0.356 N 
ATOM     22  H   LIG    1        1.187   1.284  -7.019  0.00  0.00    +0.142 HD
ATOM     23  H   LIG    1        0.094   2.432  -7.598  0.00  0.00    +0.142 HD
ENDBRANCH   4  21
TORSDOF 6
