REMARK  Name = *****
REMARK                            x       y       z     vdW  Elec       q    Type
REMARK                         _______ _______ _______ _____ _____    ______ ____
ROOT
ATOM      1  C   LIG    1        8.373   1.388  -2.108  0.00  0.00    -0.006 A 
ATOM      2  C   LIG    1        9.381   1.357  -1.135  0.00  0.00    +0.120 A 
ATOM      3  C   LIG    1       10.734   1.444  -1.477  0.00  0.00    +0.049 A 
ATOM      4  C   LIG    1       11.120   1.596  -2.811  0.00  0.00    -0.047 A 
ATOM      5  C   LIG    1       12.572   1.746  -3.154  0.00  0.00    +0.044 C 
ATOM      6  C   LIG    1       10.130   1.676  -3.791  0.00  0.00    +0.004 A 
ATOM      7  C   LIG    1        8.776   1.569  -3.445  0.00  0.00    +0.007 A 
ENDROOT
BRANCH   2   8
ATOM      8  O   LIG    1        9.052   1.274   0.187  0.00  0.00    -0.506 OA
ATOM      9  H   LIG    1        9.863   1.207   0.713  0.00  0.00    +0.292 HD
ENDBRANCH   2   8
BRANCH   1  10
ATOM     10  C   LIG    1        6.888   1.325  -1.801  0.00  0.00    +0.039 C 
BRANCH  10  11
ATOM     11  C   LIG    1        6.465   0.367  -0.679  0.00  0.00    +0.005 C 
BRANCH  11  12
ATOM     12  C   LIG    1        4.947   0.305  -0.485  0.00  0.00    +0.000 C 
BRANCH  12  14
ATOM     13  C   LIG    1        4.877  -2.024   0.561  0.00  0.00    +0.004 C 
ATOM     14  C   LIG    1        4.556  -0.546   0.729  0.00  0.00    -0.003 C 
ENDBRANCH  12  14
ENDBRANCH  11  12
ENDBRANCH  10  11
ENDBRANCH   1  10
TORSDOF 5
