REMARK  Name = *****
REMARK                            x       y       z     vdW  Elec       q    Type
REMARK                         _______ _______ _______ _____ _____    ______ ____
ROOT
ATOM      1  C   LIG    1       -0.419   1.076  -3.809  0.00  0.00    +0.169 C 
ATOM      2  C   LIG    1        0.209   1.272  -2.395  0.00  0.00    +0.175 C 
ATOM      3  C   LIG    1       -0.812   1.046  -1.241  0.00  0.00    +0.169 C 
ATOM      4  C   LIG    1       -2.281   1.301  -1.638  0.00  0.00    +0.084 C 
ATOM      5  C   LIG    1       -2.678   0.411  -2.836  0.00  0.00    +0.042 C 
ATOM      6  C   LIG    1       -1.466  -0.069  -3.662  0.00  0.00    +0.084 C 
ENDROOT
BRANCH   4   7
ATOM      7  N   LIG    1       -2.545   2.721  -1.883  0.00  0.00    -0.325 NA
ATOM      8  H   LIG    1       -2.049   3.277  -1.181  0.00  0.00    +0.118 HD
ATOM      9  H   LIG    1       -2.088   2.984  -2.766  0.00  0.00    +0.118 HD
ENDBRANCH   4   7
BRANCH   6  10
ATOM     10  N   LIG    1       -1.907  -0.736  -4.893  0.00  0.00    -0.325 NA
ATOM     11  H   LIG    1       -2.694  -0.249  -5.312  0.00  0.00    +0.118 HD
ATOM     12  H   LIG    1       -1.152  -0.716  -5.579  0.00  0.00    +0.118 HD
ENDBRANCH   6  10
BRANCH   2  13
ATOM     13  O   LIG    1        0.886   2.528  -2.271  0.00  0.00    -0.387 OA
ATOM     14  H   LIG    1        0.970   2.686  -1.308  0.00  0.00    +0.210 HD
ENDBRANCH   2  13
BRANCH   1  15
ATOM     15  O   LIG    1       -0.961   2.341  -4.239  0.00  0.00    -0.342 OA
BRANCH  15  18
ATOM     16  C   LIG    1       -0.995   2.280  -7.824  0.00  0.00    +0.138 C 
ATOM     17  O   LIG    1       -0.726   1.785  -6.510  0.00  0.00    -0.345 OA
ATOM     18  C   LIG    1       -1.589   2.356  -5.524  0.00  0.00    +0.268 C 
ATOM     19  C   LIG    1       -2.051   3.821  -5.868  0.00  0.00    +0.107 C 
ATOM     20  C   LIG    1       -0.972   4.549  -6.673  0.00  0.00    +0.026 C 
ATOM     21  C   LIG    1       -0.545   3.744  -7.907  0.00  0.00    +0.035 C 
BRANCH  19  22
ATOM     22  N   LIG    1       -2.471   4.624  -4.712  0.00  0.00    -0.323 NA
ATOM     23  H   LIG    1       -2.543   5.606  -4.970  0.00  0.00    +0.119 HD
ATOM     24  H   LIG    1       -1.730   4.573  -4.008  0.00  0.00    +0.119 HD
ENDBRANCH  19  22
BRANCH  16  25
ATOM     25  C   LIG    1       -0.362   1.345  -8.894  0.00  0.00    +0.079 C 
ATOM     26  C   LIG    1        1.169   1.290  -8.819  0.00  0.00    +0.026 C 
BRANCH  25  28
ATOM     27  C   LIG    1       -2.245  -0.239  -8.990  0.00  0.00    +0.101 C 
ATOM     28  N   LIG    1       -0.821  -0.056  -8.754  0.00  0.00    -0.314 NA
ATOM     29  H   LIG    1       -0.595  -0.363  -7.807  0.00  0.00    +0.122 HD
ENDBRANCH  25  28
ENDBRANCH  16  25
ENDBRANCH  15  18
ENDBRANCH   1  15
BRANCH   3  30
ATOM     30  O   LIG    1       -0.372   1.771  -0.085  0.00  0.00    -0.341 OA
BRANCH  30  31
ATOM     31  C   LIG    1       -1.075   1.510   1.135  0.00  0.00    +0.281 C 
ATOM     32  C   LIG    1       -1.042   0.039   1.634  0.00  0.00    +0.190 C 
ATOM     33  C   LIG    1        0.432  -0.462   1.712  0.00  0.00    +0.121 C 
ATOM     34  C   LIG    1        1.352   0.688   2.249  0.00  0.00    +0.104 C 
ATOM     35  C   LIG    1        2.380   0.144   3.244  0.00  0.00    +0.045 C 
ATOM     36  C   LIG    1        0.533   1.814   2.922  0.00  0.00    +0.199 C 
ATOM     37  O   LIG    1       -0.531   2.371   2.141  0.00  0.00    -0.346 OA
BRANCH  33  38
ATOM     38  N   LIG    1        0.845  -1.031   0.398  0.00  0.00    -0.311 NA
ATOM     39  H   LIG    1        0.112  -1.699   0.131  0.00  0.00    +0.122 HD
ATOM     40  C   LIG    1        2.132  -1.698   0.369  0.00  0.00    +0.101 C 
ENDBRANCH  33  38
BRANCH  32  41
ATOM     41  O   LIG    1       -1.867  -0.859   0.874  0.00  0.00    -0.385 OA
ATOM     42  H   LIG    1       -2.778  -0.552   0.949  0.00  0.00    +0.210 HD
ENDBRANCH  32  41
BRANCH  34  43
ATOM     43  O   LIG    1        2.103   1.280   1.174  0.00  0.00    -0.385 OA
ATOM     44  H   LIG    1        1.640   1.005   0.355  0.00  0.00    +0.210 HD
ENDBRANCH  34  43
ENDBRANCH  30  31
ENDBRANCH   3  30
TORSDOF 13
