REMARK  Name = *****
REMARK                            x       y       z     vdW  Elec       q    Type
REMARK                         _______ _______ _______ _____ _____    ______ ____
ROOT
ATOM      1  C   LIG    1        3.931   0.738   1.827  0.00  0.00    +0.195 C 
ATOM      2  N   LIG    1        4.344   1.962   1.339  0.00  0.00    -0.293 N 
ATOM      3  H   LIG    1        3.950   2.813   1.708  0.00  0.00    +0.172 HD
ATOM      4  C   LIG    1        5.341   2.132   0.391  0.00  0.00    +0.280 C 
ATOM      5  O   LIG    1        5.709   3.256   0.028  0.00  0.00    -0.265 OA
ATOM      6  C   LIG    1        5.852   0.874  -0.096  0.00  0.00    +0.172 A 
ATOM      7  N   LIG    1        6.700   0.594  -1.135  0.00  0.00    -0.229 NA
ATOM      8  C   LIG    1        6.737  -0.722  -1.189  0.00  0.00    +0.201 A 
ATOM      9  N   LIG    1        5.987  -1.305  -0.196  0.00  0.00    -0.315 N 
ATOM     10  C   LIG    1        5.378  -0.289   0.489  0.00  0.00    +0.169 A 
ATOM     11  N   LIG    1        4.444  -0.406   1.462  0.00  0.00    -0.196 NA
ENDROOT
BRANCH   1  12
ATOM     12  N   LIG    1        2.908   0.767   2.717  0.00  0.00    -0.329 N 
ATOM     13  H   LIG    1        2.194   1.460   2.529  0.00  0.00    +0.145 HD
ATOM     14  H   LIG    1        2.504  -0.158   2.835  0.00  0.00    +0.145 HD
ENDBRANCH   1  12
BRANCH   9  15
ATOM     15  C   LIG    1        5.764  -2.728  -0.025  0.00  0.00    +0.125 C 
BRANCH  15  16
ATOM     16  C   LIG    1        7.022  -3.569   0.267  0.00  0.00    +0.029 C 
BRANCH  16  17
ATOM     17  C   LIG    1        7.738  -3.230   1.596  0.00  0.00    +0.042 C 
BRANCH  17  18
ATOM     18  C   LIG    1        9.070  -4.000   1.740  0.00  0.00    +0.161 C 
BRANCH  18  19
ATOM     19  O   LIG    1        8.908  -5.409   1.815  0.00  0.00    -0.395 OA
ATOM     20  H   LIG    1        8.218  -5.582   2.488  0.00  0.00    +0.209 HD
ENDBRANCH  18  19
ENDBRANCH  17  18
BRANCH  17  21
ATOM     21  C   LIG    1        6.834  -3.490   2.810  0.00  0.00    +0.161 C 
BRANCH  21  22
ATOM     22  O   LIG    1        6.447  -4.861   2.853  0.00  0.00    -0.395 OA
ATOM     23  H   LIG    1        5.724  -4.936   3.502  0.00  0.00    +0.209 HD
ENDBRANCH  21  22
ENDBRANCH  17  21
ENDBRANCH  16  17
ENDBRANCH  15  16
ENDBRANCH   9  15
TORSDOF 8
