REMARK  Name = *****
REMARK                            x       y       z     vdW  Elec       q    Type
REMARK                         _______ _______ _______ _____ _____    ______ ____
ROOT
ATOM      1  C   LIG    1        2.478  -1.507  -0.364  0.00  0.00    +0.089 C 
ATOM      2  C   LIG    1        2.073  -0.146   0.137  0.00  0.00    +0.103 C 
ATOM      3  N   LIG    1        0.795  -0.044   0.665  0.00  0.00    -0.208 N 
ATOM      4  H   LIG    1        0.229  -0.885   0.706  0.00  0.00    +0.298 HD
ATOM      5  C   LIG    1        0.131   1.132   0.934  0.00  0.00    +0.269 C 
ATOM      6  C   LIG    1        0.842   2.280   0.953  0.00  0.00    +0.133 C 
ATOM      7  C   LIG    1        2.357   2.259   0.721  0.00  0.00    +0.104 C 
ATOM      8  C   LIG    1        2.851   0.960   0.083  0.00  0.00    +0.088 C 
ENDROOT
BRANCH   7   9
ATOM      9  C   LIG    1        3.130   2.538   2.023  0.00  0.00    -0.028 A 
ATOM     10  C   LIG    1        3.088   1.641   3.105  0.00  0.00    +0.088 A 
ATOM     11  C   LIG    1        3.796   1.937   4.275  0.00  0.00    +0.273 A 
ATOM     12  C   LIG    1        4.553   3.102   4.405  0.00  0.00    +0.084 A 
ATOM     13  C   LIG    1        4.609   3.985   3.329  0.00  0.00    +0.007 A 
ATOM     14  C   LIG    1        3.904   3.706   2.151  0.00  0.00    +0.005 A 
BRANCH  11  15
ATOM     15  N   LIG    1        3.745   1.004   5.387  0.00  0.00    +0.080 N 
ATOM     16  O   LIG    1        4.040  -0.175   5.151  0.00  0.00    -0.576 OA
ATOM     17  O   LIG    1        3.416   1.459   6.491  0.00  0.00    +0.041 OA
ENDBRANCH  11  15
ENDBRANCH   7   9
BRANCH   5  18
ATOM     18  N   LIG    1       -1.221   1.033   1.149  0.00  0.00    -0.251 N 
ATOM     19  H   LIG    1       -1.671   0.405   0.493  0.00  0.00    +0.288 HD
ATOM     20  H   LIG    1       -1.688   1.941   1.176  0.00  0.00    +0.288 HD
ENDBRANCH   5  18
BRANCH   6  21
ATOM     21  C   LIG    1        0.295   3.647   1.149  0.00  0.00    +0.344 C 
ATOM     22  O   LIG    1        0.950   4.665   0.968  0.00  0.00    -0.245 OA
BRANCH  21  23
ATOM     23  O   LIG    1       -0.980   3.639   1.627  0.00  0.00    -0.455 OA
BRANCH  23  24
ATOM     24  C   LIG    1       -1.283   4.807   2.422  0.00  0.00    +0.205 C 
ATOM     25  C   LIG    1       -2.597   4.815   3.231  0.00  0.00    +0.131 C 
ATOM     26  N   LIG    1       -1.855   5.239   4.446  0.00  0.00    -0.284 NA
ATOM     27  C   LIG    1       -0.592   4.822   3.797  0.00  0.00    +0.131 C 
BRANCH  26  28
ATOM     28  C   LIG    1       -1.899   6.717   4.656  0.00  0.00    +0.117 C 
BRANCH  28  29
ATOM     29  C   LIG    1       -0.709   7.225   5.491  0.00  0.00    -0.026 A 
ATOM     30  C   LIG    1       -0.111   6.436   6.491  0.00  0.00    +0.005 A 
ATOM     31  C   LIG    1        1.019   6.884   7.174  0.00  0.00    +0.000 A 
ATOM     32  C   LIG    1        1.540   8.148   6.906  0.00  0.00    +0.000 A 
ATOM     33  C   LIG    1        0.935   8.962   5.952  0.00  0.00    +0.000 A 
ATOM     34  C   LIG    1       -0.176   8.502   5.243  0.00  0.00    +0.005 A 
ENDBRANCH  28  29
BRANCH  28  35
ATOM     35  C   LIG    1       -3.212   7.192   5.295  0.00  0.00    -0.026 A 
ATOM     36  C   LIG    1       -3.667   8.504   5.059  0.00  0.00    +0.005 A 
ATOM     37  C   LIG    1       -4.795   9.005   5.712  0.00  0.00    +0.000 A 
ATOM     38  C   LIG    1       -5.499   8.199   6.601  0.00  0.00    +0.000 A 
ATOM     39  C   LIG    1       -5.077   6.892   6.835  0.00  0.00    +0.000 A 
ATOM     40  C   LIG    1       -3.938   6.394   6.194  0.00  0.00    +0.005 A 
ENDBRANCH  28  35
ENDBRANCH  26  28
ENDBRANCH  23  24
ENDBRANCH  21  23
ENDBRANCH   6  21
BRANCH   8  41
ATOM     41  C   LIG    1        4.146   0.995  -0.658  0.00  0.00    +0.340 C 
ATOM     42  O   LIG    1        4.765   0.028  -1.067  0.00  0.00    -0.245 OA
BRANCH  41  43
ATOM     43  O   LIG    1        4.441   2.289  -0.933  0.00  0.00    -0.459 OA
BRANCH  43  44
ATOM     44  C   LIG    1        5.389   2.558  -1.979  0.00  0.00    +0.171 C 
ATOM     45  C   LIG    1        5.730   4.042  -1.876  0.00  0.00    +0.051 C 
ATOM     46  C   LIG    1        4.733   2.266  -3.327  0.00  0.00    +0.051 C 
ENDBRANCH  43  44
ENDBRANCH  41  43
ENDBRANCH   8  41
TORSDOF 12
