REMARK  Name = *****
REMARK                            x       y       z     vdW  Elec       q    Type
REMARK                         _______ _______ _______ _____ _____    ______ ____
ROOT
ATOM      1  C   LIG    1        7.032   5.578   0.842  0.00  0.00    +0.021 C 
ENDROOT
BRANCH   1   2
ATOM      2  C   LIG    1        6.798   7.087   1.015  0.00  0.00    +0.105 C 
BRANCH   2   7
ATOM      3  N   LIG    1        7.368   9.195  -1.888  0.00  0.00    -0.313 N 
ATOM      4  H   LIG    1        8.229   9.607  -1.559  0.00  0.00    +0.146 HD
ATOM      5  H   LIG    1        6.816   9.809  -2.473  0.00  0.00    +0.146 HD
ATOM      6  C   LIG    1        6.616   8.571  -0.943  0.00  0.00    +0.297 C 
ATOM      7  N   LIG    1        7.373   7.827  -0.095  0.00  0.00    -0.300 N 
ATOM      8  H   LIG    1        8.317   7.617  -0.379  0.00  0.00    +0.150 HD
ATOM      9  O   LIG    1        5.405   8.708  -0.903  0.00  0.00    -0.253 OA
ENDBRANCH   2   7
ENDBRANCH   1   2
BRANCH   1  10
ATOM     10  C   LIG    1        6.421   4.729   1.968  0.00  0.00    +0.031 C 
BRANCH  10  11
ATOM     11  CA  LIG    1        6.661   3.210   1.838  0.00  0.00    +0.161 C 
BRANCH  11  12
ATOM     12  N   LIG    1        5.848   2.483   2.873  0.00  0.00    -0.318 NA
ATOM     13  H1  LIG    1        5.778   3.067   3.713  0.00  0.00    +0.119 HD
ATOM     14  H2  LIG    1        4.886   2.431   2.525  0.00  0.00    +0.119 HD
ENDBRANCH  11  12
BRANCH  11  15
ATOM     15  C   LIG    1        8.134   2.791   2.047  0.00  0.00    +0.322 C 
ATOM     16  O   LIG    1        9.081   3.146   1.353  0.00  0.00    -0.249 OA
BRANCH  15  17
ATOM     17  OXT LIG    1        8.273   1.942   3.100  0.00  0.00    -0.479 OA
ATOM     18  HXT LIG    1        7.350   1.754   3.409  0.00  0.00    +0.295 HD
ENDBRANCH  15  17
ENDBRANCH  11  15
ENDBRANCH  10  11
ENDBRANCH   1  10
TORSDOF 7
