REMARK  Name = *****
REMARK                            x       y       z     vdW  Elec       q    Type
REMARK                         _______ _______ _______ _____ _____    ______ ____
ROOT
ATOM      1  O   LIG    1        0.841   0.057   0.059  0.00  0.00    -0.287 OA
ATOM      2  C   LIG    1        2.067   0.051   0.059  0.00  0.00    +0.195 C 
ATOM      3  C   LIG    1        2.803  -1.224   0.059  0.00  0.00    +0.037 A 
ATOM      4  C   LIG    1        4.195  -1.234   0.059  0.00  0.00    +0.074 A 
ATOM      5  C   LIG    1        4.864  -2.467   0.060  0.00  0.00    +0.128 A 
ATOM      6  C   LIG    1        4.152  -3.666   0.059  0.00  0.00    +0.046 A 
ATOM      7  C   LIG    1        2.760  -3.648   0.059  0.00  0.00    +0.004 A 
ATOM      8  C   LIG    1        4.948   0.039   0.059  0.00  0.00    +0.202 C 
ATOM      9  O   LIG    1        6.174  -0.031   0.060  0.00  0.00    -0.286 OA
ATOM     10  C   LIG    1        4.214   1.333   0.059  0.00  0.00    +0.074 A 
ATOM     11  C   LIG    1        4.874   2.573   0.058  0.00  0.00    +0.128 A 
ATOM     12  C   LIG    1        4.151   3.771   0.058  0.00  0.00    +0.046 A 
ATOM     13  C   LIG    1        2.759   3.745   0.059  0.00  0.00    +0.004 A 
ATOM     14  C   LIG    1        2.091   2.524   0.059  0.00  0.00    +0.012 A 
ATOM     15  C   LIG    1        2.083  -2.429   0.059  0.00  0.00    +0.012 A 
ATOM     16  C   LIG    1        2.817   1.322   0.059  0.00  0.00    +0.037 A 
ENDROOT
BRANCH   5  17
ATOM     17  O   LIG    1        6.229  -2.579   0.060  0.00  0.00    -0.506 OA
ATOM     18  H   LIG    1        6.606  -1.668   0.061  0.00  0.00    +0.292 HD
ENDBRANCH   5  17
BRANCH  11  19
ATOM     19  O   LIG    1        6.238   2.643   0.056  0.00  0.00    -0.506 OA
ATOM     20  H   LIG    1        6.534   3.567   0.050  0.00  0.00    +0.292 HD
ENDBRANCH  11  19
TORSDOF 2
