REMARK  Name = *****
REMARK                            x       y       z     vdW  Elec       q    Type
REMARK                         _______ _______ _______ _____ _____    ______ ____
ROOT
ATOM      1  CA  ALA A  1        6.299  -1.990  -5.314  0.00  0.00    +0.138 C 
ATOM      2  CB  ALA A  1        7.062  -1.864  -6.649  0.00  0.00    +0.034 C 
ENDROOT
BRANCH   1   3
ATOM      3  C   ALA A  1        5.595  -3.402  -5.261  0.00  0.00    +0.233 C 
ATOM      4  N   UNK A  2        5.742  -4.234  -4.172  0.00  0.00    -0.284 N 
ATOM      5  C   UNK A  2        5.088  -5.526  -4.040  0.00  0.00    +0.187 C 
ATOM      6  C   UNK A  2        6.033  -6.314  -3.106  0.00  0.00    +0.064 C 
ATOM      7  C   UNK A  2        6.749  -5.270  -2.236  0.00  0.00    +0.080 C 
ATOM      8  S   UNK A  2        6.178  -5.227  -0.502  0.00  0.00    -0.141 S 
ATOM      9  C   UNK A  2        7.679  -4.518   0.258  0.00  0.00    +0.081 C 
ATOM     10  C   UNK A  2        8.770  -4.242  -0.764  0.00  0.00    +0.081 C 
ATOM     11  S   UNK A  2        8.591  -5.475  -2.094  0.00  0.00    -0.141 S 
ATOM     12  C   UNK A  2        6.486  -3.958  -2.963  0.00  0.00    +0.137 C 
ATOM     13  O   ALA A  1        4.850  -3.767  -6.182  0.00  0.00    -0.274 OA
BRANCH   5  14
ATOM     14  C   UNK A  2        3.666  -5.357  -3.467  0.00  0.00    +0.326 C 
ATOM     15  O   UNK A  2        3.316  -5.729  -2.357  0.00  0.00    -0.249 OA
BRANCH  14  16
ATOM     16  O   UNK A  2        2.795  -4.759  -4.320  0.00  0.00    -0.479 OA
ATOM     17  H   UNK A  2        3.197  -4.490  -5.177  0.00  0.00    +0.295 HD
ENDBRANCH  14  16
ENDBRANCH   5  14
ENDBRANCH   1   3
BRANCH   1  18
ATOM     18  N   ALA A  1        7.088  -1.692  -4.077  0.00  0.00    -0.294 NA
ATOM     19  H   ALA A  1        7.981  -2.202  -4.181  0.00  0.00    +0.123 HD
BRANCH  18  20
ATOM     20  C   UNK A  0        7.509  -0.300  -3.839  0.00  0.00    +0.164 C 
BRANCH  20  21
ATOM     21  C   UNK A  0        8.470  -0.009  -4.975  0.00  0.00    +0.324 C 
ATOM     22  O   UNK A  0        9.087  -0.790  -5.572  0.00  0.00    -0.249 OA
BRANCH  21  23
ATOM     23  O   UNK A  0        8.459   1.317  -5.191  0.00  0.00    -0.464 OA
BRANCH  23  25
ATOM     24  C   UNK A  0       10.831   1.010  -6.021  0.00  0.00    +0.048 C 
ATOM     25  C   UNK A  0        9.440   1.693  -6.136  0.00  0.00    +0.229 C 
ENDBRANCH  23  25
ENDBRANCH  21  23
ENDBRANCH  20  21
BRANCH  20  26
ATOM     26  C   UNK A  0        8.303  -0.124  -2.510  0.00  0.00    +0.035 C 
BRANCH  26  27
ATOM     27  C   UNK A  0        8.768   1.329  -2.102  0.00  0.00    +0.037 C 
BRANCH  27  28
ATOM     28  C   UNK A  0        9.909   2.079  -2.812  0.00  0.00    -0.047 A 
ATOM     29  C   UNK A  0       11.242   1.680  -2.663  0.00  0.00    +0.003 A 
ATOM     30  C   UNK A  0       12.277   2.198  -3.480  0.00  0.00    +0.000 A 
ATOM     31  C   UNK A  0       12.012   3.131  -4.478  0.00  0.00    +0.000 A 
ATOM     32  C   UNK A  0       10.728   3.649  -4.554  0.00  0.00    +0.000 A 
ATOM     33  C   UNK A  0        9.685   3.149  -3.702  0.00  0.00    +0.003 A 
ENDBRANCH  27  28
ENDBRANCH  26  27
ENDBRANCH  20  26
ENDBRANCH  18  20
ENDBRANCH   1  18
TORSDOF 11
