REMARK  Name = *****
REMARK                            x       y       z     vdW  Elec       q    Type
REMARK                         _______ _______ _______ _____ _____    ______ ____
ROOT
ATOM      1  C   LIG    1        5.811   1.109  -0.988  0.00  0.00    +0.166 C 
ENDROOT
BRANCH   1   2
ATOM      2  C   LIG    1        7.225   1.650  -0.579  0.00  0.00    -0.007 A 
ATOM      3  C   LIG    1        8.006   0.999   0.403  0.00  0.00    +0.007 A 
ATOM      4  C   LIG    1        9.201   1.538   0.889  0.00  0.00    +0.000 A 
ATOM      5  C   LIG    1        9.687   2.729   0.371  0.00  0.00    +0.000 A 
ATOM      6  C   LIG    1        8.974   3.374  -0.631  0.00  0.00    +0.000 A 
ATOM      7  C   LIG    1        7.749   2.858  -1.074  0.00  0.00    +0.007 A 
ENDBRANCH   1   2
BRANCH   1   8
ATOM      8  C   LIG    1        5.753  -0.389  -1.443  0.00  0.00    -0.007 A 
ATOM      9  C   LIG    1        6.893  -1.212  -1.540  0.00  0.00    +0.007 A 
ATOM     10  C   LIG    1        6.807  -2.564  -1.899  0.00  0.00    +0.000 A 
ATOM     11  C   LIG    1        5.580  -3.129  -2.217  0.00  0.00    +0.000 A 
ATOM     12  C   LIG    1        4.436  -2.342  -2.159  0.00  0.00    +0.000 A 
ATOM     13  C   LIG    1        4.520  -0.994  -1.775  0.00  0.00    +0.007 A 
ENDBRANCH   1   8
BRANCH   1  15
ATOM     14  C   LIG    1        5.727   1.922  -3.358  0.00  0.00    +0.195 C 
ATOM     15  O   LIG    1        5.198   1.931  -2.039  0.00  0.00    -0.363 OA
ENDBRANCH   1  15
BRANCH   1  16
ATOM     16  C   LIG    1        4.806   1.345   0.237  0.00  0.00    +0.325 C 
BRANCH  16  17
ATOM     17  C   LIG    1        5.153   0.497   1.464  0.00  0.00    +0.350 C 
ATOM     18  O   LIG    1        4.829  -0.661   1.623  0.00  0.00    -0.247 OA
BRANCH  17  19
ATOM     19  O   LIG    1        5.919   1.153   2.382  0.00  0.00    -0.478 OA
ATOM     20  H   LIG    1        6.143   2.061   2.082  0.00  0.00    +0.295 HD
ENDBRANCH  17  19
ENDBRANCH  16  17
BRANCH  16  21
ATOM     21  O   LIG    1        4.773   2.742   0.621  0.00  0.00    -0.444 OA
BRANCH  21  22
ATOM     22  C   LIG    1        3.527   3.152   1.064  0.00  0.00    +0.319 A 
ATOM     23  N   LIG    1        2.744   2.284   1.725  0.00  0.00    -0.200 NA
ATOM     24  C   LIG    1        1.556   2.759   2.165  0.00  0.00    +0.045 A 
ATOM     25  C   LIG    1        0.647   1.820   2.905  0.00  0.00    +0.066 C 
ATOM     26  C   LIG    1        1.152   4.061   1.945  0.00  0.00    +0.046 A 
ATOM     27  C   LIG    1        2.052   4.888   1.303  0.00  0.00    +0.045 A 
ATOM     28  C   LIG    1        1.694   6.324   1.054  0.00  0.00    +0.066 C 
ATOM     29  N   LIG    1        3.249   4.448   0.859  0.00  0.00    -0.200 NA
ENDBRANCH  21  22
ENDBRANCH  16  21
ENDBRANCH   1  16
TORSDOF 8
