REMARK  Name = *****
REMARK                            x       y       z     vdW  Elec       q    Type
REMARK                         _______ _______ _______ _____ _____    ______ ____
ROOT
ATOM      1  C   LIG    1        5.688  -0.614  -3.512  0.00  0.00    +0.139 A 
ATOM      2  C   LIG    1        5.747  -1.980  -3.783  0.00  0.00    +0.118 A 
ATOM      3  C   LIG    1        6.097  -2.436  -5.055  0.00  0.00    +0.149 A 
ATOM      4  C   LIG    1        6.312  -1.485  -6.065  0.00  0.00    +0.072 A 
ATOM      5  C   LIG    1        6.176  -0.116  -5.807  0.00  0.00    +0.010 A 
ATOM      6  C   LIG    1        5.860   0.325  -4.527  0.00  0.00    +0.047 A 
ENDROOT
BRANCH   3   7
ATOM      7  N   LIG    1        6.234  -3.929  -5.291  0.00  0.00    -0.383 NA
ATOM      8  C   LIG    1        7.305  -4.489  -4.352  0.00  0.00    +0.361 C 
ATOM      9  C   LIG    1        4.891  -4.598  -5.020  0.00  0.00    +0.361 C 
ATOM     10  C   LIG    1        6.653  -4.233  -6.721  0.00  0.00    +0.361 C 
ENDBRANCH   3   7
BRANCH   1  11
ATOM     11  O   LIG    1        5.428  -0.115  -2.221  0.00  0.00    -0.411 OA
BRANCH  11  14
ATOM     12  C   LIG    1        5.112   1.247   0.084  0.00  0.00    +0.135 C 
ATOM     13  N   LIG    1        5.546  -0.138   0.096  0.00  0.00    -0.273 N 
ATOM     14  C   LIG    1        5.880  -0.796  -1.078  0.00  0.00    +0.408 C 
ATOM     15  O   LIG    1        6.502  -1.849  -1.111  0.00  0.00    -0.226 OA
ATOM     16  C   LIG    1        6.076  -0.650   1.347  0.00  0.00    +0.135 C 
ENDBRANCH  11  14
ENDBRANCH   1  11
TORSDOF 3
