REMARK  Name = *****
REMARK                            x       y       z     vdW  Elec       q    Type
REMARK                         _______ _______ _______ _____ _____    ______ ____
ROOT
ATOM      1  N   ALA A  1        6.298  -1.396  -2.826  0.00  0.00    -0.294 NA
ATOM      2  H   ALA A  1        6.821  -1.586  -1.968  0.00  0.00    +0.123 HD
ENDROOT
BRANCH   1   3
ATOM      3  CA  ALA A  1        6.781  -2.312  -3.890  0.00  0.00    +0.138 C 
ATOM      4  CB  ALA A  1        8.289  -2.107  -4.078  0.00  0.00    +0.034 C 
BRANCH   3   5
ATOM      5  C   ALA A  1        6.447  -3.782  -3.550  0.00  0.00    +0.233 C 
ATOM      6  N   PRO A  2        6.284  -4.713  -4.559  0.00  0.00    -0.287 N 
ATOM      7  CA  PRO A  2        5.721  -6.040  -4.229  0.00  0.00    +0.184 C 
ATOM      8  CB  PRO A  2        5.374  -6.667  -5.585  0.00  0.00    +0.035 C 
ATOM      9  CG  PRO A  2        5.170  -5.470  -6.501  0.00  0.00    +0.021 C 
ATOM     10  CD  PRO A  2        6.194  -4.463  -5.992  0.00  0.00    +0.109 C 
ATOM     11  O   ALA A  1        6.395  -4.164  -2.376  0.00  0.00    -0.274 OA
BRANCH   7  12
ATOM     12  C   PRO A  2        6.671  -6.967  -3.450  0.00  0.00    +0.326 C 
ATOM     13  O   PRO A  2        6.383  -8.103  -3.136  0.00  0.00    -0.249 OA
BRANCH  12  14
ATOM     14  OXT PRO A  2        7.883  -6.437  -3.162  0.00  0.00    -0.479 OA
ATOM     15  HXT PRO A  2        7.905  -5.497  -3.395  0.00  0.00    +0.295 HD
ENDBRANCH  12  14
ENDBRANCH   7  12
ENDBRANCH   3   5
ENDBRANCH   1   3
BRANCH   1  16
ATOM     16  C   UNK A  0        4.848  -1.549  -2.521  0.00  0.00    +0.164 C 
BRANCH  16  17
ATOM     17  C   UNK A  0        3.992  -1.187  -3.733  0.00  0.00    +0.324 C 
ATOM     18  O   UNK A  0        3.783  -0.056  -4.138  0.00  0.00    -0.249 OA
BRANCH  17  19
ATOM     19  O   UNK A  0        3.506  -2.314  -4.329  0.00  0.00    -0.464 OA
BRANCH  19  21
ATOM     20  C   UNK A  0        3.475  -1.829  -6.697  0.00  0.00    +0.048 C 
ATOM     21  C   UNK A  0        2.647  -2.079  -5.453  0.00  0.00    +0.229 C 
ENDBRANCH  19  21
ENDBRANCH  17  19
ENDBRANCH  16  17
BRANCH  16  22
ATOM     22  C   UNK A  0        4.485  -0.643  -1.336  0.00  0.00    +0.035 C 
BRANCH  22  23
ATOM     23  C   UNK A  0        3.004  -0.764  -0.954  0.00  0.00    +0.037 C 
BRANCH  23  24
ATOM     24  C   UNK A  0        2.660   0.139   0.202  0.00  0.00    -0.047 A 
ATOM     25  C   UNK A  0        2.761  -0.325   1.519  0.00  0.00    +0.003 A 
ATOM     26  C   UNK A  0        2.463   0.521   2.587  0.00  0.00    +0.000 A 
ATOM     27  C   UNK A  0        2.067   1.836   2.349  0.00  0.00    +0.000 A 
ATOM     28  C   UNK A  0        1.970   2.308   1.041  0.00  0.00    +0.000 A 
ATOM     29  C   UNK A  0        2.268   1.464  -0.029  0.00  0.00    +0.003 A 
ENDBRANCH  23  24
ENDBRANCH  22  23
ENDBRANCH  16  22
ENDBRANCH   1  16
TORSDOF 11
