REMARK  Name = *****
REMARK                            x       y       z     vdW  Elec       q    Type
REMARK                         _______ _______ _______ _____ _____    ______ ____
ROOT
ATOM      1  C   LIG    1        9.857   5.340  -0.926  0.00  0.00    +0.131 A 
ATOM      2  C   LIG    1       11.203   5.289  -0.526  0.00  0.00    +0.059 A 
ATOM      3  C   LIG    1       12.050   6.382  -0.790  0.00  0.00    +0.015 A 
ATOM      4  C   LIG    1       11.591   7.494  -1.474  0.00  0.00    +0.001 A 
ATOM      5  C   LIG    1       10.267   7.538  -1.899  0.00  0.00    +0.004 A 
ATOM      6  C   LIG    1        9.405   6.474  -1.620  0.00  0.00    +0.046 A 
ENDROOT
BRANCH   2   7
ATOM      7  C   LIG    1       11.857   4.138   0.167  0.00  0.00    +0.167 C 
ATOM      8  O   LIG    1       12.874   4.384   0.817  0.00  0.00    -0.292 OA
BRANCH   7   9
ATOM      9  C   LIG    1       11.371   2.717  -0.079  0.00  0.00    +0.084 C 
BRANCH   9  10
ATOM     10  C   LIG    1       12.161   1.635   0.672  0.00  0.00    +0.043 C 
BRANCH  10  11
ATOM     11  C   LIG    1       11.981   1.672   2.174  0.00  0.00    -0.047 A 
ATOM     12  C   LIG    1       12.866   2.410   2.973  0.00  0.00    +0.003 A 
ATOM     13  C   LIG    1       12.694   2.486   4.354  0.00  0.00    +0.000 A 
ATOM     14  C   LIG    1       11.646   1.801   4.958  0.00  0.00    +0.000 A 
ATOM     15  C   LIG    1       10.766   1.050   4.179  0.00  0.00    +0.000 A 
ATOM     16  C   LIG    1       10.927   0.991   2.792  0.00  0.00    +0.003 A 
ENDBRANCH  10  11
ENDBRANCH   9  10
ENDBRANCH   7   9
ENDBRANCH   2   7
BRANCH   1  17
ATOM     17  O   LIG    1        9.049   4.288  -0.599  0.00  0.00    -0.489 OA
BRANCH  17  18
ATOM     18  C   LIG    1        7.660   4.358  -0.944  0.00  0.00    +0.261 C 
BRANCH  18  19
ATOM     19  C   LIG    1        6.954   3.103  -0.404  0.00  0.00    +0.166 C 
BRANCH  19  20
ATOM     20  O   LIG    1        7.545   1.927  -0.974  0.00  0.00    -0.387 OA
ATOM     21  H   LIG    1        8.501   1.988  -0.796  0.00  0.00    +0.210 HD
ENDBRANCH  19  20
BRANCH  19  22
ATOM     22  C   LIG    1        7.012   3.012   1.134  0.00  0.00    +0.115 C 
BRANCH  22  23
ATOM     23  N   LIG    1        6.339   4.155   1.756  0.00  0.00    -0.313 NA
ATOM     24  H   LIG    1        5.357   4.171   1.479  0.00  0.00    +0.122 HD
BRANCH  23  25
ATOM     25  C   LIG    1        6.431   4.103   3.214  0.00  0.00    +0.081 C 
BRANCH  25  27
ATOM     26  C   LIG    1        5.763   5.320   5.322  0.00  0.00    +0.005 C 
ATOM     27  C   LIG    1        5.728   5.328   3.802  0.00  0.00    +0.012 C 
ENDBRANCH  25  27
ENDBRANCH  23  25
ENDBRANCH  22  23
ENDBRANCH  19  22
ENDBRANCH  18  19
ENDBRANCH  17  18
ENDBRANCH   1  17
TORSDOF 12
