REMARK  Name = *****
REMARK                            x       y       z     vdW  Elec       q    Type
REMARK                         _______ _______ _______ _____ _____    ______ ____
ROOT
ATOM      1  C   LIG    1        7.730   3.701   2.136  0.00  0.00    +0.338 C 
ATOM      2  O   LIG    1        8.182   4.319   1.209  0.00  0.00    -0.245 OA
ENDROOT
BRANCH   1   5
ATOM      3  C   LIG    1        4.196   2.686   2.729  0.00  0.00    +0.065 C 
ATOM      4  C   LIG    1        5.619   2.732   3.322  0.00  0.00    +0.096 C 
ATOM      5  C   LIG    1        6.357   3.887   2.655  0.00  0.00    +0.065 C 
ATOM      6  C   LIG    1        5.683   5.040   2.428  0.00  0.00    +0.016 C 
ATOM      7  C   LIG    1        6.313   6.310   1.935  0.00  0.00    +0.061 C 
ATOM      8  N   LIG    1        4.304   5.051   2.642  0.00  0.00    -0.321 N 
ATOM      9  H   LIG    1        3.831   5.892   2.313  0.00  0.00    +0.152 HD
ATOM     10  C   LIG    1        3.568   3.871   2.491  0.00  0.00    +0.016 C 
ATOM     11  C   LIG    1        2.166   4.061   1.999  0.00  0.00    +0.061 C 
BRANCH   4  12
ATOM     12  C   LIG    1        5.571   2.820   4.877  0.00  0.00    -0.029 A 
ATOM     13  C   LIG    1        6.095   3.915   5.589  0.00  0.00    +0.088 A 
ATOM     14  C   LIG    1        5.963   4.001   6.985  0.00  0.00    +0.273 A 
ATOM     15  C   LIG    1        5.332   2.986   7.708  0.00  0.00    +0.084 A 
ATOM     16  C   LIG    1        4.835   1.879   7.025  0.00  0.00    +0.007 A 
ATOM     17  C   LIG    1        4.955   1.796   5.629  0.00  0.00    +0.005 A 
BRANCH  14  18
ATOM     18  N   LIG    1        6.470   5.189   7.683  0.00  0.00    +0.080 N 
ATOM     19  O   LIG    1        7.031   6.063   7.007  0.00  0.00    -0.576 OA
ATOM     20  O   LIG    1        6.306   5.252   8.912  0.00  0.00    +0.041 OA
ENDBRANCH  14  18
ENDBRANCH   4  12
BRANCH   3  21
ATOM     21  C   LIG    1        3.622   1.331   2.450  0.00  0.00    +0.337 C 
ATOM     22  O   LIG    1        2.511   1.076   2.289  0.00  0.00    -0.245 OA
BRANCH  21  24
ATOM     23  C   LIG    1        4.356  -0.927   2.736  0.00  0.00    +0.280 C 
ATOM     24  O   LIG    1        4.639   0.419   2.529  0.00  0.00    -0.465 OA
ENDBRANCH  21  24
ENDBRANCH   3  21
ENDBRANCH   1   5
BRANCH   1  25
ATOM     25  O   LIG    1        8.390   2.764   2.872  0.00  0.00    -0.454 OA
BRANCH  25  26
ATOM     26  C   LIG    1        9.861   2.761   2.826  0.00  0.00    +0.121 C 
ATOM     27  C   LIG    1       10.300   4.127   3.360  0.00  0.00    +0.057 C 
ATOM     28  C   LIG    1       10.338   2.415   1.407  0.00  0.00    +0.057 C 
BRANCH  26  29
ATOM     29  C   LIG    1       10.296   1.665   3.853  0.00  0.00    +0.131 C 
BRANCH  29  30
ATOM     30  N   LIG    1       11.702   1.508   4.386  0.00  0.00    -0.302 NA
ATOM     31  C   LIG    1       11.610   0.443   5.385  0.00  0.00    +0.105 C 
BRANCH  30  32
ATOM     32  C   LIG    1       12.757   1.282   3.376  0.00  0.00    +0.085 C 
BRANCH  32  33
ATOM     33  C   LIG    1       14.300   1.052   3.715  0.00  0.00    +0.028 C 
BRANCH  33  34
ATOM     34  C   LIG    1       14.892  -0.054   4.678  0.00  0.00    +0.050 C 
BRANCH  34  35
ATOM     35  C   LIG    1       16.420   0.249   5.068  0.00  0.00    -0.040 A 
ATOM     36  C   LIG    1       17.453  -0.655   4.764  0.00  0.00    +0.004 A 
ATOM     37  C   LIG    1       18.552  -0.818   5.614  0.00  0.00    +0.000 A 
ATOM     38  C   LIG    1       18.839   0.151   6.560  0.00  0.00    +0.000 A 
ATOM     39  C   LIG    1       18.012   1.269   6.644  0.00  0.00    +0.000 A 
ATOM     40  C   LIG    1       16.775   1.291   5.955  0.00  0.00    +0.004 A 
ENDBRANCH  34  35
BRANCH  34  41
ATOM     41  C   LIG    1       14.589  -1.532   4.232  0.00  0.00    -0.040 A 
ATOM     42  C   LIG    1       15.427  -2.612   4.563  0.00  0.00    +0.004 A 
ATOM     43  C   LIG    1       15.410  -3.817   3.850  0.00  0.00    +0.000 A 
ATOM     44  C   LIG    1       14.350  -4.101   3.009  0.00  0.00    +0.000 A 
ATOM     45  C   LIG    1       13.322  -3.177   2.913  0.00  0.00    +0.000 A 
ATOM     46  C   LIG    1       13.457  -1.906   3.497  0.00  0.00    +0.004 A 
ENDBRANCH  34  41
ENDBRANCH  33  34
ENDBRANCH  32  33
ENDBRANCH  30  32
ENDBRANCH  29  30
ENDBRANCH  26  29
ENDBRANCH  25  26
ENDBRANCH   1  25
TORSDOF 14
