REMARK  Name = *****
REMARK                            x       y       z     vdW  Elec       q    Type
REMARK                         _______ _______ _______ _____ _____    ______ ____
ROOT
ATOM      1  C   LIG    1        4.878   0.513   0.664  0.00  0.00    +0.129 C 
ATOM      2  C   LIG    1        5.402  -0.708   1.430  0.00  0.00    +0.236 C 
ATOM      3  O   LIG    1        5.789  -0.684   2.596  0.00  0.00    -0.274 OA
ATOM      4  N   LIG    1        5.389  -1.892   0.747  0.00  0.00    -0.239 N 
ATOM      5  H   LIG    1        5.715  -2.693   1.272  0.00  0.00    +0.159 HD
ATOM      6  C   LIG    1        5.601  -1.978  -0.593  0.00  0.00    +0.312 C 
ATOM      7  O   LIG    1        6.037  -3.000  -1.107  0.00  0.00    -0.252 OA
ATOM      8  N   LIG    1        5.405  -0.844  -1.319  0.00  0.00    -0.239 N 
ATOM      9  H   LIG    1        5.692  -0.900  -2.287  0.00  0.00    +0.159 HD
ATOM     10  C   LIG    1        5.334   0.418  -0.793  0.00  0.00    +0.236 C 
ATOM     11  O   LIG    1        5.557   1.385  -1.516  0.00  0.00    -0.274 OA
ENDROOT
BRANCH   1  12
ATOM     12  C   LIG    1        5.354   1.833   1.369  0.00  0.00    +0.007 C 
ATOM     13  C   LIG    1        4.685   3.122   0.867  0.00  0.00    +0.009 C 
ATOM     14  C   LIG    1        6.880   2.019   1.328  0.00  0.00    +0.009 C 
ENDBRANCH   1  12
BRANCH   1  15
ATOM     15  C   LIG    1        3.323   0.377   0.613  0.00  0.00    +0.052 C 
BRANCH  15  17
ATOM     16  C   LIG    1        2.120  -0.644   2.567  0.00  0.00    +0.004 C 
ATOM     17  C   LIG    1        2.636   0.428   1.952  0.00  0.00    -0.033 C 
ENDBRANCH  15  17
ENDBRANCH   1  15
TORSDOF 3
