REMARK  Name = *****
REMARK                            x       y       z     vdW  Elec       q    Type
REMARK                         _______ _______ _______ _____ _____    ______ ____
ROOT
ATOM      1  C   LIG    1        3.228  -0.297  -8.733  0.00  0.00    +0.169 C 
ATOM      2  C   LIG    1        2.857  -0.921  -7.362  0.00  0.00    +0.175 C 
ATOM      3  C   LIG    1        2.405   0.124  -6.313  0.00  0.00    +0.169 C 
ATOM      4  C   LIG    1        1.318   1.112  -6.871  0.00  0.00    +0.084 C 
ATOM      5  C   LIG    1        1.686   1.658  -8.268  0.00  0.00    +0.042 C 
ATOM      6  C   LIG    1        2.056   0.570  -9.287  0.00  0.00    +0.084 C 
ENDROOT
BRANCH   6   7
ATOM      7  N   LIG    1        0.853  -0.221  -9.630  0.00  0.00    -0.325 NA
ATOM      8  H   LIG    1        1.048  -0.785 -10.463  0.00  0.00    +0.118 HD
ATOM      9  H   LIG    1        0.116   0.427  -9.939  0.00  0.00    +0.118 HD
ENDBRANCH   6   7
BRANCH   4  10
ATOM     10  N   LIG    1       -0.037   0.526  -6.872  0.00  0.00    -0.325 NA
ATOM     11  H   LIG    1       -0.740   1.276  -6.943  0.00  0.00    +0.118 HD
ATOM     12  H   LIG    1       -0.174  -0.034  -7.714  0.00  0.00    +0.118 HD
ENDBRANCH   4  10
BRANCH   2  13
ATOM     13  O   LIG    1        1.871  -1.945  -7.527  0.00  0.00    -0.387 OA
ATOM     14  H   LIG    1        1.167  -1.561  -8.095  0.00  0.00    +0.210 HD
ENDBRANCH   2  13
BRANCH   3  15
ATOM     15  O   LIG    1        3.507   0.918  -5.812  0.00  0.00    -0.341 OA
BRANCH  15  16
ATOM     16  C   LIG    1        4.513   0.289  -4.980  0.00  0.00    +0.281 C 
ATOM     17  C   LIG    1        3.926  -0.250  -3.671  0.00  0.00    +0.189 C 
ATOM     18  C   LIG    1        5.033  -0.748  -2.715  0.00  0.00    +0.116 C 
ATOM     19  C   LIG    1        6.040   0.400  -2.478  0.00  0.00    +0.165 C 
ATOM     20  C   LIG    1        6.514   1.080  -3.775  0.00  0.00    +0.177 C 
ATOM     21  O   LIG    1        5.464   1.331  -4.729  0.00  0.00    -0.341 OA
BRANCH  18  22
ATOM     22  N   LIG    1        5.679  -2.002  -3.137  0.00  0.00    -0.323 NA
ATOM     23  H   LIG    1        4.984  -2.688  -3.430  0.00  0.00    +0.119 HD
ATOM     24  H   LIG    1        6.308  -1.845  -3.935  0.00  0.00    +0.119 HD
ENDBRANCH  18  22
BRANCH  17  25
ATOM     25  O   LIG    1        3.191   0.816  -3.035  0.00  0.00    -0.385 OA
ATOM     26  H   LIG    1        3.039   1.482  -3.740  0.00  0.00    +0.210 HD
ENDBRANCH  17  25
BRANCH  19  27
ATOM     27  O   LIG    1        5.423   1.406  -1.646  0.00  0.00    -0.388 OA
ATOM     28  H   LIG    1        4.500   1.504  -1.959  0.00  0.00    +0.210 HD
ENDBRANCH  19  27
BRANCH  20  29
ATOM     29  C   LIG    1        7.758   0.404  -4.378  0.00  0.00    +0.190 C 
BRANCH  29  30
ATOM     30  O   LIG    1        7.472  -0.862  -4.970  0.00  0.00    -0.392 OA
ATOM     31  H   LIG    1        8.306  -1.132  -5.405  0.00  0.00    +0.209 HD
ENDBRANCH  29  30
ENDBRANCH  20  29
ENDBRANCH  15  16
ENDBRANCH   3  15
BRANCH   1  32
ATOM     32  O   LIG    1        4.415   0.526  -8.703  0.00  0.00    -0.342 OA
BRANCH  32  37
ATOM     33  C   LIG    1        6.193  -0.977 -10.444  0.00  0.00    +0.163 C 
ATOM     34  C   LIG    1        7.196   0.193 -10.627  0.00  0.00    +0.146 C 
ATOM     35  C   LIG    1        7.041   1.341  -9.630  0.00  0.00    +0.057 C 
ATOM     36  C   LIG    1        6.845   0.776  -8.244  0.00  0.00    +0.110 C 
ATOM     37  C   LIG    1        5.601  -0.153  -8.283  0.00  0.00    +0.268 C 
ATOM     38  O   LIG    1        5.901  -1.290  -9.082  0.00  0.00    -0.343 OA
BRANCH  36  39
ATOM     39  N   LIG    1        6.846   1.841  -7.229  0.00  0.00    -0.323 NA
ATOM     40  H   LIG    1        6.846   2.777  -7.661  0.00  0.00    +0.119 HD
ATOM     41  H   LIG    1        6.021   1.804  -6.631  0.00  0.00    +0.119 HD
ENDBRANCH  36  39
BRANCH  34  42
ATOM     42  O   LIG    1        7.083   0.729 -11.949  0.00  0.00    -0.389 OA
ATOM     43  H   LIG    1        6.276   1.256 -11.998  0.00  0.00    +0.210 HD
ENDBRANCH  34  42
BRANCH  33  44
ATOM     44  C   LIG    1        6.772  -2.272 -11.067  0.00  0.00    +0.112 C 
BRANCH  44  45
ATOM     45  N   LIG    1        5.860  -3.428 -11.010  0.00  0.00    -0.328 NA
ATOM     46  H   LIG    1        4.910  -3.099 -10.821  0.00  0.00    +0.118 HD
ATOM     47  H   LIG    1        6.096  -3.990 -10.194  0.00  0.00    +0.118 HD
ENDBRANCH  44  45
ENDBRANCH  33  44
ENDBRANCH  32  37
ENDBRANCH   1  32
TORSDOF 16
