REMARK  Name = *****
REMARK                            x       y       z     vdW  Elec       q    Type
REMARK                         _______ _______ _______ _____ _____    ______ ____
ROOT
ATOM      1  C   LIG    1        8.402   9.883  -8.843  0.00  0.00    +0.134 C 
ATOM      2  C   LIG    1        6.715   9.846  -8.802  0.00  0.00    +0.065 C 
ATOM      3  C   LIG    1        6.176  11.160  -9.412  0.00  0.00    +0.022 C 
ATOM      4  C   LIG    1        6.287   8.537  -9.642  0.00  0.00    +0.097 C 
ATOM      5  C   LIG    1        4.939   7.680  -9.619  0.00  0.00    +0.217 C 
ATOM      6  C   LIG    1        4.642   6.657  -8.306  0.00  0.00    +0.116 C 
ATOM      7  C   LIG    1        5.061   7.141  -6.854  0.00  0.00    +0.022 C 
ATOM      8  C   LIG    1        4.627   6.149  -5.678  0.00  0.00    +0.019 C 
ATOM      9  C   LIG    1        6.584   7.145  -6.623  0.00  0.00    +0.019 C 
ATOM     10  C   LIG    1        4.243   8.435  -6.753  0.00  0.00    -0.023 C 
ATOM     11  C   LIG    1        4.940   9.776  -6.629  0.00  0.00    +0.211 C 
ATOM     12  C   LIG    1        2.878   8.302  -6.819  0.00  0.00    -0.030 C 
ATOM     13  C   LIG    1        1.897   9.387  -6.453  0.00  0.00    +0.043 C 
ATOM     14  C   LIG    1        2.264   6.939  -7.185  0.00  0.00    +0.205 C 
ATOM     15  C   LIG    1        3.142   6.186  -8.228  0.00  0.00    +0.088 C 
ATOM     16  C   LIG    1        6.913   8.664 -11.139  0.00  0.00    +0.170 C 
ATOM     17  C   LIG    1        8.418   8.341 -10.763  0.00  0.00    +0.167 C 
ATOM     18  O   LIG    1        8.678   7.983 -12.149  0.00  0.00    -0.368 OA
ATOM     19  C   LIG    1        7.268   7.502 -12.158  0.00  0.00    +0.211 C 
ATOM     20  C   LIG    1        6.356  10.073  -7.269  0.00  0.00    +0.175 C 
ATOM     21  O   LIG    1        7.155  10.742  -6.584  0.00  0.00    -0.294 OA
ATOM     22  C   LIG    1        9.081   9.579 -10.218  0.00  0.00    +0.068 C 
ENDROOT
BRANCH  11  23
ATOM     23  O   LIG    1        4.851  10.228  -5.261  0.00  0.00    -0.368 OA
ATOM     24  C   LIG    1        5.490   9.410  -4.291  0.00  0.00    +0.195 C 
ENDBRANCH  11  23
BRANCH   6  25
ATOM     25  O   LIG    1        5.433   5.480  -8.616  0.00  0.00    -0.384 OA
ATOM     26  H   LIG    1        5.257   4.792  -7.952  0.00  0.00    +0.210 HD
ENDBRANCH   6  25
BRANCH   1  28
ATOM     27  C   LIG    1       10.297   8.939  -7.624  0.00  0.00    +0.194 C 
ATOM     28  O   LIG    1        8.902   8.882  -7.919  0.00  0.00    -0.379 OA
ENDBRANCH   1  28
BRANCH  14  29
ATOM     29  O   LIG    1        0.899   7.020  -7.652  0.00  0.00    -0.455 OA
BRANCH  29  30
ATOM     30  C   LIG    1        0.108   5.916  -7.402  0.00  0.00    +0.339 C 
ATOM     31  O   LIG    1        0.495   4.900  -6.836  0.00  0.00    -0.248 OA
BRANCH  30  32
ATOM     32  C   LIG    1       -1.313   6.094  -7.974  0.00  0.00    +0.247 C 
BRANCH  32  33
ATOM     33  O   LIG    1       -1.636   7.490  -8.095  0.00  0.00    -0.379 OA
ATOM     34  H   LIG    1       -1.890   7.800  -7.207  0.00  0.00    +0.211 HD
ENDBRANCH  32  33
BRANCH  32  35
ATOM     35  C   LIG    1       -2.445   5.337  -7.177  0.00  0.00    +0.146 C 
BRANCH  35  36
ATOM     36  C   LIG    1       -3.679   5.194  -8.110  0.00  0.00    -0.024 A 
ATOM     37  C   LIG    1       -4.050   3.924  -8.598  0.00  0.00    +0.005 A 
ATOM     38  C   LIG    1       -5.052   3.767  -9.574  0.00  0.00    +0.000 A 
ATOM     39  C   LIG    1       -5.740   4.871 -10.062  0.00  0.00    +0.000 A 
ATOM     40  C   LIG    1       -5.406   6.135  -9.587  0.00  0.00    +0.000 A 
ATOM     41  C   LIG    1       -4.386   6.296  -8.630  0.00  0.00    +0.005 A 
ENDBRANCH  35  36
BRANCH  35  42
ATOM     42  N   LIG    1       -2.685   6.028  -5.893  0.00  0.00    -0.271 N 
ATOM     43  H   LIG    1       -1.867   6.347  -5.386  0.00  0.00    +0.153 HD
ATOM     44  C   LIG    1       -3.695   5.873  -4.988  0.00  0.00    +0.401 C 
ATOM     45  O   LIG    1       -3.672   6.540  -3.960  0.00  0.00    -0.226 OA
BRANCH  44  46
ATOM     46  O   LIG    1       -4.659   4.999  -5.362  0.00  0.00    -0.445 OA
BRANCH  46  47
ATOM     47  C   LIG    1       -5.942   4.965  -4.671  0.00  0.00    +0.107 C 
ATOM     48  C   LIG    1       -6.939   4.212  -5.580  0.00  0.00    +0.055 C 
ATOM     49  C   LIG    1       -6.495   6.386  -4.506  0.00  0.00    +0.055 C 
ATOM     50  C   LIG    1       -5.845   4.192  -3.352  0.00  0.00    +0.055 C 
ENDBRANCH  46  47
ENDBRANCH  44  46
ENDBRANCH  35  42
ENDBRANCH  32  35
ENDBRANCH  30  32
ENDBRANCH  29  30
ENDBRANCH  14  29
BRANCH   5  51
ATOM     51  O   LIG    1        3.754   8.304 -10.195  0.00  0.00    -0.455 OA
BRANCH  51  52
ATOM     52  C   LIG    1        3.537   7.997 -11.532  0.00  0.00    +0.340 C 
ATOM     53  O   LIG    1        4.375   7.487 -12.272  0.00  0.00    -0.245 OA
BRANCH  52  54
ATOM     54  C   LIG    1        2.133   8.175 -12.018  0.00  0.00    +0.059 A 
ATOM     55  C   LIG    1        1.141   8.757 -11.231  0.00  0.00    +0.015 A 
ATOM     56  C   LIG    1       -0.193   8.747 -11.662  0.00  0.00    +0.001 A 
ATOM     57  C   LIG    1       -0.549   8.146 -12.872  0.00  0.00    +0.000 A 
ATOM     58  C   LIG    1        0.435   7.590 -13.683  0.00  0.00    +0.001 A 
ATOM     59  C   LIG    1        1.772   7.621 -13.267  0.00  0.00    +0.015 A 
ENDBRANCH  52  54
ENDBRANCH  51  52
ENDBRANCH   5  51
BRANCH  16  60
ATOM     60  O   LIG    1        6.840  10.001 -11.806  0.00  0.00    -0.453 OA
BRANCH  60  61
ATOM     61  C   LIG    1        5.794  10.395 -12.596  0.00  0.00    +0.305 C 
ATOM     62  O   LIG    1        4.673   9.976 -12.562  0.00  0.00    -0.251 OA
ATOM     63  C   LIG    1        6.094  11.608 -13.449  0.00  0.00    +0.136 C 
ENDBRANCH  60  61
ENDBRANCH  16  60
TORSDOF 17
