REMARK  Name = *****
REMARK                            x       y       z     vdW  Elec       q    Type
REMARK                         _______ _______ _______ _____ _____    ______ ____
ROOT
ATOM      1  C   LIG    1      -14.032  -3.665   8.599  0.00  0.00    +0.150 C 
ATOM      2  C   LIG    1      -13.548  -3.866   7.115  0.00  0.00    +0.060 C 
ATOM      3  C   LIG    1      -12.456  -4.941   7.054  0.00  0.00    +0.014 C 
ATOM      4  C   LIG    1      -14.676  -3.979   6.002  0.00  0.00    +0.187 C 
ATOM      5  C   LIG    1      -14.478  -4.935   4.745  0.00  0.00    +0.056 C 
ATOM      6  C   LIG    1      -14.622  -6.416   5.096  0.00  0.00    +0.014 C 
ATOM      7  C   LIG    1      -13.310  -4.482   3.826  0.00  0.00    +0.126 C 
ATOM      8  C   LIG    1      -12.273  -5.424   3.111  0.00  0.00    +0.044 C 
ATOM      9  C   LIG    1      -11.984  -6.795   3.724  0.00  0.00    +0.013 C 
ATOM     10  C   LIG    1      -10.949  -4.602   2.975  0.00  0.00    +0.126 C 
ATOM     11  C   LIG    1       -9.762  -5.227   2.185  0.00  0.00    +0.037 C 
ATOM     12  C   LIG    1      -10.170  -5.738   0.804  0.00  0.00    +0.014 C 
ATOM     13  C   LIG    1       -8.657  -4.184   2.048  0.00  0.00    -0.021 C 
ATOM     14  C   LIG    1       -7.770  -3.919   3.023  0.00  0.00    -0.003 C 
ATOM     15  C   LIG    1       -6.871  -2.785   2.977  0.00  0.00    +0.008 C 
ATOM     16  C   LIG    1       -6.358  -2.121   4.031  0.00  0.00    +0.011 C 
ATOM     17  C   LIG    1       -5.392  -0.986   3.880  0.00  0.00    +0.049 C 
ATOM     18  C   LIG    1       -6.669  -2.444   5.450  0.00  0.00    +0.244 C 
ATOM     19  O   LIG    1       -5.793  -2.658   6.284  0.00  0.00    -0.270 OA
ATOM     20  N   LIG    1       -8.003  -2.463   5.793  0.00  0.00    -0.277 N 
ATOM     21  H   LIG    1       -8.045  -3.264   6.425  0.00  0.00    +0.155 HD
ATOM     22  C   LIG    1       -8.504  -1.393   6.609  0.00  0.00    +0.103 A 
ATOM     23  C   LIG    1       -8.163  -1.307   7.985  0.00  0.00    +0.151 A 
ATOM     24  C   LIG    1       -8.915  -0.565   8.933  0.00  0.00    +0.070 A 
ATOM     25  C   LIG    1      -10.033   0.155   8.451  0.00  0.00    +0.031 A 
ATOM     26  C   LIG    1      -10.265   0.243   7.056  0.00  0.00    +0.101 A 
ATOM     27  N   LIG    1      -11.181   1.011   6.399  0.00  0.00    -0.227 NA
ATOM     28  C   LIG    1      -11.128   0.646   5.147  0.00  0.00    +0.139 A 
ATOM     29  N   LIG    1      -10.195  -0.364   4.952  0.00  0.00    -0.297 N 
ATOM     30  C   LIG    1      -10.049  -0.992   3.719  0.00  0.00    +0.093 A 
ATOM     31  C   LIG    1      -10.802  -0.610   2.673  0.00  0.00    +0.021 A 
ATOM     32  C   LIG    1      -11.759   0.479   2.838  0.00  0.00    -0.046 A 
ATOM     33  C   LIG    1      -12.573   0.869   1.643  0.00  0.00    +0.044 C 
ATOM     34  C   LIG    1      -11.900   1.080   4.037  0.00  0.00    +0.050 A 
ATOM     35  C   LIG    1      -10.966   0.629   9.380  0.00  0.00    +0.077 A 
ATOM     36  C   LIG    1      -12.370   1.004   9.235  0.00  0.00    +0.250 C 
ATOM     37  O   LIG    1      -12.875   1.675   8.368  0.00  0.00    -0.284 OA
ATOM     38  C   LIG    1      -13.058   0.444  10.474  0.00  0.00    +0.314 C 
ATOM     39  C   LIG    1      -14.153   1.381  10.962  0.00  0.00    +0.114 C 
ATOM     40  O   LIG    1      -11.982   0.471  11.471  0.00  0.00    -0.444 OA
ATOM     41  O   LIG    1      -13.664  -0.854  10.200  0.00  0.00    -0.453 OA
ATOM     42  C   LIG    1      -12.819  -1.923  10.159  0.00  0.00    +0.190 C 
ATOM     43  C   LIG    1      -10.809   0.411  10.739  0.00  0.00    +0.143 A 
ATOM     44  C   LIG    1       -9.625  -0.069  11.273  0.00  0.00    +0.034 A 
ATOM     45  C   LIG    1       -9.441  -0.215  12.753  0.00  0.00    +0.051 C 
ATOM     46  C   LIG    1       -8.697  -0.579  10.351  0.00  0.00    +0.135 A 
ATOM     47  C   LIG    1       -9.547  -0.563   6.165  0.00  0.00    +0.099 A 
ATOM     48  C   LIG    1      -12.940  -3.063   9.466  0.00  0.00    +0.042 C 
ENDROOT
BRANCH   1  50
ATOM     49  C   LIG    1      -15.312  -5.715   8.931  0.00  0.00    +0.194 C 
ATOM     50  O   LIG    1      -14.209  -4.917   9.293  0.00  0.00    -0.375 OA
ENDBRANCH   1  50
BRANCH   7  51
ATOM     51  O   LIG    1      -13.919  -3.719   2.751  0.00  0.00    -0.391 OA
ATOM     52  H   LIG    1      -14.495  -4.319   2.244  0.00  0.00    +0.210 HD
ENDBRANCH   7  51
BRANCH  10  53
ATOM     53  O   LIG    1      -10.486  -4.303   4.307  0.00  0.00    -0.391 OA
ATOM     54  H   LIG    1      -10.095  -5.113   4.674  0.00  0.00    +0.210 HD
ENDBRANCH  10  53
BRANCH  23  55
ATOM     55  O   LIG    1       -7.122  -2.074   8.482  0.00  0.00    -0.504 OA
ATOM     56  H   LIG    1       -6.486  -2.265   7.754  0.00  0.00    +0.292 HD
ENDBRANCH  23  55
BRANCH  46  57
ATOM     57  O   LIG    1       -7.593  -1.204  10.884  0.00  0.00    -0.506 OA
ATOM     58  H   LIG    1       -7.116  -1.629  10.140  0.00  0.00    +0.292 HD
ENDBRANCH  46  57
BRANCH   4  59
ATOM     59  O   LIG    1      -15.965  -4.335   6.556  0.00  0.00    -0.461 OA
BRANCH  59  60
ATOM     60  C   LIG    1      -17.034  -3.777   5.921  0.00  0.00    +0.304 C 
ATOM     61  O   LIG    1      -17.159  -2.587   5.674  0.00  0.00    -0.251 OA
ATOM     62  C   LIG    1      -17.958  -4.843   5.401  0.00  0.00    +0.136 C 
ENDBRANCH  59  60
ENDBRANCH   4  59
TORSDOF 7
