REMARK  Name = *****
REMARK                            x       y       z     vdW  Elec       q    Type
REMARK                         _______ _______ _______ _____ _____    ______ ____
ROOT
ATOM      1  C   LIG    1       13.057   3.161  -1.327  0.00  0.00    +0.066 A 
ATOM      2  C   LIG    1       12.002   4.106  -1.451  0.00  0.00    +0.040 A 
ATOM      3  I   LIG    1       10.329   4.089  -3.158  0.00  0.00    -0.042 I 
ATOM      4  C   LIG    1       11.126   4.288  -0.377  0.00  0.00    +0.066 A 
ATOM      5  C   LIG    1       10.747   3.124   0.277  0.00  0.00    +0.049 A 
ATOM      6  I   LIG    1        8.757   2.970   0.904  0.00  0.00    -0.041 I 
ATOM      7  C   LIG    1       11.679   2.085   0.361  0.00  0.00    +0.061 A 
ATOM      8  C   LIG    1       12.947   2.324  -0.205  0.00  0.00    +0.049 A 
ATOM      9  I   LIG    1       14.723   2.327   1.315  0.00  0.00    -0.041 I 
ENDROOT
BRANCH   4  10
ATOM     10  C   LIG    1       11.352   5.629   0.258  0.00  0.00    +0.248 C 
ATOM     11  N   LIG    1       11.816   5.689   1.589  0.00  0.00    -0.298 N 
ATOM     12  C   LIG    1       12.012   4.551   2.439  0.00  0.00    +0.132 C 
ATOM     13  O   LIG    1       11.220   6.601  -0.444  0.00  0.00    -0.270 OA
BRANCH  11  14
ATOM     14  C   LIG    1       12.200   6.975   2.163  0.00  0.00    +0.141 C 
BRANCH  14  15
ATOM     15  C   LIG    1       11.330   7.492   3.337  0.00  0.00    +0.157 C 
BRANCH  15  16
ATOM     16  O   LIG    1       11.883   8.768   3.716  0.00  0.00    -0.388 OA
ATOM     17  H   LIG    1       11.328   9.123   4.432  0.00  0.00    +0.210 HD
ENDBRANCH  15  16
BRANCH  15  18
ATOM     18  C   LIG    1       11.294   6.641   4.624  0.00  0.00    +0.188 C 
BRANCH  18  19
ATOM     19  O   LIG    1       10.564   5.429   4.538  0.00  0.00    -0.392 OA
ATOM     20  H   LIG    1       11.185   4.710   4.759  0.00  0.00    +0.209 HD
ENDBRANCH  18  19
ENDBRANCH  15  18
ENDBRANCH  14  15
ENDBRANCH  11  14
ENDBRANCH   4  10
BRANCH   1  23
ATOM     21  C   LIG    1       13.325   3.886  -4.206  0.00  0.00    +0.132 C 
ATOM     22  N   LIG    1       14.353   3.178  -3.523  0.00  0.00    -0.298 N 
ATOM     23  C   LIG    1       14.310   2.858  -2.191  0.00  0.00    +0.248 C 
ATOM     24  O   LIG    1       15.242   2.265  -1.657  0.00  0.00    -0.270 OA
BRANCH  22  25
ATOM     25  C   LIG    1       15.445   2.664  -4.374  0.00  0.00    +0.141 C 
BRANCH  25  26
ATOM     26  C   LIG    1       16.620   3.659  -4.475  0.00  0.00    +0.157 C 
BRANCH  26  27
ATOM     27  O   LIG    1       17.233   3.814  -3.191  0.00  0.00    -0.388 OA
ATOM     28  H   LIG    1       18.189   3.926  -3.302  0.00  0.00    +0.210 HD
ENDBRANCH  26  27
BRANCH  26  29
ATOM     29  C   LIG    1       17.669   3.254  -5.529  0.00  0.00    +0.188 C 
BRANCH  29  30
ATOM     30  O   LIG    1       18.038   1.887  -5.403  0.00  0.00    -0.392 OA
ATOM     31  H   LIG    1       18.458   1.613  -6.237  0.00  0.00    +0.209 HD
ENDBRANCH  29  30
ENDBRANCH  26  29
ENDBRANCH  25  26
ENDBRANCH  22  25
ENDBRANCH   1  23
BRANCH   7  32
ATOM     32  N   LIG    1       11.323   0.790   0.869  0.00  0.00    -0.283 N 
ATOM     33  H   LIG    1       10.340   0.665   1.038  0.00  0.00    +0.155 HD
ATOM     34  C   LIG    1       12.153  -0.310   0.886  0.00  0.00    +0.225 C 
ATOM     35  O   LIG    1       13.324  -0.314   0.397  0.00  0.00    -0.275 OA
BRANCH  34  36
ATOM     36  C   LIG    1       11.658  -1.613   1.437  0.00  0.00    +0.126 C 
BRANCH  36  37
ATOM     37  C   LIG    1       11.645  -2.626   0.279  0.00  0.00    +0.170 C 
BRANCH  37  38
ATOM     38  O   LIG    1       11.068  -3.872   0.657  0.00  0.00    -0.394 OA
ATOM     39  H   LIG    1       10.105  -3.822   0.526  0.00  0.00    +0.209 HD
ENDBRANCH  37  38
ENDBRANCH  36  37
BRANCH  36  40
ATOM     40  C   LIG    1       10.302  -1.624   2.131  0.00  0.00    +0.170 C 
BRANCH  40  41
ATOM     41  O   LIG    1       10.243  -0.693   3.196  0.00  0.00    -0.394 OA
ATOM     42  H   LIG    1        9.646   0.032   2.949  0.00  0.00    +0.209 HD
ENDBRANCH  40  41
ENDBRANCH  36  40
ENDBRANCH  34  36
ENDBRANCH   7  32
TORSDOF 18
