REMARK  Name = *****
REMARK                            x       y       z     vdW  Elec       q    Type
REMARK                         _______ _______ _______ _____ _____    ______ ____
ROOT
ATOM      1  C   LIG    1        7.120   2.228   2.778  0.00  0.00    +0.058 C 
ATOM      2  C   LIG    1        6.149   3.145   3.533  0.00  0.00    +0.026 C 
ATOM      3  C   LIG    1        4.752   2.545   3.733  0.00  0.00    +0.085 C 
ATOM      4  N   LIG    1        4.872   1.222   4.362  0.00  0.00    -0.302 NA
ATOM      5  C   LIG    1        5.569   0.315   3.428  0.00  0.00    +0.085 C 
ATOM      6  C   LIG    1        7.010   0.772   3.237  0.00  0.00    +0.026 C 
ENDROOT
BRANCH   1   8
ATOM      7  N   LIG    1        7.928   2.879   0.429  0.00  0.00    -0.325 N 
ATOM      8  C   LIG    1        6.968   2.360   1.281  0.00  0.00    +0.114 A 
ATOM      9  N   LIG    1        5.896   2.001   0.596  0.00  0.00    -0.232 NA
ATOM     10  C   LIG    1        6.160   2.292  -0.718  0.00  0.00    +0.089 A 
ATOM     11  C   LIG    1        5.354   2.123  -1.855  0.00  0.00    +0.030 A 
ATOM     12  C   LIG    1        5.846   2.526  -3.104  0.00  0.00    +0.002 A 
ATOM     13  C   LIG    1        7.122   3.073  -3.223  0.00  0.00    +0.002 A 
ATOM     14  C   LIG    1        7.947   3.224  -2.104  0.00  0.00    +0.028 A 
ATOM     15  C   LIG    1        7.430   2.836  -0.859  0.00  0.00    +0.069 A 
BRANCH   7  16
ATOM     16  C   LIG    1        9.233   3.406   0.775  0.00  0.00    +0.151 C 
BRANCH  16  17
ATOM     17  C   LIG    1        9.370   4.892   0.469  0.00  0.00    +0.181 C 
BRANCH  17  18
ATOM     18  O   LIG    1       10.666   5.332   0.875  0.00  0.00    -0.378 OA
BRANCH  18  20
ATOM     19  C   LIG    1       12.247   7.114   0.998  0.00  0.00    +0.034 C 
ATOM     20  C   LIG    1       10.858   6.710   0.556  0.00  0.00    +0.156 C 
ENDBRANCH  18  20
ENDBRANCH  17  18
ENDBRANCH  16  17
ENDBRANCH   7  16
ENDBRANCH   1   8
BRANCH   4  21
ATOM     21  C   LIG    1        3.590   0.612   4.763  0.00  0.00    +0.089 C 
BRANCH  21  22
ATOM     22  C   LIG    1        2.705   1.415   5.738  0.00  0.00    +0.050 C 
BRANCH  22  23
ATOM     23  C   LIG    1        1.492   0.596   6.134  0.00  0.00    -0.046 A 
ATOM     24  C   LIG    1        0.341   0.603   5.341  0.00  0.00    +0.004 A 
ATOM     25  C   LIG    1       -0.740  -0.235   5.641  0.00  0.00    +0.005 A 
ATOM     26  C   LIG    1       -0.707  -1.112   6.736  0.00  0.00    -0.031 A 
ATOM     27  C   LIG    1        0.434  -1.073   7.560  0.00  0.00    +0.005 A 
ATOM     28  C   LIG    1        1.520  -0.239   7.256  0.00  0.00    +0.004 A 
BRANCH  26  29
ATOM     29  C   LIG    1       -1.901  -2.022   7.086  0.00  0.00    +0.087 C 
ATOM     30  C   LIG    1       -2.808  -2.327   5.867  0.00  0.00    +0.027 C 
ATOM     31  C   LIG    1       -2.754  -1.323   8.144  0.00  0.00    +0.027 C 
BRANCH  29  32
ATOM     32  C   LIG    1       -1.457  -3.399   7.649  0.00  0.00    +0.315 C 
ATOM     33  O   LIG    1       -1.784  -3.843   8.745  0.00  0.00    -0.250 OA
BRANCH  32  34
ATOM     34  O   LIG    1       -0.666  -4.118   6.801  0.00  0.00    -0.480 OA
ATOM     35  H   LIG    1       -0.428  -3.671   5.985  0.00  0.00    +0.295 HD
ENDBRANCH  32  34
ENDBRANCH  29  32
ENDBRANCH  26  29
ENDBRANCH  22  23
ENDBRANCH  21  22
ENDBRANCH   4  21
TORSDOF 11
