REMARK  Name = *****
REMARK                            x       y       z     vdW  Elec       q    Type
REMARK                         _______ _______ _______ _____ _____    ______ ____
ROOT
ATOM      1  O   LIG    1        1.955   0.155   0.116  0.00  0.00    -0.252 OA
ATOM      2  C   LIG    1        3.100  -0.114   0.466  0.00  0.00    +0.306 C 
ATOM      3  N   LIG    1        4.044   0.787   0.948  0.00  0.00    -0.272 N 
ATOM      4  C   LIG    1        5.372   0.183   0.969  0.00  0.00    +0.152 C 
ATOM      5  C   LIG    1        5.092  -1.326   0.819  0.00  0.00    +0.155 C 
ATOM      6  C   LIG    1        5.367  -2.039   2.156  0.00  0.00    +0.230 C 
ATOM      7  S   LIG    1        5.497  -0.746   3.484  0.00  0.00    -0.004 S 
ATOM      8  C   LIG    1        7.063  -1.435   4.131  0.00  0.00    +0.278 C 
ATOM      9  C   LIG    1        7.206  -2.836   3.564  0.00  0.00    +0.059 C 
ATOM     10  C   LIG    1        6.720  -2.762   2.131  0.00  0.00    +0.064 C 
ATOM     11  C   LIG    1        6.191   0.398   2.235  0.00  0.00    +0.302 C 
ATOM     12  N   LIG    1        3.704  -1.360   0.378  0.00  0.00    -0.271 N 
ENDROOT
BRANCH   3  13
ATOM     13  C   LIG    1        3.822   2.220   0.936  0.00  0.00    +0.145 C 
BRANCH  13  14
ATOM     14  C   LIG    1        4.334   2.916  -0.307  0.00  0.00    -0.030 A 
ATOM     15  C   LIG    1        3.824   2.595  -1.575  0.00  0.00    +0.005 A 
ATOM     16  C   LIG    1        4.231   3.303  -2.709  0.00  0.00    +0.000 A 
ATOM     17  C   LIG    1        5.140   4.351  -2.587  0.00  0.00    +0.000 A 
ATOM     18  C   LIG    1        5.670   4.668  -1.338  0.00  0.00    +0.000 A 
ATOM     19  C   LIG    1        5.279   3.948  -0.206  0.00  0.00    +0.005 A 
ENDBRANCH  13  14
ENDBRANCH   3  13
BRANCH  12  20
ATOM     20  C   LIG    1        3.078  -2.507  -0.251  0.00  0.00    +0.145 C 
BRANCH  20  21
ATOM     21  C   LIG    1        3.929  -3.130  -1.334  0.00  0.00    -0.030 A 
ATOM     22  C   LIG    1        4.333  -2.380  -2.451  0.00  0.00    +0.005 A 
ATOM     23  C   LIG    1        5.105  -2.965  -3.456  0.00  0.00    +0.000 A 
ATOM     24  C   LIG    1        5.457  -4.310  -3.372  0.00  0.00    +0.000 A 
ATOM     25  C   LIG    1        5.067  -5.063  -2.266  0.00  0.00    +0.000 A 
ATOM     26  C   LIG    1        4.321  -4.473  -1.244  0.00  0.00    +0.005 A 
ENDBRANCH  20  21
ENDBRANCH  12  20
TORSDOF 4
