REMARK  Name = *****
REMARK                            x       y       z     vdW  Elec       q    Type
REMARK                         _______ _______ _______ _____ _____    ______ ____
ROOT
ATOM      1  C   LIG    1        6.326   3.167   0.581  0.00  0.00    +0.394 C 
ATOM      2  N   LIG    1        6.602   4.412   0.764  0.00  0.00    -0.073 NA
ENDROOT
BRANCH   2   3
ATOM      3  C   LIG    1        5.717   5.403   1.216  0.00  0.00    +0.142 A 
ATOM      4  C   LIG    1        5.949   6.705   0.750  0.00  0.00    +0.047 A 
ATOM      5  C   LIG    1        5.172   7.783   1.181  0.00  0.00    +0.023 A 
ATOM      6  C   LIG    1        4.135   7.562   2.081  0.00  0.00    +0.041 A 
ATOM      7 CL   LIG    1        3.157   8.876   2.602  0.00  0.00    -0.084 Cl
ATOM      8  C   LIG    1        3.902   6.282   2.577  0.00  0.00    +0.023 A 
ATOM      9  C   LIG    1        4.715   5.215   2.172  0.00  0.00    +0.047 A 
ENDBRANCH   2   3
BRANCH   1  10
ATOM     10  N   LIG    1        7.391   2.413   0.159  0.00  0.00    -0.288 N 
ATOM     11  H   LIG    1        8.191   3.035   0.059  0.00  0.00    +0.255 HD
ATOM     12  H   LIG    1        7.627   1.714   0.861  0.00  0.00    +0.255 HD
ENDBRANCH   1  10
BRANCH   1  13
ATOM     13  N   LIG    1        5.158   2.462   0.736  0.00  0.00    -0.186 N 
ATOM     14  H   LIG    1        4.365   3.034   0.984  0.00  0.00    +0.271 HD
BRANCH  13  15
ATOM     15  C   LIG    1        4.742   1.172   0.603  0.00  0.00    +0.388 C 
ATOM     16  N   LIG    1        3.535   0.857   0.928  0.00  0.00    -0.129 NA
ATOM     17  H   LIG    1        3.410  -0.148   0.794  0.00  0.00    +0.306 HD
BRANCH  15  18
ATOM     18  N   LIG    1        5.681   0.313   0.128  0.00  0.00    -0.273 N 
ATOM     19  H   LIG    1        6.422   0.855  -0.320  0.00  0.00    +0.258 HD
BRANCH  18  21
ATOM     20  C   LIG    1        4.737  -0.599  -1.928  0.00  0.00    +0.047 C 
ATOM     21  C   LIG    1        5.435  -0.915  -0.608  0.00  0.00    +0.139 C 
ATOM     22  C   LIG    1        6.796  -1.563  -0.872  0.00  0.00    +0.047 C 
ENDBRANCH  18  21
ENDBRANCH  15  18
ENDBRANCH  13  15
ENDBRANCH   1  13
TORSDOF 6
