REMARK  Name = *****
REMARK                            x       y       z     vdW  Elec       q    Type
REMARK                         _______ _______ _______ _____ _____    ______ ____
ROOT
ATOM      1  C   LIG    1        2.394   0.062   0.290  0.00  0.00    +0.234 A 
ATOM      2  N   LIG    1        2.857   1.117  -0.389  0.00  0.00    -0.197 NA
ATOM      3  C   LIG    1        4.195   1.231  -0.465  0.00  0.00    +0.148 A 
ATOM      4  C   LIG    1        5.051   0.285   0.099  0.00  0.00    +0.134 A 
ATOM      5  N   LIG    1        4.533  -0.754   0.785  0.00  0.00    -0.142 NA
ATOM      6  N   LIG    1        3.180  -0.864   0.875  0.00  0.00    -0.113 NA
ENDROOT
BRANCH   4   7
ATOM      7  C   LIG    1        6.512   0.345   0.037  0.00  0.00    +0.025 A 
ATOM      8  C   LIG    1        7.242  -0.005  -1.120  0.00  0.00    +0.069 A 
ATOM      9 CL   LIG    1        6.406  -0.574  -2.536  0.00  0.00    -0.081 Cl
ATOM     10  C   LIG    1        8.644   0.084  -1.117  0.00  0.00    +0.060 A 
ATOM     11 CL   LIG    1        9.608  -0.322  -2.496  0.00  0.00    -0.082 Cl
ATOM     12  C   LIG    1        9.323   0.514   0.027  0.00  0.00    +0.021 A 
ATOM     13  C   LIG    1        8.614   0.848   1.177  0.00  0.00    +0.002 A 
ATOM     14  C   LIG    1        7.222   0.761   1.182  0.00  0.00    +0.012 A 
ENDBRANCH   4   7
BRANCH   1  15
ATOM     15  N   LIG    1        1.019  -0.091   0.354  0.00  0.00    -0.326 N 
ATOM     16  H   LIG    1        0.593   0.384  -0.431  0.00  0.00    +0.145 HD
ATOM     17  H   LIG    1        0.784  -1.067   0.476  0.00  0.00    +0.145 HD
ENDBRANCH   1  15
BRANCH   3  18
ATOM     18  N   LIG    1        4.657   2.351  -1.168  0.00  0.00    -0.341 N 
ATOM     19  H   LIG    1        3.843   2.902  -1.435  0.00  0.00    +0.144 HD
ATOM     20  H   LIG    1        5.320   2.897  -0.628  0.00  0.00    +0.144 HD
ENDBRANCH   3  18
TORSDOF 3
