REMARK  Name = *****
REMARK                            x       y       z     vdW  Elec       q    Type
REMARK                         _______ _______ _______ _____ _____    ______ ____
ROOT
ATOM      1  C   LIG    1        3.096  -0.250   0.087  0.00  0.00    +0.058 C 
ATOM      2  C   LIG    1        2.596  -1.127  -1.067  0.00  0.00    +0.220 C 
ENDROOT
BRANCH   2   3
ATOM      3  C   LIG    1        1.269  -0.594  -1.676  0.00  0.00    +0.177 C 
BRANCH   3   4
ATOM      4  N   LIG    1        0.805  -1.294  -2.993  0.00  0.00    +0.239 N 
ATOM      5  C   LIG    1       -0.484  -0.611  -3.471  0.00  0.00    +0.192 C 
ATOM      6  C   LIG    1        0.484  -2.763  -2.749  0.00  0.00    +0.192 C 
ATOM      7  C   LIG    1        1.836  -1.170  -4.105  0.00  0.00    +0.192 C 
ENDBRANCH   3   4
ENDBRANCH   2   3
BRANCH   2   8
ATOM      8  O   LIG    1        2.580  -2.507  -0.631  0.00  0.00    -0.442 OA
BRANCH   8   9
ATOM      9  C   LIG    1        1.832  -2.830   0.434  0.00  0.00    +0.398 C 
ATOM     10  O   LIG    1        0.894  -2.167   0.865  0.00  0.00    -0.227 OA
ATOM     11  N   LIG    1        2.281  -3.976   0.987  0.00  0.00    -0.295 N 
ATOM     12  H   LIG    1        1.971  -4.208   1.925  0.00  0.00    +0.148 HD
ATOM     13  H   LIG    1        3.194  -4.330   0.699  0.00  0.00    +0.148 HD
ENDBRANCH   8   9
ENDBRANCH   2   8
TORSDOF 4
