REMARK  Name = *****
REMARK                            x       y       z     vdW  Elec       q    Type
REMARK                         _______ _______ _______ _____ _____    ______ ____
ROOT
ATOM      1  N   LIG    1        1.725  -5.218   0.161  0.00  0.00    -0.284 N 
ATOM      2  H   LIG    1        2.316  -4.710  -0.481  0.00  0.00    +0.155 HD
ATOM      3  C   LIG    1        0.742  -4.437   0.760  0.00  0.00    +0.234 C 
ATOM      4  O   LIG    1        0.256  -4.641   1.872  0.00  0.00    -0.274 OA
ENDROOT
BRANCH   1   7
ATOM      5  C   LIG    1        4.593  -5.428   0.134  0.00  0.00    +0.045 C 
ATOM      6  C   LIG    1        3.708  -6.484   0.741  0.00  0.00    -0.029 A 
ATOM      7  C   LIG    1        2.297  -6.370   0.756  0.00  0.00    +0.039 A 
ATOM      8  C   LIG    1        1.519  -7.410   1.310  0.00  0.00    -0.029 A 
ATOM      9  C   LIG    1        0.016  -7.468   1.236  0.00  0.00    +0.045 C 
ATOM     10  C   LIG    1        2.167  -8.487   1.941  0.00  0.00    +0.005 A 
ATOM     11  C   LIG    1        3.555  -8.570   1.975  0.00  0.00    +0.001 A 
ATOM     12  C   LIG    1        4.320  -7.583   1.365  0.00  0.00    +0.005 A 
ENDBRANCH   1   7
BRANCH   3  13
ATOM     13  C   LIG    1        0.337  -3.223  -0.117  0.00  0.00    +0.143 C 
ATOM     14  N   LIG    1        0.744  -1.939   0.515  0.00  0.00    -0.295 NA
ATOM     15  C   LIG    1        2.192  -1.833   0.694  0.00  0.00    +0.105 C 
ATOM     16  C   LIG    1        0.251  -0.780  -0.244  0.00  0.00    +0.085 C 
ATOM     17  C   LIG    1       -1.268  -0.809  -0.407  0.00  0.00    +0.015 C 
ATOM     18  C   LIG    1       -1.718  -2.097  -1.081  0.00  0.00    +0.003 C 
ATOM     19  C   LIG    1       -1.186  -3.299  -0.314  0.00  0.00    +0.028 C 
ENDBRANCH   3  13
TORSDOF 2
