REMARK  Name = *****
REMARK                            x       y       z     vdW  Elec       q    Type
REMARK                         _______ _______ _______ _____ _____    ______ ____
ROOT
ATOM      1  N   LIG    1        3.090   2.263   0.847  0.00  0.00    -0.179 NA
ATOM      2  C   LIG    1        2.143   2.529   1.693  0.00  0.00    +0.177 C 
ENDROOT
BRANCH   1   5
ATOM      3  O   LIG    1        0.841   0.540  -0.021  0.00  0.00    -0.224 OA
ATOM      4  C   LIG    1        2.028   0.245  -0.091  0.00  0.00    +0.423 C 
ATOM      5  N   LIG    1        3.117   0.988   0.358  0.00  0.00    -0.155 N 
ATOM      6  C   LIG    1        4.306   0.449  -0.210  0.00  0.00    +0.179 C 
ATOM      7  C   LIG    1        3.893  -0.986  -0.414  0.00  0.00    +0.255 C 
ATOM      8  O   LIG    1        2.482  -0.918  -0.661  0.00  0.00    -0.448 OA
ENDBRANCH   1   5
BRANCH   2   9
ATOM      9  C   LIG    1        2.021   3.845   2.254  0.00  0.00    +0.154 A 
ATOM     10  O   LIG    1        1.055   4.054   3.203  0.00  0.00    -0.399 OA
ATOM     11  C   LIG    1        1.147   5.363   3.559  0.00  0.00    +0.438 A 
ATOM     12  C   LIG    1        2.151   6.006   2.877  0.00  0.00    +0.132 A 
ATOM     13  C   LIG    1        2.721   5.019   2.033  0.00  0.00    +0.058 A 
BRANCH  11  14
ATOM     14  N   LIG    1        0.217   5.825   4.541  0.00  0.00    +0.119 N 
ATOM     15  O   LIG    1       -0.612   5.018   4.980  0.00  0.00    -0.574 OA
ATOM     16  O   LIG    1        0.322   7.013   4.877  0.00  0.00    +0.045 OA
ENDBRANCH  11  14
ENDBRANCH   2   9
TORSDOF 3
