REMARK  Name = *****
REMARK                            x       y       z     vdW  Elec       q    Type
REMARK                         _______ _______ _______ _____ _____    ______ ____
ROOT
ATOM      1  C   LIG    1        6.362   1.222  -1.233  0.00  0.00    +0.100 C 
ENDROOT
BRANCH   1   2
ATOM      2  C   LIG    1        7.808   0.917  -0.656  0.00  0.00    +0.100 C 
BRANCH   2   3
ATOM      3  N   LIG    1        8.627   1.958   0.020  0.00  0.00    -0.287 NA
BRANCH   3   4
ATOM      4  C   LIG    1        7.930   2.962   0.992  0.00  0.00    +0.124 C 
BRANCH   4   5
ATOM      5  C   LIG    1        8.369   4.912   1.590  0.00  0.00    +0.012 A 
ATOM      6  C   LIG    1        9.442   6.098   0.830  0.00  0.00    +0.142 A 
ATOM      7  C   LIG    1       10.790   6.616   1.641  0.00  0.00    +0.080 A 
ATOM      8  C   LIG    1       12.037   7.150   0.983  0.00  0.00    +0.069 C 
ATOM      9  N   LIG    1       10.638   6.514   3.113  0.00  0.00    -0.251 NA
ATOM     10  C   LIG    1        9.367   5.639   3.925  0.00  0.00    +0.068 A 
ATOM     11  C   LIG    1        8.212   4.700   3.199  0.00  0.00    +0.034 A 
BRANCH   6  12
ATOM     12  O   LIG    1       10.045   6.366  -0.559  0.00  0.00    -0.505 OA
ATOM     13  H   LIG    1       10.828   5.836  -0.865  0.00  0.00    +0.292 HD
ENDBRANCH   6  12
BRANCH  10  14
ATOM     14  C   LIG    1        8.734   6.549   4.744  0.00  0.00    +0.227 C 
BRANCH  14  15
ATOM     15  O   LIG    1        7.494   6.963   4.189  0.00  0.00    -0.281 OA
BRANCH  15  16
ATOM     16  P   LIG    1        7.337   8.051   3.016  0.00  0.00    +0.473 P 
ATOM     17  O   LIG    1        6.502   7.708   1.831  0.00  0.00    -0.228 OA
BRANCH  16  18
ATOM     18  O   LIG    1        6.765   9.306   3.817  0.00  0.00    -0.303 OA
ATOM     19  H   LIG    1        7.409   9.643   4.457  0.00  0.00    +0.222 HD
ENDBRANCH  16  18
BRANCH  16  20
ATOM     20  O   LIG    1        8.777   8.601   2.626  0.00  0.00    -0.303 OA
ATOM     21  H   LIG    1        9.175   8.054   1.925  0.00  0.00    +0.222 HD
ENDBRANCH  16  20
ENDBRANCH  15  16
ENDBRANCH  14  15
ENDBRANCH  10  14
ENDBRANCH   4   5
ENDBRANCH   3   4
BRANCH   3  22
ATOM     22  C   LIG    1        9.949   1.471   0.455  0.00  0.00    +0.205 C 
BRANCH  22  23
ATOM     23  C   LIG    1       11.045   1.165  -0.780  0.00  0.00    +0.319 C 
ATOM     24  O   LIG    1       12.150   0.648  -0.631  0.00  0.00    -0.250 OA
BRANCH  23  25
ATOM     25  O   LIG    1       10.771   1.597  -2.062  0.00  0.00    -0.480 OA
ATOM     26  H   LIG    1       11.609   1.676  -2.591  0.00  0.00    +0.295 HD
ENDBRANCH  23  25
ENDBRANCH  22  23
ENDBRANCH   3  22
ENDBRANCH   2   3
ENDBRANCH   1   2
BRANCH   1  27
ATOM     27  N   LIG    1        6.191   2.265  -2.267  0.00  0.00    -0.287 NA
BRANCH  27  28
ATOM     28  C   LIG    1        6.277   1.871  -3.678  0.00  0.00    +0.205 C 
BRANCH  28  29
ATOM     29  C   LIG    1        5.282   2.565  -4.622  0.00  0.00    +0.319 C 
ATOM     30  O   LIG    1        4.191   2.159  -4.995  0.00  0.00    -0.250 OA
BRANCH  29  31
ATOM     31  O   LIG    1        5.851   3.654  -5.203  0.00  0.00    -0.480 OA
ATOM     32  H   LIG    1        5.354   3.813  -6.030  0.00  0.00    +0.295 HD
ENDBRANCH  29  31
ENDBRANCH  28  29
ENDBRANCH  27  28
BRANCH  27  33
ATOM     33  C   LIG    1        6.265   3.710  -1.992  0.00  0.00    +0.124 C 
BRANCH  33  37
ATOM     34  C   LIG    1       10.059   4.355   1.780  0.00  0.00    +0.069 C 
ATOM     35  C   LIG    1        9.264   4.206   0.017  0.00  0.00    +0.080 A 
ATOM     36  C   LIG    1        7.726   4.860  -0.419  0.00  0.00    +0.142 A 
ATOM     37  C   LIG    1        7.551   4.406  -1.623  0.00  0.00    +0.012 A 
ATOM     38  C   LIG    1        8.838   4.186  -2.407  0.00  0.00    +0.034 A 
ATOM     39  C   LIG    1       10.258   4.186  -1.910  0.00  0.00    +0.068 A 
ATOM     40  N   LIG    1       10.368   3.975  -0.691  0.00  0.00    -0.251 NA
BRANCH  36  41
ATOM     41  O   LIG    1        6.416   4.889   0.501  0.00  0.00    -0.505 OA
ATOM     42  H   LIG    1        6.474   4.533   1.435  0.00  0.00    +0.292 HD
ENDBRANCH  36  41
BRANCH  39  43
ATOM     43  C   LIG    1       11.794   4.336  -2.543  0.00  0.00    +0.227 C 
BRANCH  43  44
ATOM     44  O   LIG    1       13.344   4.679  -2.008  0.00  0.00    -0.281 OA
BRANCH  44  45
ATOM     45  P   LIG    1       14.735   4.348  -2.968  0.00  0.00    +0.473 P 
ATOM     46  O   LIG    1       14.935   2.921  -3.357  0.00  0.00    -0.228 OA
BRANCH  45  47
ATOM     47  O   LIG    1       14.661   5.211  -4.318  0.00  0.00    -0.303 OA
ATOM     48  H   LIG    1       14.280   4.660  -5.029  0.00  0.00    +0.222 HD
ENDBRANCH  45  47
BRANCH  45  49
ATOM     49  O   LIG    1       16.241   4.638  -2.429  0.00  0.00    -0.303 OA
ATOM     50  H   LIG    1       16.759   3.844  -2.757  0.00  0.00    +0.222 HD
ENDBRANCH  45  49
ENDBRANCH  44  45
ENDBRANCH  43  44
ENDBRANCH  39  43
ENDBRANCH  33  37
ENDBRANCH  27  33
ENDBRANCH   1  27
TORSDOF 25
