REMARK  Name = *****
REMARK                            x       y       z     vdW  Elec       q    Type
REMARK                         _______ _______ _______ _____ _____    ______ ____
ROOT
ATOM      1  C   LIG    1        5.092   3.561  -4.148  0.00  0.00    +0.057 A 
ATOM      2  C   LIG    1        4.685   2.663  -3.114  0.00  0.00    +0.055 A 
ATOM      3  C   LIG    1        4.558   1.322  -3.504  0.00  0.00    +0.072 A 
ATOM      4  C   LIG    1        5.094   0.811  -4.693  0.00  0.00    +0.143 A 
ATOM      5  C   LIG    1        5.465   1.671  -5.726  0.00  0.00    +0.078 A 
ATOM      6  C   LIG    1        5.414   3.042  -5.427  0.00  0.00    +0.052 A 
ENDROOT
BRANCH   1   8
ATOM      7  C   LIG    1        5.357   5.948  -4.928  0.00  0.00    +0.241 C 
ATOM      8  N   LIG    1        5.289   4.962  -3.928  0.00  0.00    -0.280 N 
ATOM      9  H   LIG    1        5.415   5.226  -2.968  0.00  0.00    +0.155 HD
ATOM     10  O   LIG    1        5.170   5.811  -6.103  0.00  0.00    -0.271 OA
BRANCH   7  12
ATOM     11  C   LIG    1        5.664   8.389  -5.170  0.00  0.00    +0.013 C 
ATOM     12  C   LIG    1        5.667   7.318  -4.372  0.00  0.00    +0.060 C 
ENDBRANCH   7  12
ENDBRANCH   1   8
BRANCH   2  13
ATOM     13  N   LIG    1        4.339   2.964  -1.797  0.00  0.00    -0.330 N 
ATOM     14  C   LIG    1        3.564   4.168  -1.508  0.00  0.00    +0.129 C 
BRANCH  13  15
ATOM     15  C   LIG    1        4.915   2.291  -0.586  0.00  0.00    +0.120 C 
BRANCH  15  16
ATOM     16  C   LIG    1        5.330   0.789  -0.527  0.00  0.00    +0.102 C 
BRANCH  16  17
ATOM     17  N   LIG    1        6.681   0.350  -0.974  0.00  0.00    -0.307 NA
ATOM     18  C   LIG    1        6.843  -1.089  -0.684  0.00  0.00    +0.104 C 
ATOM     19  C   LIG    1        7.744   1.086  -0.286  0.00  0.00    +0.104 C 
ENDBRANCH  16  17
ENDBRANCH  15  16
ENDBRANCH  13  15
ENDBRANCH   2  13
BRANCH   4  20
ATOM     20  O   LIG    1        5.240  -0.531  -4.873  0.00  0.00    -0.493 OA
ATOM     21  C   LIG    1        5.403  -1.353  -3.743  0.00  0.00    +0.277 C 
ENDBRANCH   4  20
BRANCH   5  22
ATOM     22  N   LIG    1        6.016   1.308  -6.976  0.00  0.00    -0.281 N 
ATOM     23  H   LIG    1        5.966   2.022  -7.691  0.00  0.00    +0.155 HD
BRANCH  22  24
ATOM     24  C   LIG    1        6.291   0.087  -7.596  0.00  0.00    +0.220 A 
ATOM     25  N   LIG    1        6.855   0.109  -8.808  0.00  0.00    -0.214 NA
ATOM     26  C   LIG    1        7.053  -1.089  -9.414  0.00  0.00    +0.078 A 
ATOM     27  C   LIG    1        6.683  -2.297  -8.857  0.00  0.00    +0.048 A 
ATOM     28  C   LIG    1        6.138  -2.221  -7.620  0.00  0.00    +0.116 A 
ATOM     29  N   LIG    1        5.955  -1.059  -7.010  0.00  0.00    -0.223 NA
BRANCH  26  30
ATOM     30  C   LIG    1        7.692  -1.062 -10.724  0.00  0.00    +0.026 C 
ATOM     31  C   LIG    1        8.618  -0.119 -11.273  0.00  0.00    +0.009 C 
ATOM     32  C   LIG    1        8.924  -0.539 -12.573  0.00  0.00    +0.050 C 
ATOM     33  C   LIG    1        9.790   0.183 -13.408  0.00  0.00    +0.026 C 
ATOM     34  C   LIG    1       10.362   1.355 -12.905  0.00  0.00    +0.002 C 
ATOM     35  C   LIG    1       10.089   1.786 -11.611  0.00  0.00    +0.001 C 
ATOM     36  N   LIG    1        8.224  -1.704 -12.795  0.00  0.00    -0.349 NA
ATOM     37  C   LIG    1        8.256  -2.478 -14.015  0.00  0.00    +0.149 C 
ATOM     38  C   LIG    1        9.225   1.058 -10.787  0.00  0.00    +0.010 C 
ATOM     39  C   LIG    1        7.464  -2.016 -11.701  0.00  0.00    +0.096 C 
ENDBRANCH  26  30
ENDBRANCH  22  24
ENDBRANCH   5  22
TORSDOF 10
