REMARK  Name = *****
REMARK                            x       y       z     vdW  Elec       q    Type
REMARK                         _______ _______ _______ _____ _____    ______ ____
ROOT
ATOM      1  C   LIG    1        2.700   0.276   1.171  0.00  0.00    +0.175 C 
ENDROOT
BRANCH   1   3
ATOM      2  O   LIG    1        0.862  -0.469  -0.272  0.00  0.00    -0.250 OA
ATOM      3  C   LIG    1        1.514   0.437   0.235  0.00  0.00    +0.319 C 
BRANCH   3   4
ATOM      4  O   LIG    1        1.174   1.718   0.012  0.00  0.00    -0.480 OA
ATOM      5  H   LIG    1        0.402   1.678  -0.591  0.00  0.00    +0.295 HD
ENDBRANCH   3   4
ENDBRANCH   1   3
BRANCH   1   6
ATOM      6  S   LIG    1        2.093   0.213   2.905  0.00  0.00    -0.162 S 
ATOM      7  H   LIG    1        1.337  -0.888   2.765  0.00  0.00    +0.102 HD
ENDBRANCH   1   6
BRANCH   1   8
ATOM      8  C   LIG    1        3.568  -0.940   0.802  0.00  0.00    +0.175 C 
BRANCH   8   9
ATOM      9  C   LIG    1        4.201  -0.718  -0.569  0.00  0.00    +0.319 C 
ATOM     10  O   LIG    1        4.477   0.388  -1.012  0.00  0.00    -0.250 OA
BRANCH   9  11
ATOM     11  O   LIG    1        4.513  -1.847  -1.245  0.00  0.00    -0.480 OA
ATOM     12  H   LIG    1        4.214  -2.655  -0.773  0.00  0.00    +0.295 HD
ENDBRANCH   9  11
ENDBRANCH   8   9
BRANCH   8  13
ATOM     13  S   LIG    1        2.730  -2.590   0.871  0.00  0.00    -0.162 S 
ATOM     14  H   LIG    1        1.689  -2.252   0.079  0.00  0.00    +0.102 HD
ENDBRANCH   8  13
ENDBRANCH   1   8
TORSDOF 7
