REMARK  Name = *****
REMARK                            x       y       z     vdW  Elec       q    Type
REMARK                         _______ _______ _______ _____ _____    ______ ____
ROOT
ATOM      1  C   LIG    1       -3.129  -3.599  -4.399  0.00  0.00    +0.021 C 
ATOM      2  C   LIG    1       -3.887  -2.689  -5.414  0.00  0.00    +0.016 C 
ATOM      3  C   LIG    1       -4.027  -3.211  -6.847  0.00  0.00    +0.001 C 
ATOM      4  C   LIG    1       -4.478  -4.664  -6.946  0.00  0.00    +0.000 C 
ATOM      5  C   LIG    1       -3.702  -5.598  -6.042  0.00  0.00    +0.001 C 
ATOM      6  C   LIG    1       -3.619  -5.085  -4.599  0.00  0.00    +0.016 C 
ENDROOT
BRANCH   1  10
ATOM      7  C   LIG    1        1.329  -3.275  -4.894  0.00  0.00    +0.122 A 
ATOM      8  C   LIG    1        0.653  -4.326  -5.488  0.00  0.00    +0.046 A 
ATOM      9  C   LIG    1       -0.765  -4.469  -5.359  0.00  0.00    +0.008 A 
ATOM     10  C   LIG    1       -1.578  -3.590  -4.623  0.00  0.00    -0.037 A 
ATOM     11  C   LIG    1       -0.832  -2.598  -4.055  0.00  0.00    +0.008 A 
ATOM     12  C   LIG    1        0.520  -2.414  -4.207  0.00  0.00    +0.046 A 
BRANCH   7  13
ATOM     13  O   LIG    1        2.679  -3.142  -5.072  0.00  0.00    -0.475 OA
BRANCH  13  14
ATOM     14  C   LIG    1        3.558  -2.525  -4.067  0.00  0.00    +0.203 C 
ATOM     15  C   LIG    1        4.219  -1.274  -4.691  0.00  0.00    +0.068 C 
BRANCH  14  17
ATOM     16  C   LIG    1        3.458  -1.537  -1.547  0.00  0.00    +0.008 C 
ATOM     17  C   LIG    1        2.835  -2.144  -2.764  0.00  0.00    +0.056 C 
ENDBRANCH  14  17
BRANCH  14  18
ATOM     18  C   LIG    1        4.631  -3.579  -3.761  0.00  0.00    +0.349 C 
ATOM     19  O   LIG    1        4.539  -4.349  -2.836  0.00  0.00    -0.246 OA
BRANCH  18  20
ATOM     20  O   LIG    1        5.717  -3.611  -4.562  0.00  0.00    -0.478 OA
ATOM     21  H   LIG    1        5.708  -3.022  -5.341  0.00  0.00    +0.295 HD
ENDBRANCH  18  20
ENDBRANCH  14  18
ENDBRANCH  13  14
ENDBRANCH   7  13
ENDBRANCH   1  10
BRANCH   1  22
ATOM     22  C   LIG    1       -3.584  -3.058  -2.948  0.00  0.00    -0.037 A 
ATOM     23  C   LIG    1       -4.753  -3.520  -2.369  0.00  0.00    +0.008 A 
ATOM     24  C   LIG    1       -5.101  -3.197  -1.053  0.00  0.00    +0.046 A 
ATOM     25  C   LIG    1       -4.245  -2.527  -0.192  0.00  0.00    +0.122 A 
ATOM     26  C   LIG    1       -3.208  -1.858  -0.798  0.00  0.00    +0.046 A 
ATOM     27  C   LIG    1       -3.016  -2.015  -2.181  0.00  0.00    +0.008 A 
BRANCH  25  28
ATOM     28  O   LIG    1       -4.351  -2.423   1.166  0.00  0.00    -0.475 OA
BRANCH  28  29
ATOM     29  C   LIG    1       -5.394  -3.136   1.880  0.00  0.00    +0.203 C 
ATOM     30  C   LIG    1       -6.779  -2.570   1.536  0.00  0.00    +0.068 C 
BRANCH  29  31
ATOM     31  C   LIG    1       -5.217  -2.815   3.406  0.00  0.00    +0.349 C 
ATOM     32  O   LIG    1       -6.102  -2.775   4.199  0.00  0.00    -0.246 OA
BRANCH  31  33
ATOM     33  O   LIG    1       -3.926  -2.635   3.766  0.00  0.00    -0.478 OA
ATOM     34  H   LIG    1       -3.304  -2.655   3.030  0.00  0.00    +0.295 HD
ENDBRANCH  31  33
ENDBRANCH  29  31
BRANCH  29  35
ATOM     35  C   LIG    1       -5.276  -4.679   1.748  0.00  0.00    +0.056 C 
ATOM     36  C   LIG    1       -6.408  -5.442   2.428  0.00  0.00    +0.008 C 
ENDBRANCH  29  35
ENDBRANCH  28  29
ENDBRANCH  25  28
ENDBRANCH   1  22
TORSDOF 12
