REMARK  Name = *****
REMARK                            x       y       z     vdW  Elec       q    Type
REMARK                         _______ _______ _______ _____ _____    ______ ____
ROOT
ATOM      1  C   LIG    1        4.113   0.131   6.880  0.00  0.00    +0.169 C 
ATOM      2  C   LIG    1        3.499  -1.187   6.660  0.00  0.00    +0.084 C 
ATOM      3  C   LIG    1        2.054  -1.312   6.914  0.00  0.00    +0.042 C 
ATOM      4  C   LIG    1        1.442  -0.126   7.555  0.00  0.00    +0.084 C 
ATOM      5  C   LIG    1        2.327   0.105   8.809  0.00  0.00    +0.169 C 
ATOM      6  C   LIG    1        3.848   0.331   8.415  0.00  0.00    +0.175 C 
ENDROOT
BRANCH   2   7
ATOM      7  N   LIG    1        4.440  -2.125   7.247  0.00  0.00    -0.325 NA
ATOM      8  H   LIG    1        3.799  -2.847   7.417  0.00  0.00    +0.118 HD
ATOM      9  H   LIG    1        4.673  -1.940   8.202  0.00  0.00    +0.118 HD
ENDBRANCH   2   7
BRANCH   4  10
ATOM     10  N   LIG    1       -0.009  -0.255   7.736  0.00  0.00    -0.325 NA
ATOM     11  H   LIG    1       -0.331   0.651   8.088  0.00  0.00    +0.118 HD
ATOM     12  H   LIG    1       -0.300  -0.880   8.484  0.00  0.00    +0.118 HD
ENDBRANCH   4  10
BRANCH   6  13
ATOM     13  O   LIG    1        4.438   1.555   8.803  0.00  0.00    -0.387 OA
ATOM     14  H   LIG    1        5.284   1.578   8.312  0.00  0.00    +0.210 HD
ENDBRANCH   6  13
BRANCH   1  15
ATOM     15  O   LIG    1        3.548   1.004   5.940  0.00  0.00    -0.342 OA
BRANCH  15  18
ATOM     16  C   LIG    1        5.750  -0.330   3.849  0.00  0.00    +0.138 C 
ATOM     17  O   LIG    1        4.962   0.866   3.951  0.00  0.00    -0.345 OA
ATOM     18  C   LIG    1        3.643   0.742   4.503  0.00  0.00    +0.268 C 
ATOM     19  C   LIG    1        2.912  -0.447   3.724  0.00  0.00    +0.107 C 
ATOM     20  C   LIG    1        3.674  -1.803   3.791  0.00  0.00    +0.026 C 
ATOM     21  C   LIG    1        5.109  -1.595   4.388  0.00  0.00    +0.035 C 
BRANCH  19  22
ATOM     22  N   LIG    1        1.450  -0.566   3.814  0.00  0.00    -0.323 NA
ATOM     23  H   LIG    1        1.142  -1.274   4.473  0.00  0.00    +0.119 HD
ATOM     24  H   LIG    1        1.018   0.307   4.113  0.00  0.00    +0.119 HD
ENDBRANCH  19  22
BRANCH  16  25
ATOM     25  C   LIG    1        6.168  -0.773   2.441  0.00  0.00    +0.079 C 
ATOM     26  C   LIG    1        6.759   0.344   1.629  0.00  0.00    +0.026 C 
BRANCH  25  28
ATOM     27  C   LIG    1        7.449  -2.658   1.490  0.00  0.00    +0.101 C 
ATOM     28  N   LIG    1        7.087  -1.904   2.653  0.00  0.00    -0.314 NA
ATOM     29  H   LIG    1        7.881  -1.659   3.240  0.00  0.00    +0.122 HD
ENDBRANCH  25  28
ENDBRANCH  16  25
ENDBRANCH  15  18
ENDBRANCH   1  15
BRANCH   5  30
ATOM     30  O   LIG    1        2.086  -0.963   9.794  0.00  0.00    -0.341 OA
BRANCH  30  31
ATOM     31  C   LIG    1        2.442  -2.386   9.664  0.00  0.00    +0.281 C 
ATOM     32  C   LIG    1        1.378  -3.414   8.931  0.00  0.00    +0.190 C 
ATOM     33  C   LIG    1        2.068  -4.742   8.469  0.00  0.00    +0.121 C 
ATOM     34  C   LIG    1        3.576  -4.774   7.996  0.00  0.00    +0.104 C 
ATOM     35  C   LIG    1        3.725  -4.494   6.381  0.00  0.00    +0.045 C 
ATOM     36  C   LIG    1        4.393  -3.930   9.091  0.00  0.00    +0.199 C 
ATOM     37  O   LIG    1        3.849  -2.615   9.426  0.00  0.00    -0.346 OA
BRANCH  33  38
ATOM     38  N   LIG    1        1.767  -5.739   9.501  0.00  0.00    -0.311 NA
ATOM     39  H   LIG    1        2.012  -6.641   9.097  0.00  0.00    +0.122 HD
ATOM     40  C   LIG    1        2.537  -5.566  10.720  0.00  0.00    +0.101 C 
ENDBRANCH  33  38
BRANCH  32  41
ATOM     41  O   LIG    1        0.502  -3.184   7.787  0.00  0.00    -0.385 OA
ATOM     42  H   LIG    1        0.125  -2.294   7.712  0.00  0.00    +0.210 HD
ENDBRANCH  32  41
BRANCH  34  43
ATOM     43  O   LIG    1        4.073  -6.127   8.037  0.00  0.00    -0.385 OA
ATOM     44  H   LIG    1        3.622  -6.589   7.306  0.00  0.00    +0.210 HD
ENDBRANCH  34  43
ENDBRANCH  30  31
ENDBRANCH   5  30
TORSDOF 13
