REMARK  Name = *****
REMARK                            x       y       z     vdW  Elec       q    Type
REMARK                         _______ _______ _______ _____ _____    ______ ____
ROOT
ATOM      1  C   LIG    1        3.216  -2.690  -2.799  0.00  0.00    +0.044 C 
ATOM      2  C   LIG    1        2.532  -1.348  -2.909  0.00  0.00    -0.050 C 
ATOM      3  C   LIG    1        2.413  -0.637  -4.055  0.00  0.00    +0.003 C 
ENDROOT
BRANCH   3   4
ATOM      4  C   LIG    1        2.716  -1.148  -5.376  0.00  0.00    +0.001 C 
ATOM      5  C   LIG    1        2.670  -0.462  -6.537  0.00  0.00    +0.003 C 
BRANCH   5   6
ATOM      6  C   LIG    1        2.933  -1.044  -7.855  0.00  0.00    -0.052 C 
ATOM      7  C   LIG    1        3.267  -2.341  -8.015  0.00  0.00    +0.004 C 
ATOM      8  C   LIG    1        2.771  -0.077  -9.004  0.00  0.00    +0.043 C 
BRANCH   7   9
ATOM      9  C   LIG    1        3.589  -3.077  -9.271  0.00  0.00    +0.183 C 
BRANCH   9  10
ATOM     10  O   LIG    1        4.521  -4.106  -8.955  0.00  0.00    -0.391 OA
ATOM     11  H   LIG    1        5.251  -3.693  -8.464  0.00  0.00    +0.210 HD
ENDBRANCH   9  10
ENDBRANCH   7   9
ENDBRANCH   5   6
ENDBRANCH   3   4
BRANCH   2  12
ATOM     12  C   LIG    1        2.056  -0.746  -1.667  0.00  0.00    +0.003 C 
ATOM     13  C   LIG    1        1.437  -1.277  -0.594  0.00  0.00    +0.004 C 
BRANCH  13  14
ATOM     14  C   LIG    1        0.954  -2.625  -0.265  0.00  0.00    -0.043 C 
ATOM     15  C   LIG    1        1.449  -3.201   1.094  0.00  0.00    -0.010 C 
ATOM     16  C   LIG    1        2.983  -3.116   1.238  0.00  0.00    +0.016 C 
ATOM     17  C   LIG    1        0.804  -2.417   2.264  0.00  0.00    +0.016 C 
ATOM     18  C   LIG    1        1.085  -4.704   1.258  0.00  0.00    +0.011 C 
ATOM     19  C   LIG    1       -0.348  -4.994   0.856  0.00  0.00    +0.005 C 
ATOM     20  C   LIG    1       -0.547  -4.631  -0.607  0.00  0.00    +0.031 C 
ATOM     21  C   LIG    1        0.018  -3.277  -1.003  0.00  0.00    -0.069 C 
ATOM     22  C   LIG    1       -0.625  -2.750  -2.262  0.00  0.00    +0.039 C 
ENDBRANCH  13  14
ENDBRANCH   2  12
TORSDOF 6
