REMARK  Name = *****
REMARK                            x       y       z     vdW  Elec       q    Type
REMARK                         _______ _______ _______ _____ _____    ______ ____
ROOT
ATOM      1  N   LIG    1        3.571   1.154  -2.103  0.00  0.00    -0.337 NA
ATOM      2  C   LIG    1        4.349   1.082  -3.264  0.00  0.00    +0.050 C 
ATOM      3  C   LIG    1        4.868   2.356  -3.506  0.00  0.00    +0.008 C 
ATOM      4  C   LIG    1        5.485   2.561  -4.769  0.00  0.00    +0.010 C 
ATOM      5  C   LIG    1        5.674   1.525  -5.682  0.00  0.00    +0.001 C 
ATOM      6  C   LIG    1        5.252   0.253  -5.365  0.00  0.00    +0.002 C 
ATOM      7  C   LIG    1        4.654   3.157  -2.314  0.00  0.00    +0.015 C 
ATOM      8  C   LIG    1        4.589   0.014  -4.160  0.00  0.00    +0.026 C 
ATOM      9  C   LIG    1        3.864   2.369  -1.439  0.00  0.00    +0.051 C 
ENDROOT
BRANCH   7  10
ATOM     10  C   LIG    1        5.192   4.529  -2.022  0.00  0.00    -0.015 C 
ATOM     11  C   LIG    1        5.957   5.253  -2.961  0.00  0.00    +0.011 C 
ATOM     12  C   LIG    1        6.474   6.532  -2.709  0.00  0.00    +0.039 C 
ATOM     13  C   LIG    1        6.271   7.112  -1.476  0.00  0.00    +0.123 C 
ATOM     14  F   LIG    1        6.787   8.318  -1.211  0.00  0.00    -0.205 F 
ATOM     15  C   LIG    1        5.551   6.440  -0.509  0.00  0.00    +0.039 C 
ATOM     16  C   LIG    1        5.023   5.170  -0.786  0.00  0.00    +0.011 C 
ENDBRANCH   7  10
BRANCH   1  18
ATOM     17  C   LIG    1        1.571   0.346  -0.709  0.00  0.00    +0.030 C 
ATOM     18  C   LIG    1        2.658   0.043  -1.730  0.00  0.00    +0.082 C 
ATOM     19  C   LIG    1        1.871  -0.629  -2.880  0.00  0.00    +0.030 C 
ENDBRANCH   1  18
BRANCH   9  20
ATOM     20  C   LIG    1        3.272   2.694  -0.166  0.00  0.00    +0.025 C 
ATOM     21  C   LIG    1        3.371   1.928   0.937  0.00  0.00    +0.006 C 
BRANCH  21  22
ATOM     22  C   LIG    1        2.604   2.072   2.247  0.00  0.00    +0.140 C 
BRANCH  22  23
ATOM     23  O   LIG    1        1.829   3.278   2.190  0.00  0.00    -0.388 OA
ATOM     24  H   LIG    1        1.018   3.095   1.683  0.00  0.00    +0.210 HD
ENDBRANCH  22  23
BRANCH  22  25
ATOM     25  C   LIG    1        1.637   0.920   2.667  0.00  0.00    +0.067 C 
BRANCH  25  26
ATOM     26  C   LIG    1        2.212  -0.473   3.059  0.00  0.00    +0.128 C 
BRANCH  26  27
ATOM     27  O   LIG    1        1.067  -1.261   3.425  0.00  0.00    -0.391 OA
ATOM     28  H   LIG    1        1.350  -2.189   3.536  0.00  0.00    +0.210 HD
ENDBRANCH  26  27
BRANCH  26  29
ATOM     29  C   LIG    1        2.980  -1.212   1.966  0.00  0.00    +0.151 C 
BRANCH  29  30
ATOM     30  C   LIG    1        3.563  -2.544   2.312  0.00  0.00    +0.307 C 
ATOM     31  O   LIG    1        4.787  -2.819   2.328  0.00  0.00    -0.251 OA
BRANCH  30  32
ATOM     32  O   LIG    1        2.651  -3.517   2.419  0.00  0.00    -0.481 OA
ATOM     33  H   LIG    1        3.180  -4.343   2.376  0.00  0.00    +0.295 HD
ENDBRANCH  30  32
ENDBRANCH  29  30
ENDBRANCH  26  29
ENDBRANCH  25  26
ENDBRANCH  22  25
ENDBRANCH  21  22
ENDBRANCH   9  20
TORSDOF 11
