REMARK  Name = *****
REMARK                            x       y       z     vdW  Elec       q    Type
REMARK                         _______ _______ _______ _____ _____    ______ ____
ROOT
ATOM      1  N   LIG    1        1.129   2.603 -17.782  0.00  0.00    +0.251 N 
ATOM      2  C   LIG    1        0.305   3.033 -19.041  0.00  0.00    +0.162 C 
ATOM      3  C   LIG    1        1.065   2.874 -20.366  0.00  0.00    +0.210 C 
ATOM      4  O   LIG    1        1.574   1.550 -20.511  0.00  0.00    -0.369 OA
ATOM      5  C   LIG    1        2.536   1.269 -19.497  0.00  0.00    +0.210 C 
ATOM      6  C   LIG    1        1.899   1.303 -18.106  0.00  0.00    +0.162 C 
ENDROOT
BRANCH   1   7
ATOM      7  C   LIG    1        0.162   2.330 -16.572  0.00  0.00    +0.171 C 
BRANCH   7  11
ATOM      8  C   LIG    1       -2.946  -0.583 -17.254  0.00  0.00    +0.163 A 
ATOM      9  C   LIG    1       -3.171   0.787 -17.486  0.00  0.00    +0.162 A 
ATOM     10  C   LIG    1       -2.135   1.681 -17.230  0.00  0.00    +0.059 A 
ATOM     11  C   LIG    1       -0.900   1.286 -16.726  0.00  0.00    +0.015 A 
ATOM     12  C   LIG    1       -0.741  -0.060 -16.369  0.00  0.00    +0.030 A 
ATOM     13 BR   LIG    1        0.807  -0.721 -15.467  0.00  0.00    -0.050 Br
ATOM     14  C   LIG    1       -1.744  -0.979 -16.660  0.00  0.00    +0.065 A 
BRANCH   8  16
ATOM     15  C   LIG    1       -4.682  -1.495 -18.595  0.00  0.00    +0.277 C 
ATOM     16  O   LIG    1       -3.820  -1.599 -17.466  0.00  0.00    -0.491 OA
ENDBRANCH   8  16
BRANCH   9  17
ATOM     17  O   LIG    1       -4.352   1.223 -18.003  0.00  0.00    -0.491 OA
ATOM     18  C   LIG    1       -4.804   2.519 -17.592  0.00  0.00    +0.277 C 
ENDBRANCH   9  17
ENDBRANCH   7  11
ENDBRANCH   1   7
BRANCH   1  19
ATOM     19  C   LIG    1        2.068   3.780 -17.347  0.00  0.00    +0.162 C 
BRANCH  19  20
ATOM     20  C   LIG    1        2.916   3.521 -16.074  0.00  0.00    +0.210 C 
BRANCH  20  21
ATOM     21  O   LIG    1        2.100   3.318 -14.915  0.00  0.00    -0.374 OA
BRANCH  21  22
ATOM     22  C   LIG    1        2.879   2.902 -13.791  0.00  0.00    +0.160 C 
BRANCH  22  23
ATOM     23  C   LIG    1        1.982   2.541 -12.602  0.00  0.00    +0.032 C 
BRANCH  23  24
ATOM     24  C   LIG    1        2.834   2.205 -11.364  0.00  0.00    -0.005 C 
ATOM     25  C   LIG    1        1.970   1.723 -10.185  0.00  0.00    -0.002 C 
ATOM     26  C   LIG    1        1.398   2.790  -9.155  0.00  0.00    -0.029 C 
ATOM     27  C   LIG    1        2.889   2.793  -8.620  0.00  0.00    -0.005 C 
ATOM     28  C   LIG    1        3.936   3.563  -9.433  0.00  0.00    +0.004 C 
ATOM     29  C   LIG    1        0.348   2.201  -8.188  0.00  0.00    +0.011 C 
ATOM     30  C   LIG    1        0.845   4.120  -9.664  0.00  0.00    +0.011 C 
ATOM     31  C   LIG    1        2.944   1.299  -9.036  0.00  0.00    +0.008 C 
ATOM     32  C   LIG    1        3.725   3.396 -10.943  0.00  0.00    +0.004 C 
ENDBRANCH  23  24
ENDBRANCH  22  23
ENDBRANCH  21  22
ENDBRANCH  20  21
ENDBRANCH  19  20
ENDBRANCH   1  19
TORSDOF 10
