REMARK  Name = *****
REMARK                            x       y       z     vdW  Elec       q    Type
REMARK                         _______ _______ _______ _____ _____    ______ ____
ROOT
ATOM      1  C   LIG    1        3.796   0.879  -0.161  0.00  0.00    +0.172 C 
ENDROOT
BRANCH   1   2
ATOM      2  C   LIG    1        4.655   2.118   0.055  0.00  0.00    -0.013 A 
ATOM      3  C   LIG    1        6.052   2.043  -0.079  0.00  0.00    +0.055 A 
ATOM      4  C   LIG    1        6.830   3.184   0.099  0.00  0.00    +0.159 A 
ATOM      5  C   LIG    1        6.247   4.409   0.411  0.00  0.00    +0.158 A 
ATOM      6  C   LIG    1        4.872   4.508   0.557  0.00  0.00    +0.049 A 
ATOM      7  C   LIG    1        4.083   3.363   0.387  0.00  0.00    +0.010 A 
BRANCH   4   8
ATOM      8  O   LIG    1        8.187   3.097  -0.036  0.00  0.00    -0.503 OA
ATOM      9  H   LIG    1        8.510   4.004   0.138  0.00  0.00    +0.292 HD
ENDBRANCH   4   8
BRANCH   5  10
ATOM     10  O   LIG    1        7.071   5.489   0.569  0.00  0.00    -0.503 OA
ATOM     11  H   LIG    1        6.520   6.258   0.800  0.00  0.00    +0.292 HD
ENDBRANCH   5  10
ENDBRANCH   1   2
BRANCH   1  12
ATOM     12  O   LIG    1        2.522   1.254  -0.742  0.00  0.00    -0.385 OA
ATOM     13  H   LIG    1        2.734   1.905  -1.439  0.00  0.00    +0.210 HD
ENDBRANCH   1  12
BRANCH   1  14
ATOM     14  CA  LIG    1        3.517   0.042   1.113  0.00  0.00    +0.194 C 
BRANCH  14  15
ATOM     15  N   LIG    1        2.675   0.746   2.119  0.00  0.00    -0.316 NA
ATOM     16  H1  LIG    1        1.819   1.075   1.678  0.00  0.00    +0.119 HD
ATOM     17  H2  LIG    1        2.399   0.077   2.841  0.00  0.00    +0.119 HD
ENDBRANCH  14  15
BRANCH  14  18
ATOM     18  C   LIG    1        2.813  -1.260   0.692  0.00  0.00    +0.325 C 
ATOM     19  O   LIG    1        3.269  -2.382   0.889  0.00  0.00    -0.249 OA
BRANCH  18  20
ATOM     20  OXT LIG    1        1.589  -1.071   0.138  0.00  0.00    -0.479 OA
ATOM     21  HXT LIG    1        1.442  -0.121  -0.078  0.00  0.00    +0.295 HD
ENDBRANCH  18  20
ENDBRANCH  14  18
ENDBRANCH   1  14
TORSDOF 8
