REMARK  Name = *****
REMARK                            x       y       z     vdW  Elec       q    Type
REMARK                         _______ _______ _______ _____ _____    ______ ____
ROOT
ATOM      1  C   LIG    1        4.277  -2.004  -0.159  0.00  0.00    +0.180 C 
ATOM      2  C   LIG    1        4.977  -2.051  -1.530  0.00  0.00    +0.075 C 
ATOM      3  C   LIG    1        6.475  -2.242  -1.411  0.00  0.00    -0.064 C 
ATOM      4  C   LIG    1        7.108  -3.163  -2.154  0.00  0.00    -0.027 C 
ATOM      5  C   LIG    1        8.555  -3.517  -2.041  0.00  0.00    +0.031 C 
ATOM      6  C   LIG    1        9.323  -2.888  -0.858  0.00  0.00    +0.001 C 
ATOM      7  C   LIG    1        8.745  -1.512  -0.473  0.00  0.00    +0.003 C 
ATOM      8  C   LIG    1        9.584  -0.911   0.665  0.00  0.00    +0.005 C 
ATOM      9  C   LIG    1        9.730  -1.805   1.885  0.00  0.00    +0.012 C 
ATOM     10  C   LIG    1       10.223  -3.237   1.598  0.00  0.00    -0.003 C 
ATOM     11  C   LIG    1        9.917  -4.116   2.839  0.00  0.00    +0.016 C 
ATOM     12  C   LIG    1       11.700  -3.395   1.225  0.00  0.00    -0.036 C 
ATOM     13  C   LIG    1       11.844  -4.392   0.332  0.00  0.00    -0.022 C 
ATOM     14  C   LIG    1       10.532  -4.984  -0.073  0.00  0.00    +0.032 C 
ATOM     15  C   LIG    1        9.534  -3.873   0.335  0.00  0.00    +0.007 C 
ATOM     16  C   LIG    1        7.171  -1.426  -0.328  0.00  0.00    -0.008 C 
ATOM     17  C   LIG    1        6.803   0.080  -0.486  0.00  0.00    +0.016 C 
ATOM     18  C   LIG    1        6.597  -1.938   1.018  0.00  0.00    +0.015 C 
ATOM     19  C   LIG    1        5.169  -2.516   0.976  0.00  0.00    +0.046 C 
ENDROOT
BRANCH  12  20
ATOM     20  C   LIG    1       12.836  -2.641   1.788  0.00  0.00    -0.004 A 
ATOM     21  C   LIG    1       13.998  -2.411   1.046  0.00  0.00    +0.119 A 
ATOM     22  N   LIG    1       15.078  -1.705   1.472  0.00  0.00    -0.263 NA
ATOM     23  C   LIG    1       15.003  -1.182   2.711  0.00  0.00    +0.111 A 
ATOM     24  C   LIG    1       13.908  -1.341   3.538  0.00  0.00    +0.020 A 
ATOM     25  C   LIG    1       12.825  -2.087   3.071  0.00  0.00    +0.011 A 
ENDBRANCH  12  20
BRANCH   1  26
ATOM     26  O   LIG    1        3.102  -2.846  -0.231  0.00  0.00    -0.461 OA
BRANCH  26  28
ATOM     27  C   LIG    1        0.940  -3.487   0.432  0.00  0.00    +0.136 C 
ATOM     28  C   LIG    1        2.059  -2.503   0.568  0.00  0.00    +0.304 C 
ATOM     29  O   LIG    1        2.011  -1.512   1.289  0.00  0.00    -0.251 OA
ENDBRANCH  26  28
ENDBRANCH   1  26
TORSDOF 3
