REMARK  Name = *****
REMARK                            x       y       z     vdW  Elec       q    Type
REMARK                         _______ _______ _______ _____ _____    ______ ____
ROOT
ATOM      1  C   LIG    1        5.388   2.836  -0.007  0.00  0.00    +0.291 A 
ATOM      2  O   LIG    1        4.939   4.122  -0.127  0.00  0.00    -0.424 OA
ATOM      3  C   LIG    1        6.072   4.900  -0.250  0.00  0.00    +0.165 A 
ATOM      4  C   LIG    1        7.154   4.038  -0.154  0.00  0.00    +0.119 A 
ATOM      5  N   LIG    1        6.705   2.747   0.025  0.00  0.00    -0.195 NA
ENDROOT
BRANCH   3   6
ATOM      6  C   LIG    1        5.827   6.317  -0.495  0.00  0.00    +0.019 A 
ATOM      7  C   LIG    1        4.704   6.953   0.059  0.00  0.00    +0.012 A 
ATOM      8  C   LIG    1        4.462   8.312  -0.166  0.00  0.00    +0.001 A 
ATOM      9  C   LIG    1        5.344   9.060  -0.941  0.00  0.00    +0.000 A 
ATOM     10  C   LIG    1        6.459   8.446  -1.503  0.00  0.00    +0.001 A 
ATOM     11  C   LIG    1        6.689   7.083  -1.294  0.00  0.00    +0.012 A 
ENDBRANCH   3   6
BRANCH   4  12
ATOM     12  C   LIG    1        8.575   4.326  -0.275  0.00  0.00    +0.004 A 
ATOM     13  C   LIG    1        9.406   3.366  -0.875  0.00  0.00    +0.010 A 
ATOM     14  C   LIG    1       10.771   3.606  -1.051  0.00  0.00    +0.001 A 
ATOM     15  C   LIG    1       11.323   4.812  -0.629  0.00  0.00    +0.000 A 
ATOM     16  C   LIG    1       10.517   5.764  -0.007  0.00  0.00    +0.001 A 
ATOM     17  C   LIG    1        9.154   5.514   0.186  0.00  0.00    +0.010 A 
ENDBRANCH   4  12
BRANCH   1  18
ATOM     18  N   LIG    1        4.473   1.835   0.023  0.00  0.00    -0.281 N 
BRANCH  18  19
ATOM     19  C   LIG    1        3.231   2.031  -0.753  0.00  0.00    +0.137 C 
BRANCH  19  20
ATOM     20  C   LIG    1        3.469   2.373  -2.238  0.00  0.00    +0.175 C 
BRANCH  20  21
ATOM     21  O   LIG    1        4.179   1.337  -2.913  0.00  0.00    -0.394 OA
ATOM     22  H   LIG    1        4.237   1.599  -3.848  0.00  0.00    +0.209 HD
ENDBRANCH  20  21
ENDBRANCH  19  20
ENDBRANCH  18  19
BRANCH  18  23
ATOM     23  C   LIG    1        5.007   0.457   0.050  0.00  0.00    +0.137 C 
BRANCH  23  24
ATOM     24  C   LIG    1        4.583  -0.292   1.323  0.00  0.00    +0.175 C 
BRANCH  24  25
ATOM     25  O   LIG    1        3.171  -0.485   1.397  0.00  0.00    -0.394 OA
ATOM     26  H   LIG    1        2.809   0.370   1.687  0.00  0.00    +0.209 HD
ENDBRANCH  24  25
ENDBRANCH  23  24
ENDBRANCH  18  23
ENDBRANCH   1  18
TORSDOF 9
