REMARK  Name = *****
REMARK                            x       y       z     vdW  Elec       q    Type
REMARK                         _______ _______ _______ _____ _____    ______ ____
ROOT
ATOM      1  C   LIG    1        0.635  -1.858  -0.707  0.00  0.00    +0.272 C 
ATOM      2  C   LIG    1       -0.713  -1.397  -1.382  0.00  0.00    +0.144 C 
ATOM      3  N   LIG    1       -1.598  -1.076  -0.222  0.00  0.00    -0.282 NA
ATOM      4  C   LIG    1       -1.012   0.010   0.590  0.00  0.00    +0.113 C 
ATOM      5  C   LIG    1        0.488  -0.204   0.932  0.00  0.00    +0.178 C 
ATOM      6  O   LIG    1        1.284  -0.715  -0.144  0.00  0.00    -0.348 OA
ENDROOT
BRANCH   2   7
ATOM      7  C   LIG    1       -0.569  -0.291  -2.459  0.00  0.00    -0.025 A 
ATOM      8  C   LIG    1       -1.550   0.691  -2.708  0.00  0.00    +0.008 A 
ATOM      9  C   LIG    1       -1.395   1.690  -3.672  0.00  0.00    +0.039 A 
ATOM     10  C   LIG    1       -0.249   1.717  -4.437  0.00  0.00    +0.123 A 
ATOM     11  F   LIG    1       -0.089   2.679  -5.353  0.00  0.00    -0.205 F 
ATOM     12  C   LIG    1        0.730   0.754  -4.259  0.00  0.00    +0.039 A 
ATOM     13  C   LIG    1        0.566  -0.245  -3.289  0.00  0.00    +0.008 A 
ENDBRANCH   2   7
BRANCH   1  14
ATOM     14  O   LIG    1        1.497  -2.625  -1.562  0.00  0.00    -0.342 OA
BRANCH  14  16
ATOM     15  C   LIG    1        3.584  -3.847  -1.825  0.00  0.00    +0.043 C 
ATOM     16  C   LIG    1        2.656  -3.106  -0.858  0.00  0.00    +0.148 C 
BRANCH  16  17
ATOM     17  C   LIG    1        2.259  -4.016   0.293  0.00  0.00    -0.018 A 
ATOM     18  C   LIG    1        2.547  -3.634   1.612  0.00  0.00    +0.018 A 
ATOM     19  C   LIG    1        2.175  -4.439   2.698  0.00  0.00    +0.056 A 
ATOM     20  C   LIG    1        1.481  -5.633   2.449  0.00  0.00    +0.024 A 
ATOM     21  C   LIG    1        1.173  -6.032   1.137  0.00  0.00    +0.056 A 
ATOM     22  C   LIG    1        1.553  -5.207   0.069  0.00  0.00    +0.018 A 
BRANCH  19  23
ATOM     23  C   LIG    1        2.559  -4.022   4.098  0.00  0.00    +0.417 C 
ATOM     24  F   LIG    1        2.002  -2.834   4.462  0.00  0.00    -0.166 F 
ATOM     25  F   LIG    1        3.905  -3.860   4.229  0.00  0.00    -0.166 F 
ATOM     26  F   LIG    1        2.195  -4.918   5.055  0.00  0.00    -0.166 F 
ENDBRANCH  19  23
BRANCH  21  27
ATOM     27  C   LIG    1        0.440  -7.327   0.879  0.00  0.00    +0.417 C 
ATOM     28  F   LIG    1       -0.911  -7.177   0.910  0.00  0.00    -0.166 F 
ATOM     29  F   LIG    1        0.735  -8.287   1.798  0.00  0.00    -0.166 F 
ATOM     30  F   LIG    1        0.733  -7.872  -0.334  0.00  0.00    -0.166 F 
ENDBRANCH  21  27
ENDBRANCH  16  17
ENDBRANCH  14  16
ENDBRANCH   1  14
BRANCH   3  31
ATOM     31  C   LIG    1       -3.056  -0.986  -0.371  0.00  0.00    +0.161 C 
BRANCH  31  32
ATOM     32  C   LIG    1       -3.649  -2.117  -1.183  0.00  0.00    +0.145 C 
ATOM     33  N   LIG    1       -3.334  -2.282  -2.476  0.00  0.00    -0.292 N 
ATOM     34  H   LIG    1       -2.674  -1.809  -3.059  0.00  0.00    +0.172 HD
ATOM     35  C   LIG    1       -4.039  -3.382  -2.899  0.00  0.00    +0.342 C 
ATOM     36  O   LIG    1       -3.968  -3.896  -3.984  0.00  0.00    -0.245 OA
ATOM     37  N   LIG    1       -4.784  -3.777  -1.807  0.00  0.00    -0.227 N 
ATOM     38  H   LIG    1       -5.442  -4.541  -1.789  0.00  0.00    +0.194 HD
ATOM     39  N   LIG    1       -4.529  -2.973  -0.728  0.00  0.00    -0.155 NA
ENDBRANCH  31  32
ENDBRANCH   3  31
TORSDOF 8
