REMARK  Name = *****
REMARK                            x       y       z     vdW  Elec       q    Type
REMARK                         _______ _______ _______ _____ _____    ______ ____
ROOT
ATOM      1  C   LIG    1        2.565  -0.807  -0.502  0.00  0.00    -0.034 A 
ATOM      2  C   LIG    1        2.889  -2.062   0.036  0.00  0.00    +0.005 A 
ATOM      3  C   LIG    1        3.122  -3.169  -0.792  0.00  0.00    +0.012 A 
ATOM      4  C   LIG    1        3.004  -3.054  -2.181  0.00  0.00    +0.023 A 
ATOM      5  C   LIG    1        2.699  -1.796  -2.725  0.00  0.00    +0.012 A 
ATOM      6  C   LIG    1        2.490  -0.684  -1.897  0.00  0.00    +0.005 A 
ENDROOT
BRANCH   1   8
ATOM      7  C   LIG    1        3.729   1.032   0.754  0.00  0.00    +0.024 C 
ATOM      8  C   LIG    1        2.380   0.385   0.432  0.00  0.00    +0.124 C 
BRANCH   8   9
ATOM      9  C   LIG    1        1.380   1.432  -0.057  0.00  0.00    +0.312 C 
ATOM     10  O   LIG    1        1.609   2.627  -0.161  0.00  0.00    -0.250 OA
BRANCH   9  11
ATOM     11  O   LIG    1        0.153   0.920  -0.327  0.00  0.00    -0.480 OA
ATOM     12  H   LIG    1        0.101  -0.049  -0.220  0.00  0.00    +0.295 HD
ENDBRANCH   9  11
ENDBRANCH   8   9
ENDBRANCH   1   8
BRANCH   4  13
ATOM     13  C   LIG    1        3.298  -4.186  -3.118  0.00  0.00    +0.200 C 
ATOM     14  O   LIG    1        3.760  -3.881  -4.219  0.00  0.00    -0.286 OA
BRANCH  13  15
ATOM     15  C   LIG    1        3.109  -5.581  -2.734  0.00  0.00    +0.059 A 
ATOM     16  S   LIG    1        1.829  -6.107  -1.722  0.00  0.00    -0.093 S 
ATOM     17  C   LIG    1        2.347  -7.736  -1.789  0.00  0.00    +0.046 A 
ATOM     18  C   LIG    1        3.421  -7.899  -2.634  0.00  0.00    +0.008 A 
ATOM     19  C   LIG    1        3.839  -6.661  -3.202  0.00  0.00    +0.019 A 
ENDBRANCH  13  15
ENDBRANCH   4  13
TORSDOF 5
