REMARK  Name = *****
REMARK                            x       y       z     vdW  Elec       q    Type
REMARK                         _______ _______ _______ _____ _____    ______ ____
ROOT
ATOM      1  C   LIG    1        4.149   2.028  -0.136  0.00  0.00    +0.022 C 
ENDROOT
BRANCH   1   2
ATOM      2  C   LIG    1        5.253   2.983  -0.655  0.00  0.00    -0.010 C 
ATOM      3  C   LIG    1        4.626   4.211  -1.345  0.00  0.00    +0.003 C 
ATOM      4  C   LIG    1        3.986   5.189  -0.361  0.00  0.00    +0.000 C 
ATOM      5  C   LIG    1        4.958   5.609   0.736  0.00  0.00    +0.000 C 
ATOM      6  C   LIG    1        5.594   4.410   1.434  0.00  0.00    +0.000 C 
ATOM      7  C   LIG    1        6.234   3.451   0.433  0.00  0.00    +0.003 C 
ENDBRANCH   1   2
BRANCH   1   8
ATOM      8  C   LIG    1        4.638   0.706   0.501  0.00  0.00    +0.051 C 
ATOM      9  C   LIG    1        3.416  -0.105   0.956  0.00  0.00    +0.024 C 
BRANCH   8  11
ATOM     10  C   LIG    1        6.035  -1.257   0.068  0.00  0.00    +0.101 C 
ATOM     11  N   LIG    1        5.465  -0.029  -0.464  0.00  0.00    -0.317 NA
ATOM     12  H   LIG    1        4.924  -0.237  -1.301  0.00  0.00    +0.122 HD
ENDBRANCH   8  11
ENDBRANCH   1   8
TORSDOF 3
