REMARK  Name = *****
REMARK                            x       y       z     vdW  Elec       q    Type
REMARK                         _______ _______ _______ _____ _____    ______ ____
ROOT
ATOM      1  C   LIG    1        3.035  -0.112   0.000  0.00  0.00    +0.086 C 
ENDROOT
BRANCH   1   2
ATOM      2  N   LIG    1        1.640  -0.461  -0.415  0.00  0.00    -0.319 NA
ATOM      3  H   LIG    1        1.037  -0.252   0.386  0.00  0.00    +0.119 HD
ATOM      4  H   LIG    1        1.372   0.226  -1.128  0.00  0.00    +0.119 HD
ENDBRANCH   1   2
BRANCH   1   5
ATOM      5  C   LIG    1        3.386  -0.871   1.302  0.00  0.00    +0.182 C 
BRANCH   5   6
ATOM      6  O   LIG    1        2.508  -0.487   2.366  0.00  0.00    -0.393 OA
ATOM      7  H   LIG    1        2.748  -1.033   3.132  0.00  0.00    +0.209 HD
ENDBRANCH   5   6
ENDBRANCH   1   5
BRANCH   1   8
ATOM      8  C   LIG    1        3.153   1.412   0.237  0.00  0.00    +0.182 C 
BRANCH   8   9
ATOM      9  O   LIG    1        2.818   2.133  -0.953  0.00  0.00    -0.393 OA
ATOM     10  H   LIG    1        3.000   3.069  -0.774  0.00  0.00    +0.209 HD
ENDBRANCH   8   9
ENDBRANCH   1   8
BRANCH   1  11
ATOM     11  C   LIG    1        3.973  -0.552  -1.145  0.00  0.00    +0.182 C 
BRANCH  11  12
ATOM     12  O   LIG    1        3.807  -1.948  -1.405  0.00  0.00    -0.393 OA
ATOM     13  H   LIG    1        2.834  -2.074  -1.389  0.00  0.00    +0.209 HD
ENDBRANCH  11  12
ENDBRANCH   1  11
TORSDOF 7
