REMARK  Name = *****
REMARK                            x       y       z     vdW  Elec       q    Type
REMARK                         _______ _______ _______ _____ _____    ______ ____
ROOT
ATOM      1  C   LIG    1        4.368  -1.512   0.326  0.00  0.00    +0.102 C 
ATOM      2  C   LIG    1        4.669  -2.872   0.943  0.00  0.00    +0.006 A 
ATOM      3  C   LIG    1        5.375  -3.839   0.253  0.00  0.00    +0.149 A 
ATOM      4  S   LIG    1        5.657  -5.249   1.141  0.00  0.00    -0.048 S 
ATOM      5  C   LIG    1        4.859  -4.611   2.514  0.00  0.00    +0.144 A 
ATOM      6  S   LIG    1        5.921  -3.771  -1.434  0.00  0.00    +0.068 S 
ATOM      7  O   LIG    1        7.315  -4.137  -1.436  0.00  0.00    -0.152 OA
ATOM      8  O   LIG    1        4.902  -4.523  -2.137  0.00  0.00    -0.152 OA
ATOM      9  N   LIG    1        5.722  -2.123  -1.832  0.00  0.00    -0.174 NA
ATOM     10  C   LIG    1        4.313  -3.362   2.248  0.00  0.00    +0.043 A 
ATOM     11  C   LIG    1        4.455  -1.539  -1.253  0.00  0.00    +0.133 C 
ENDROOT
BRANCH   5  12
ATOM     12  S   LIG    1        4.910  -5.607   3.988  0.00  0.00    +0.062 S 
ATOM     13  O   LIG    1        3.527  -5.993   4.213  0.00  0.00    -0.153 OA
ATOM     14  O   LIG    1        5.670  -4.826   4.925  0.00  0.00    -0.153 OA
BRANCH  12  15
ATOM     15  N   LIG    1        5.774  -7.012   3.679  0.00  0.00    -0.203 NA
ATOM     16  H   LIG    1        5.308  -7.615   3.002  0.00  0.00    +0.144 HD
ATOM     17  H   LIG    1        6.753  -6.815   3.460  0.00  0.00    +0.144 HD
ENDBRANCH  12  15
ENDBRANCH   5  12
BRANCH   1  18
ATOM     18  N   LIG    1        5.293  -0.564   0.976  0.00  0.00    -0.308 NA
ATOM     19  H   LIG    1        5.178  -0.636   1.989  0.00  0.00    +0.122 HD
BRANCH  18  21
ATOM     20  C   LIG    1        6.034   1.757   1.290  0.00  0.00    +0.020 C 
ATOM     21  C   LIG    1        5.054   0.829   0.591  0.00  0.00    +0.078 C 
ENDBRANCH  18  21
ENDBRANCH   1  18
BRANCH   9  22
ATOM     22  C   LIG    1        6.940  -1.270  -1.824  0.00  0.00    +0.112 C 
BRANCH  22  23
ATOM     23  C   LIG    1        6.728  -0.019  -2.679  0.00  0.00    +0.045 C 
BRANCH  23  24
ATOM     24  C   LIG    1        7.944   0.895  -2.721  0.00  0.00    +0.161 C 
BRANCH  24  25
ATOM     25  O   LIG    1        7.589   2.030  -3.515  0.00  0.00    -0.383 OA
ATOM     26  C   LIG    1        8.658   2.957  -3.636  0.00  0.00    +0.193 C 
ENDBRANCH  24  25
ENDBRANCH  23  24
ENDBRANCH  22  23
ENDBRANCH   9  22
TORSDOF 8
