REMARK  Name = *****
REMARK                            x       y       z     vdW  Elec       q    Type
REMARK                         _______ _______ _______ _____ _____    ______ ____
ROOT
ATOM      1  C   LIG    1        5.869   5.558  -1.702  0.00  0.00    +0.265 C 
ATOM      2  N   LIG    1        6.937   4.988  -1.026  0.00  0.00    -0.307 N 
ATOM      3  H   LIG    1        7.810   4.973  -1.545  0.00  0.00    +0.149 HD
ATOM      4  O   LIG    1        4.735   5.610  -1.241  0.00  0.00    -0.268 OA
ENDROOT
BRANCH   1  12
ATOM      5  C   LIG    1        8.623   6.649  -5.518  0.00  0.00    +0.173 C 
ATOM      6  N   LIG    1        7.422   6.590  -4.720  0.00  0.00    -0.266 N 
ATOM      7  C   LIG    1        6.189   7.100  -5.039  0.00  0.00    +0.069 A 
ATOM      8  C   LIG    1        5.375   6.780  -3.954  0.00  0.00    +0.032 A 
ATOM      9  C   LIG    1        4.019   7.169  -3.988  0.00  0.00    +0.012 A 
ATOM     10  C   LIG    1        3.528   7.866  -5.100  0.00  0.00    +0.001 A 
ATOM     11  C   LIG    1        4.365   8.180  -6.167  0.00  0.00    +0.002 A 
ATOM     12  C   LIG    1        6.226   6.096  -3.030  0.00  0.00    +0.155 A 
ATOM     13  C   LIG    1        5.713   7.804  -6.158  0.00  0.00    +0.028 A 
ATOM     14  N   LIG    1        7.483   5.991  -3.513  0.00  0.00    -0.166 NA
ENDBRANCH   1  12
BRANCH   2  15
ATOM     15  C   LIG    1        6.816   4.401   0.304  0.00  0.00    +0.076 C 
ATOM     16  C   LIG    1        6.664   5.448   1.421  0.00  0.00    +0.041 C 
ATOM     17  C   LIG    1        7.940   5.788   2.212  0.00  0.00    +0.058 C 
ATOM     18  N   LIG    1        8.565   4.526   2.628  0.00  0.00    -0.299 NA
ATOM     19  C   LIG    1        9.089   3.822   1.453  0.00  0.00    +0.058 C 
ATOM     20  C   LIG    1       10.128   4.641   0.670  0.00  0.00    +0.019 C 
ATOM     21  C   LIG    1        9.710   6.074   0.357  0.00  0.00    +0.003 C 
ATOM     22  C   LIG    1        9.552   4.695   3.692  0.00  0.00    +0.105 C 
ATOM     23  C   LIG    1        8.905   6.729   1.473  0.00  0.00    +0.019 C 
ATOM     24  C   LIG    1        7.900   3.351   0.596  0.00  0.00    +0.041 C 
ENDBRANCH   2  15
TORSDOF 2
