REMARK  Name = *****
REMARK                            x       y       z     vdW  Elec       q    Type
REMARK                         _______ _______ _______ _____ _____    ______ ____
ROOT
ATOM      1  C   LIG    1        0.905   0.206   0.174  0.00  0.00    +0.105 C 
ATOM      2  N   LIG    1        2.360   0.159   0.043  0.00  0.00    -0.305 NA
ATOM      3  C   LIG    1        2.844  -1.195  -0.260  0.00  0.00    +0.088 C 
ATOM      4  C   LIG    1        2.518  -1.693  -1.679  0.00  0.00    +0.047 C 
ATOM      5  C   LIG    1        2.981  -0.726  -2.762  0.00  0.00    -0.059 C 
ATOM      6  C   LIG    1        3.707  -1.092  -3.860  0.00  0.00    -0.010 C 
ATOM      7  C   LIG    1        4.170  -0.022  -4.795  0.00  0.00    -0.014 A 
ATOM      8  C   LIG    1        5.544   0.269  -4.905  0.00  0.00    -0.039 A 
ATOM      9  C   LIG    1        5.964   1.305  -5.755  0.00  0.00    +0.004 A 
ATOM     10  C   LIG    1        5.033   2.038  -6.491  0.00  0.00    +0.000 A 
ATOM     11  C   LIG    1        3.677   1.732  -6.406  0.00  0.00    +0.001 A 
ATOM     12  C   LIG    1        6.564  -0.536  -4.131  0.00  0.00    +0.041 C 
ATOM     13  C   LIG    1        6.664  -1.983  -4.621  0.00  0.00    +0.048 C 
ATOM     14  C   LIG    1        5.430  -2.826  -4.402  0.00  0.00    -0.002 A 
ATOM     15  S   LIG    1        5.589  -4.531  -4.556  0.00  0.00    -0.101 S 
ATOM     16  C   LIG    1        3.924  -4.782  -4.300  0.00  0.00    +0.046 A 
ATOM     17  C   LIG    1        3.248  -3.598  -4.117  0.00  0.00    +0.016 A 
ATOM     18  C   LIG    1        3.248   0.697  -5.574  0.00  0.00    +0.009 A 
ATOM     19  C   LIG    1        4.125  -2.463  -4.104  0.00  0.00    -0.007 A 
ATOM     20  C   LIG    1        2.553   0.703  -2.430  0.00  0.00    +0.047 C 
ATOM     21  C   LIG    1        2.857   1.098  -0.973  0.00  0.00    +0.088 C 
ENDROOT
TORSDOF 0
