REMARK  Name = *****
REMARK                            x       y       z     vdW  Elec       q    Type
REMARK                         _______ _______ _______ _____ _____    ______ ____
ROOT
ATOM      1  C   LIG    1        3.139  -1.546  -0.496  0.00  0.00    +0.264 C 
ATOM      2  C   LIG    1        1.665  -1.886  -0.887  0.00  0.00    +0.257 C 
ATOM      3  O   LIG    1        0.879  -0.995  -1.222  0.00  0.00    -0.272 OA
ATOM      4  N   LIG    1        1.227  -3.201  -0.720  0.00  0.00    -0.288 N 
ATOM      5  C   LIG    1        0.087  -3.251   0.210  0.00  0.00    +0.133 C 
ATOM      6  C   LIG    1        0.950  -4.050  -1.915  0.00  0.00    +0.187 C 
ATOM      7  C   LIG    1        0.978  -5.541  -1.461  0.00  0.00    +0.329 C 
ATOM      8  O   LIG    1       -0.048  -6.122  -1.132  0.00  0.00    -0.249 OA
ATOM      9  O   LIG    1        2.239  -6.084  -1.353  0.00  0.00    -0.450 OA
ATOM     10  C   LIG    1        2.283  -7.442  -0.834  0.00  0.00    +0.264 C 
ATOM     11  C   LIG    1        3.209  -8.394  -1.653  0.00  0.00    +0.257 C 
ATOM     12  O   LIG    1        2.762  -9.432  -2.148  0.00  0.00    -0.272 OA
ATOM     13  N   LIG    1        4.583  -8.124  -1.658  0.00  0.00    -0.288 N 
ATOM     14  C   LIG    1        5.321  -9.291  -1.148  0.00  0.00    +0.133 C 
ATOM     15  C   LIG    1        5.224  -7.617  -2.912  0.00  0.00    +0.187 C 
ATOM     16  C   LIG    1        6.569  -6.934  -2.522  0.00  0.00    +0.329 C 
ATOM     17  O   LIG    1        7.610  -7.581  -2.437  0.00  0.00    -0.249 OA
ATOM     18  O   LIG    1        6.455  -5.617  -2.145  0.00  0.00    -0.450 OA
ATOM     19  C   LIG    1        7.657  -5.042  -1.573  0.00  0.00    +0.264 C 
ATOM     20  C   LIG    1        8.039  -3.648  -2.171  0.00  0.00    +0.257 C 
ATOM     21  O   LIG    1        9.053  -3.521  -2.862  0.00  0.00    -0.272 OA
ATOM     22  N   LIG    1        7.309  -2.530  -1.758  0.00  0.00    -0.288 N 
ATOM     23  C   LIG    1        8.197  -1.480  -1.235  0.00  0.00    +0.133 C 
ATOM     24  C   LIG    1        6.256  -1.939  -2.636  0.00  0.00    +0.187 C 
ATOM     25  C   LIG    1        5.173  -1.294  -1.712  0.00  0.00    +0.329 C 
ATOM     26  O   LIG    1        5.306  -0.167  -1.266  0.00  0.00    -0.249 OA
ATOM     27  O   LIG    1        4.135  -2.132  -1.379  0.00  0.00    -0.450 OA
ENDROOT
BRANCH   1  29
ATOM     28  C   LIG    1        3.543  -3.281   1.369  0.00  0.00    +0.011 C 
ATOM     29  C   LIG    1        3.493  -1.805   0.995  0.00  0.00    +0.033 C 
ATOM     30  C   LIG    1        2.564  -1.060   1.964  0.00  0.00    +0.011 C 
ENDBRANCH   1  29
BRANCH   6  31
ATOM     31  C   LIG    1        1.680  -3.836  -3.267  0.00  0.00    +0.014 C 
ATOM     32  C   LIG    1        0.950  -4.652  -4.357  0.00  0.00    +0.009 C 
ATOM     33  C   LIG    1        1.677  -2.395  -3.786  0.00  0.00    +0.009 C 
ENDBRANCH   6  31
BRANCH  10  34
ATOM     34  C   LIG    1        2.650  -7.475   0.677  0.00  0.00    +0.033 C 
ATOM     35  C   LIG    1        2.499  -8.876   1.284  0.00  0.00    +0.011 C 
ATOM     36  C   LIG    1        1.769  -6.547   1.510  0.00  0.00    +0.011 C 
ENDBRANCH  10  34
BRANCH  15  37
ATOM     37  C   LIG    1        4.424  -6.808  -3.969  0.00  0.00    +0.014 C 
ATOM     38  C   LIG    1        5.263  -6.710  -5.261  0.00  0.00    +0.009 C 
ATOM     39  C   LIG    1        3.098  -7.445  -4.403  0.00  0.00    +0.009 C 
ENDBRANCH  15  37
BRANCH  19  40
ATOM     40  C   LIG    1        7.577  -5.011  -0.019  0.00  0.00    +0.033 C 
ATOM     41  C   LIG    1        8.911  -4.597   0.620  0.00  0.00    +0.011 C 
ATOM     42  C   LIG    1        7.188  -6.365   0.588  0.00  0.00    +0.011 C 
ENDBRANCH  19  40
BRANCH  24  43
ATOM     43  C   LIG    1        5.665  -2.700  -3.855  0.00  0.00    +0.014 C 
ATOM     44  C   LIG    1        4.885  -1.697  -4.734  0.00  0.00    +0.009 C 
ATOM     45  C   LIG    1        6.698  -3.329  -4.801  0.00  0.00    +0.009 C 
ENDBRANCH  24  43
TORSDOF 6
