REMARK  Name = *****
REMARK                            x       y       z     vdW  Elec       q    Type
REMARK                         _______ _______ _______ _____ _____    ______ ____
ROOT
ATOM      1  C   LIG    1        4.278  -0.460  -0.437  0.00  0.00    +0.011 C 
ATOM      2  C   LIG    1        3.781   0.201  -1.494  0.00  0.00    -0.037 C 
ATOM      3  C   LIG    1        2.404   0.018  -2.090  0.00  0.00    +0.152 C 
ATOM      4  C   LIG    1        2.252   1.205  -3.109  0.00  0.00    +0.013 C 
ATOM      5  C   LIG    1        3.296   2.250  -2.620  0.00  0.00    +0.009 C 
ATOM      6  C   LIG    1        2.815   3.231  -1.509  0.00  0.00    +0.034 C 
ATOM      7  C   LIG    1        1.430   3.859  -1.804  0.00  0.00    +0.153 C 
ATOM      8  C   LIG    1        0.406   2.719  -2.051  0.00  0.00    +0.154 C 
ATOM      9  F   LIG    1        1.559   4.517  -3.014  0.00  0.00    -0.238 F 
ATOM     10  C   LIG    1        0.987   4.959  -0.728  0.00  0.00    +0.044 C 
ATOM     11  C   LIG    1        2.159   5.901  -0.323  0.00  0.00    -0.053 C 
ATOM     12  C   LIG    1        1.927   6.859   0.608  0.00  0.00    +0.051 C 
ATOM     13  C   LIG    1        1.386   6.259   1.885  0.00  0.00    +0.179 C 
ATOM     14  C   LIG    1        0.658   4.961   1.780  0.00  0.00    +0.047 C 
ATOM     15  O   LIG    1        1.481   6.852   2.954  0.00  0.00    -0.288 OA
ATOM     16  C   LIG    1        3.526   5.263  -0.209  0.00  0.00    +0.032 C 
ATOM     17  C   LIG    1       -0.152   5.834  -1.329  0.00  0.00    +0.023 C 
ATOM     18  C   LIG    1        0.454   4.375   0.586  0.00  0.00    -0.009 C 
ATOM     19  C   LIG    1        3.854   4.359  -1.376  0.00  0.00    +0.011 C 
ATOM     20  C   LIG    1        2.631   0.788  -4.558  0.00  0.00    +0.015 C 
ATOM     21  C   LIG    1        0.832   1.794  -3.193  0.00  0.00    +0.045 C 
ATOM     22  C   LIG    1        4.468   1.368  -2.141  0.00  0.00    +0.038 C 
ENDROOT
BRANCH   3  23
ATOM     23  O   LIG    1        1.480   0.167  -1.009  0.00  0.00    -0.376 OA
ATOM     24  H   LIG    1        0.683  -0.345  -1.261  0.00  0.00    +0.211 HD
ENDBRANCH   3  23
BRANCH   3  25
ATOM     25  C   LIG    1        2.165  -1.378  -2.715  0.00  0.00    +0.194 C 
ATOM     26  O   LIG    1        1.023  -1.861  -2.735  0.00  0.00    -0.291 OA
BRANCH  25  27
ATOM     27  C   LIG    1        3.333  -2.144  -3.322  0.00  0.00    +0.233 C 
BRANCH  27  28
ATOM     28  O   LIG    1        2.919  -2.833  -4.494  0.00  0.00    -0.387 OA
ATOM     29  H   LIG    1        2.054  -3.237  -4.286  0.00  0.00    +0.210 HD
ENDBRANCH  27  28
ENDBRANCH  25  27
ENDBRANCH   3  25
BRANCH   8  30
ATOM     30  O   LIG    1       -0.891   3.207  -2.404  0.00  0.00    -0.389 OA
ATOM     31  H   LIG    1       -0.784   3.751  -3.207  0.00  0.00    +0.210 HD
ENDBRANCH   8  30
TORSDOF 5
