REMARK  Name = *****
REMARK                            x       y       z     vdW  Elec       q    Type
REMARK                         _______ _______ _______ _____ _____    ______ ____
ROOT
ATOM      1  C   LIG    1        4.439  -1.097   1.255  0.00  0.00    +0.065 C 
ATOM      2  C   LIG    1        5.253  -1.216  -0.043  0.00  0.00    +0.098 C 
ATOM      3  C   LIG    1        6.710  -0.773   0.144  0.00  0.00    +0.065 C 
ATOM      4  C   LIG    1        7.262  -0.812   1.380  0.00  0.00    +0.016 C 
ATOM      5  C   LIG    1        8.704  -0.496   1.689  0.00  0.00    +0.061 C 
ATOM      6  N   LIG    1        6.476  -1.186   2.464  0.00  0.00    -0.321 N 
ATOM      7  H   LIG    1        6.910  -1.113   3.383  0.00  0.00    +0.152 HD
ATOM      8  C   LIG    1        5.082  -1.159   2.447  0.00  0.00    +0.016 C 
ATOM      9  C   LIG    1        4.454  -1.179   3.820  0.00  0.00    +0.061 C 
ENDROOT
BRANCH   2  10
ATOM     10  C   LIG    1        5.170  -2.644  -0.601  0.00  0.00    -0.004 A 
ATOM     11  C   LIG    1        4.530  -3.024  -1.808  0.00  0.00    +0.138 A 
ATOM     12  C   LIG    1        4.524  -4.402  -2.305  0.00  0.00    +0.135 A 
ATOM     13  N   LIG    1        3.876  -4.430  -3.475  0.00  0.00    -0.049 NA
ATOM     14  O   LIG    1        3.473  -3.129  -3.712  0.00  0.00    -0.242 OA
ATOM     15  C   LIG    1        5.126  -5.467  -1.615  0.00  0.00    +0.033 A 
ATOM     16  C   LIG    1        5.738  -5.096  -0.410  0.00  0.00    +0.003 A 
ATOM     17  N   LIG    1        3.851  -2.276  -2.689  0.00  0.00    -0.049 NA
ATOM     18  C   LIG    1        5.760  -3.757   0.068  0.00  0.00    +0.007 A 
ENDBRANCH   2  10
BRANCH   1  19
ATOM     19  C   LIG    1        2.969  -0.832   1.123  0.00  0.00    +0.337 C 
ATOM     20  O   LIG    1        2.139  -0.961   1.993  0.00  0.00    -0.245 OA
BRANCH  19  22
ATOM     21  C   LIG    1        1.378   0.024  -0.414  0.00  0.00    +0.280 C 
ATOM     22  O   LIG    1        2.725  -0.347  -0.124  0.00  0.00    -0.465 OA
ENDBRANCH  19  22
ENDBRANCH   1  19
BRANCH   3  23
ATOM     23  C   LIG    1        7.468  -0.310  -1.059  0.00  0.00    +0.338 C 
ATOM     24  O   LIG    1        8.605   0.115  -1.056  0.00  0.00    -0.245 OA
BRANCH  23  25
ATOM     25  O   LIG    1        6.701  -0.491  -2.161  0.00  0.00    -0.459 OA
BRANCH  25  26
ATOM     26  C   LIG    1        7.353  -0.519  -3.441  0.00  0.00    +0.171 C 
ATOM     27  C   LIG    1        6.798   0.600  -4.309  0.00  0.00    +0.051 C 
ATOM     28  C   LIG    1        7.035  -1.882  -4.040  0.00  0.00    +0.051 C 
ENDBRANCH  25  26
ENDBRANCH  23  25
ENDBRANCH   3  23
TORSDOF 6
