REMARK  Name = *****
REMARK                            x       y       z     vdW  Elec       q    Type
REMARK                         _______ _______ _______ _____ _____    ______ ____
ROOT
ATOM      1  C   LIG    1        5.300  -1.349  -2.482  0.00  0.00    +0.108 C 
ATOM      2  C   LIG    1        3.828  -1.580  -2.312  0.00  0.00    +0.123 C 
ATOM      3  C   LIG    1        3.510  -3.070  -2.449  0.00  0.00    +0.207 C 
ATOM      4  O   LIG    1        4.097  -3.603  -3.651  0.00  0.00    -0.454 OA
ATOM      5  C   LIG    1        5.384  -3.308  -3.960  0.00  0.00    +0.336 C 
ATOM      6  O   LIG    1        6.011  -3.931  -4.807  0.00  0.00    -0.245 OA
ATOM      7  C   LIG    1        6.020  -2.195  -3.237  0.00  0.00    +0.132 C 
ENDROOT
BRANCH   1   9
ATOM      8  C   LIG    1        7.164   0.038  -1.903  0.00  0.00    +0.276 C 
ATOM      9  O   LIG    1        5.774  -0.254  -1.795  0.00  0.00    -0.499 OA
ENDBRANCH   1   9
BRANCH   3  10
ATOM     10  C   LIG    1        3.889  -3.883  -1.227  0.00  0.00    +0.018 C 
ATOM     11  C   LIG    1        4.675  -4.973  -1.211  0.00  0.00    +0.007 C 
BRANCH  11  12
ATOM     12  C   LIG    1        5.020  -5.741  -0.022  0.00  0.00    -0.029 C 
ATOM     13  C   LIG    1        5.148  -5.169   1.311  0.00  0.00    +0.003 C 
ATOM     14  C   LIG    1        5.521  -5.883   2.380  0.00  0.00    -0.026 C 
ATOM     15  C   LIG    1        5.861  -7.341   2.308  0.00  0.00    +0.031 C 
ATOM     16  C   LIG    1        5.688  -7.983   0.924  0.00  0.00    +0.032 C 
ATOM     17  C   LIG    1        5.310  -7.048  -0.190  0.00  0.00    -0.019 C 
ENDBRANCH  11  12
ENDBRANCH   3  10
TORSDOF 3
