REMARK  Name = *****
REMARK                            x       y       z     vdW  Elec       q    Type
REMARK                         _______ _______ _______ _____ _____    ______ ____
ROOT
ATOM      1  C   LIG    1        8.413   3.190   5.431  0.00  0.00    +0.195 C 
ENDROOT
BRANCH   1   2
ATOM      2  C   LIG    1        7.684   1.982   6.037  0.00  0.00    -0.015 A 
ATOM      3  C   LIG    1        7.681   1.463   7.377  0.00  0.00    -0.038 A 
ATOM      4  C   LIG    1        6.806   0.375   7.670  0.00  0.00    +0.053 A 
ATOM      5  C   LIG    1        5.945  -0.126   6.747  0.00  0.00    +0.167 A 
ATOM      6  O   LIG    1        5.034  -1.116   6.928  0.00  0.00    -0.453 OA
ATOM      7  C   LIG    1        4.380  -1.131   5.642  0.00  0.00    +0.466 C 
ATOM      8  O   LIG    1        4.952  -0.189   4.705  0.00  0.00    -0.453 OA
ATOM      9  C   LIG    1        5.902   0.401   5.469  0.00  0.00    +0.167 A 
ATOM     10  C   LIG    1        6.746   1.416   5.117  0.00  0.00    +0.055 A 
BRANCH   3  11
ATOM     11  C   LIG    1        8.419   2.001   8.587  0.00  0.00    +0.035 C 
BRANCH  11  12
ATOM     12  C   LIG    1        9.905   1.695   8.744  0.00  0.00    +0.001 C 
ATOM     13  C   LIG    1       10.856   2.502   7.899  0.00  0.00    +0.004 C 
ENDBRANCH  11  12
ENDBRANCH   3  11
ENDBRANCH   1   2
BRANCH   1  14
ATOM     14  O   LIG    1        9.751   3.576   5.762  0.00  0.00    -0.373 OA
BRANCH  14  15
ATOM     15  C   LIG    1       10.095   4.770   5.041  0.00  0.00    +0.188 C 
BRANCH  15  16
ATOM     16  C   LIG    1       11.470   5.434   5.241  0.00  0.00    +0.188 C 
BRANCH  16  17
ATOM     17  O   LIG    1       12.581   4.720   4.702  0.00  0.00    -0.375 OA
BRANCH  17  18
ATOM     18  C   LIG    1       13.799   5.484   4.779  0.00  0.00    +0.188 C 
BRANCH  18  19
ATOM     19  C   LIG    1       13.847   6.669   3.797  0.00  0.00    +0.188 C 
BRANCH  19  20
ATOM     20  O   LIG    1       15.084   7.386   3.809  0.00  0.00    -0.378 OA
BRANCH  20  21
ATOM     21  C   LIG    1       16.235   6.619   3.460  0.00  0.00    +0.160 C 
BRANCH  21  22
ATOM     22  C   LIG    1       16.141   6.046   2.047  0.00  0.00    +0.028 C 
BRANCH  22  24
ATOM     23  C   LIG    1       17.216   4.569   0.314  0.00  0.00    +0.004 C 
ATOM     24  C   LIG    1       17.348   5.186   1.700  0.00  0.00    -0.001 C 
ENDBRANCH  22  24
ENDBRANCH  21  22
ENDBRANCH  20  21
ENDBRANCH  19  20
ENDBRANCH  18  19
ENDBRANCH  17  18
ENDBRANCH  16  17
ENDBRANCH  15  16
ENDBRANCH  14  15
ENDBRANCH   1  14
TORSDOF 13
