REMARK  Name = *****
REMARK                            x       y       z     vdW  Elec       q    Type
REMARK                         _______ _______ _______ _____ _____    ______ ____
ROOT
ATOM      1  C   LIG    1        6.894  -4.433  -5.167  0.00  0.00    +0.239 A 
ATOM      2  C   LIG    1        7.409  -5.633  -5.618  0.00  0.00    +0.100 A 
ATOM      3  C   LIG    1        7.012  -6.791  -4.953  0.00  0.00    +0.087 A 
ATOM      4  C   LIG    1        7.583  -7.958  -5.540  0.00  0.00    +0.036 A 
ATOM      5  C   LIG    1        8.422  -7.661  -6.591  0.00  0.00    +0.048 A 
ATOM      6  N   LIG    1        6.164  -6.790  -3.892  0.00  0.00    -0.213 NA
ATOM      7  C   LIG    1        5.769  -5.588  -3.476  0.00  0.00    +0.223 A 
ATOM      8  S   LIG    1        8.477  -5.983  -6.912  0.00  0.00    -0.090 S 
ATOM      9  N   LIG    1        6.154  -4.445  -4.047  0.00  0.00    -0.178 NA
ENDROOT
BRANCH   7  10
ATOM     10  N   LIG    1        4.824  -5.530  -2.449  0.00  0.00    -0.283 N 
ATOM     11  H   LIG    1        4.608  -6.443  -2.080  0.00  0.00    +0.155 HD
BRANCH  10  12
ATOM     12  C   LIG    1        4.148  -4.424  -1.917  0.00  0.00    +0.034 A 
ATOM     13  C   LIG    1        4.649  -3.124  -1.987  0.00  0.00    +0.025 A 
ATOM     14  C   LIG    1        3.905  -2.009  -1.578  0.00  0.00    +0.025 A 
ATOM     15  C   LIG    1        2.623  -2.132  -1.039  0.00  0.00    +0.030 A 
ATOM     16  C   LIG    1        2.119  -3.446  -0.994  0.00  0.00    +0.025 A 
ATOM     17  C   LIG    1        2.857  -4.565  -1.421  0.00  0.00    +0.025 A 
BRANCH  15  18
ATOM     18  N   LIG    1        1.867  -1.013  -0.656  0.00  0.00    -0.328 N 
ATOM     19  C   LIG    1        0.675  -1.232   0.192  0.00  0.00    +0.120 C 
ATOM     20  C   LIG    1        1.111  -1.440   1.662  0.00  0.00    +0.103 C 
ATOM     21  N   LIG    1        1.896  -0.323   2.241  0.00  0.00    -0.302 NA
ATOM     22  C   LIG    1        1.037   0.802   2.596  0.00  0.00    +0.105 C 
ATOM     23  C   LIG    1        2.978   0.085   1.307  0.00  0.00    +0.103 C 
ATOM     24  C   LIG    1        2.582   0.208  -0.191  0.00  0.00    +0.120 C 
ENDBRANCH  15  18
ENDBRANCH  10  12
ENDBRANCH   7  10
BRANCH   1  25
ATOM     25  O   LIG    1        7.133  -3.225  -5.816  0.00  0.00    -0.437 OA
BRANCH  25  28
ATOM     26  C   LIG    1        3.927  -1.336  -5.356  0.00  0.00    +0.037 A 
ATOM     27  C   LIG    1        4.839  -2.397  -5.371  0.00  0.00    +0.069 A 
ATOM     28  C   LIG    1        6.162  -2.238  -5.801  0.00  0.00    +0.132 A 
ATOM     29  C   LIG    1        6.543  -0.996  -6.311  0.00  0.00    +0.046 A 
ATOM     30  C   LIG    1        5.622   0.057  -6.363  0.00  0.00    +0.005 A 
ATOM     31  C   LIG    1        4.321  -0.110  -5.874  0.00  0.00    +0.023 A 
BRANCH  26  33
ATOM     32  C   LIG    1        1.569  -0.775  -4.735  0.00  0.00    +0.240 C 
ATOM     33  N   LIG    1        2.665  -1.605  -4.787  0.00  0.00    -0.282 N 
ATOM     34  H   LIG    1        2.558  -2.518  -4.359  0.00  0.00    +0.155 HD
ATOM     35  O   LIG    1        1.455   0.351  -5.205  0.00  0.00    -0.271 OA
BRANCH  32  37
ATOM     36  C   LIG    1       -0.726  -1.589  -4.748  0.00  0.00    +0.013 C 
ATOM     37  C   LIG    1        0.425  -1.442  -4.082  0.00  0.00    +0.060 C 
ENDBRANCH  32  37
ENDBRANCH  26  33
ENDBRANCH  25  28
ENDBRANCH   1  25
TORSDOF 7
