REMARK  Name = *****
REMARK                            x       y       z     vdW  Elec       q    Type
REMARK                         _______ _______ _______ _____ _____    ______ ____
ROOT
ATOM      1  C   LIG    1        2.902  -0.791   1.433  0.00  0.00    +0.082 A 
ATOM      2  C   LIG    1        2.882  -2.137   1.025  0.00  0.00    +0.133 A 
ATOM      3  C   LIG    1        3.692  -3.055   1.717  0.00  0.00    +0.050 A 
ATOM      4  C   LIG    1        4.469  -2.661   2.810  0.00  0.00    +0.049 A 
ATOM      5  C   LIG    1        4.454  -1.342   3.243  0.00  0.00    +0.122 A 
ATOM      6  C   LIG    1        3.672  -0.425   2.559  0.00  0.00    +0.062 A 
ENDROOT
BRANCH   1   8
ATOM      7  O   LIG    1        2.294   1.489   1.270  0.00  0.00    -0.270 OA
ATOM      8  C   LIG    1        2.193   0.364   0.790  0.00  0.00    +0.248 C 
ATOM      9  N   LIG    1        1.462   0.136  -0.350  0.00  0.00    -0.310 N 
ATOM     10  H   LIG    1        1.577  -0.750  -0.827  0.00  0.00    +0.149 HD
BRANCH   9  11
ATOM     11  C   LIG    1        0.921   1.250  -1.112  0.00  0.00    +0.123 C 
BRANCH  11  12
ATOM     12  C   LIG    1        1.950   1.864  -2.096  0.00  0.00    +0.071 C 
ATOM     13  N   LIG    1        2.580   0.858  -2.984  0.00  0.00    -0.312 NA
ATOM     14  H   LIG    1        3.345   1.314  -3.483  0.00  0.00    +0.122 HD
ATOM     15  C   LIG    1        1.640   0.312  -3.964  0.00  0.00    +0.081 C 
ATOM     16  C   LIG    1        1.002   1.401  -4.825  0.00  0.00    +0.015 C 
ATOM     17  C   LIG    1        0.348   2.484  -3.973  0.00  0.00    +0.003 C 
ATOM     18  C   LIG    1        1.330   3.003  -2.925  0.00  0.00    +0.020 C 
ENDBRANCH  11  12
ENDBRANCH   9  11
ENDBRANCH   1   8
BRANCH   2  19
ATOM     19  O   LIG    1        2.096  -2.510  -0.042  0.00  0.00    -0.482 OA
BRANCH  19  20
ATOM     20  C   LIG    1        1.733  -3.905  -0.091  0.00  0.00    +0.342 C 
BRANCH  20  21
ATOM     21  C   LIG    1        0.803  -4.245  -1.252  0.00  0.00    +0.424 C 
ATOM     22  F   LIG    1       -0.396  -4.680  -0.802  0.00  0.00    -0.167 F 
ATOM     23  F   LIG    1        1.332  -5.242  -2.002  0.00  0.00    -0.167 F 
ATOM     24  F   LIG    1        0.580  -3.195  -2.073  0.00  0.00    -0.167 F 
ENDBRANCH  20  21
ENDBRANCH  19  20
ENDBRANCH   2  19
BRANCH   5  25
ATOM     25  O   LIG    1        5.250  -1.072   4.320  0.00  0.00    -0.483 OA
BRANCH  25  26
ATOM     26  C   LIG    1        5.232   0.260   4.852  0.00  0.00    +0.342 C 
BRANCH  26  27
ATOM     27  C   LIG    1        4.041   0.548   5.763  0.00  0.00    +0.424 C 
ATOM     28  F   LIG    1        3.133   1.342   5.154  0.00  0.00    -0.167 F 
ATOM     29  F   LIG    1        4.448   1.194   6.883  0.00  0.00    -0.167 F 
ATOM     30  F   LIG    1        3.404  -0.576   6.159  0.00  0.00    -0.167 F 
ENDBRANCH  26  27
ENDBRANCH  25  26
ENDBRANCH   5  25
TORSDOF 9
