REMARK  Name = *****
REMARK                            x       y       z     vdW  Elec       q    Type
REMARK                         _______ _______ _______ _____ _____    ______ ____
ROOT
ATOM      1  C   LIG    1        2.800  -1.217  -0.553  0.00  0.00    +0.143 A 
ATOM      2  C   LIG    1        1.953  -2.339  -0.399  0.00  0.00    +0.076 A 
ATOM      3  C   LIG    1        2.422  -3.591  -0.767  0.00  0.00    +0.029 A 
ATOM      4  C   LIG    1        3.706  -3.765  -1.266  0.00  0.00    +0.025 A 
ATOM      5  C   LIG    1        4.595  -2.689  -1.434  0.00  0.00    +0.033 A 
ATOM      6  C   LIG    1        4.069  -1.420  -1.123  0.00  0.00    +0.070 A 
ENDROOT
BRANCH   5   7
ATOM      7  N   LIG    1        5.910  -2.841  -1.929  0.00  0.00    -0.330 N 
ATOM      8  C   LIG    1        6.423  -4.221  -2.091  0.00  0.00    +0.106 C 
ATOM      9  C   LIG    1        7.782  -4.240  -2.805  0.00  0.00    +0.037 C 
ATOM     10  C   LIG    1        8.861  -3.308  -2.189  0.00  0.00    +0.060 C 
ATOM     11  C   LIG    1        8.181  -1.925  -2.098  0.00  0.00    +0.037 C 
ATOM     12  C   LIG    1        6.904  -1.974  -1.265  0.00  0.00    +0.106 C 
BRANCH  10  13
ATOM     13  N   LIG    1        9.447  -3.746  -0.888  0.00  0.00    -0.297 NA
ATOM     14  C   LIG    1       10.015  -5.118  -0.886  0.00  0.00    +0.100 C 
ATOM     15  C   LIG    1       11.415  -5.290  -1.539  0.00  0.00    +0.099 C 
ATOM     16  N   LIG    1       12.456  -4.337  -1.105  0.00  0.00    -0.303 NA
ATOM     17  C   LIG    1       13.036  -4.678   0.195  0.00  0.00    +0.105 C 
ATOM     18  C   LIG    1       11.893  -2.976  -1.106  0.00  0.00    +0.099 C 
ATOM     19  C   LIG    1       10.525  -2.848  -0.387  0.00  0.00    +0.100 C 
ENDBRANCH  10  13
ENDBRANCH   5   7
BRANCH   1  21
ATOM     20  C   LIG    1        3.302   0.938   0.292  0.00  0.00    +0.277 C 
ATOM     21  O   LIG    1        2.311  -0.002  -0.172  0.00  0.00    -0.493 OA
ENDBRANCH   1  21
BRANCH   2  22
ATOM     22  N   LIG    1        0.670  -2.171   0.156  0.00  0.00    -0.281 N 
ATOM     23  H   LIG    1        0.252  -1.266   0.071  0.00  0.00    +0.155 HD
BRANCH  22  24
ATOM     24  C   LIG    1       -0.101  -3.028   0.935  0.00  0.00    +0.221 A 
ATOM     25  N   LIG    1        0.459  -4.070   1.569  0.00  0.00    -0.198 NA
ATOM     26  C   LIG    1       -0.266  -4.780   2.469  0.00  0.00    +0.146 A 
ATOM     27  C   LIG    1       -1.614  -4.470   2.647  0.00  0.00    +0.099 A 
ATOM     28 CL   LIG    1       -2.623  -5.273   3.813  0.00  0.00    -0.078 Cl
ATOM     29  C   LIG    1       -2.115  -3.424   1.906  0.00  0.00    +0.138 A 
ATOM     30  N   LIG    1       -1.381  -2.694   1.046  0.00  0.00    -0.221 NA
BRANCH  26  31
ATOM     31  N   LIG    1        0.308  -5.829   3.256  0.00  0.00    -0.298 N 
ATOM     32  H   LIG    1       -0.388  -6.293   3.848  0.00  0.00    +0.154 HD
BRANCH  31  33
ATOM     33  C   LIG    1        1.633  -6.247   3.464  0.00  0.00    +0.043 A 
ATOM     34  C   LIG    1        1.943  -7.456   4.127  0.00  0.00    +0.033 A 
ATOM     35  C   LIG    1        3.289  -7.822   4.334  0.00  0.00    +0.013 A 
ATOM     36  C   LIG    1        4.339  -7.064   3.827  0.00  0.00    +0.001 A 
ATOM     37  C   LIG    1        4.051  -5.913   3.127  0.00  0.00    +0.002 A 
ATOM     38  C   LIG    1        2.724  -5.497   2.957  0.00  0.00    +0.024 A 
BRANCH  34  39
ATOM     39  P   LIG    1        0.724  -8.631   4.690  0.00  0.00    +0.112 P 
ATOM     40  O   LIG    1       -0.596  -8.632   3.963  0.00  0.00    -0.317 OA
ATOM     41  C   LIG    1        0.421  -8.353   6.442  0.00  0.00    +0.085 C 
ATOM     42  C   LIG    1        1.459 -10.288   4.630  0.00  0.00    +0.085 C 
ENDBRANCH  34  39
ENDBRANCH  31  33
ENDBRANCH  26  31
ENDBRANCH  22  24
ENDBRANCH   2  22
TORSDOF 8
