REMARK  Name = *****
REMARK                            x       y       z     vdW  Elec       q    Type
REMARK                         _______ _______ _______ _____ _____    ______ ____
ROOT
ATOM      1  C   LIG    1        2.889  -0.542  -1.441  0.00  0.00    -0.031 A 
ATOM      2  C   LIG    1        2.917  -1.920  -1.693  0.00  0.00    +0.043 A 
ATOM      3  C   LIG    1        3.171  -2.415  -2.979  0.00  0.00    +0.131 A 
ATOM      4  F   LIG    1        3.195  -3.750  -3.122  0.00  0.00    -0.205 F 
ATOM      5  C   LIG    1        3.399  -1.572  -4.078  0.00  0.00    +0.017 A 
ATOM      6  C   LIG    1        3.382  -0.189  -3.806  0.00  0.00    +0.012 A 
ATOM      7  C   LIG    1        3.135   0.318  -2.517  0.00  0.00    +0.005 A 
ENDROOT
BRANCH   5   8
ATOM      8  C   LIG    1        3.632  -2.088  -5.453  0.00  0.00    -0.015 A 
ATOM      9  C   LIG    1        2.992  -3.249  -5.928  0.00  0.00    +0.008 A 
ATOM     10  C   LIG    1        3.204  -3.730  -7.227  0.00  0.00    +0.001 A 
ATOM     11  C   LIG    1        4.054  -3.053  -8.093  0.00  0.00    +0.000 A 
ATOM     12  C   LIG    1        4.697  -1.899  -7.657  0.00  0.00    +0.001 A 
ATOM     13  C   LIG    1        4.492  -1.429  -6.354  0.00  0.00    +0.008 A 
ENDBRANCH   5   8
BRANCH   1  15
ATOM     14  C   LIG    1        3.701   0.804   0.564  0.00  0.00    +0.024 C 
ATOM     15  C   LIG    1        2.567  -0.033  -0.041  0.00  0.00    +0.124 C 
BRANCH  15  16
ATOM     16  C   LIG    1        1.254   0.743   0.031  0.00  0.00    +0.312 C 
ATOM     17  O   LIG    1        1.124   1.841   0.563  0.00  0.00    -0.250 OA
BRANCH  16  18
ATOM     18  O   LIG    1        0.191   0.088  -0.488  0.00  0.00    -0.480 OA
ATOM     19  H   LIG    1        0.409  -0.778  -0.883  0.00  0.00    +0.295 HD
ENDBRANCH  16  18
ENDBRANCH  15  16
ENDBRANCH   1  15
TORSDOF 4
