REMARK  Name = *****
REMARK                            x       y       z     vdW  Elec       q    Type
REMARK                         _______ _______ _______ _____ _____    ______ ____
ROOT
ATOM      1  C   LIG    1        2.400  -0.040   0.154  0.00  0.00    +0.139 C 
ATOM      2  C   LIG    1        2.963  -1.434  -0.225  0.00  0.00    +0.267 C 
ATOM      3  O   LIG    1        2.642  -1.805  -1.561  0.00  0.00    -0.342 OA
ATOM      4  C   LIG    1        3.117  -0.889  -2.566  0.00  0.00    +0.178 C 
ATOM      5  C   LIG    1        2.651   0.555  -2.304  0.00  0.00    +0.175 C 
ATOM      6  C   LIG    1        2.909   1.007  -0.858  0.00  0.00    +0.167 C 
ENDROOT
BRANCH   1   7
ATOM      7  N   LIG    1        0.909  -0.055   0.214  0.00  0.00    -0.321 NA
ATOM      8  H   LIG    1        0.642  -0.700   0.963  0.00  0.00    +0.119 HD
ATOM      9  H   LIG    1        0.588   0.861   0.538  0.00  0.00    +0.119 HD
ENDBRANCH   1   7
BRANCH   2  10
ATOM     10  O   LIG    1        2.387  -2.426   0.614  0.00  0.00    -0.366 OA
ATOM     11  H   LIG    1        1.497  -2.534   0.234  0.00  0.00    +0.212 HD
ENDBRANCH   2  10
BRANCH   5  12
ATOM     12  O   LIG    1        1.244   0.649  -2.575  0.00  0.00    -0.387 OA
ATOM     13  H   LIG    1        0.790   0.125  -1.877  0.00  0.00    +0.210 HD
ENDBRANCH   5  12
BRANCH   6  14
ATOM     14  O   LIG    1        4.301   1.244  -0.641  0.00  0.00    -0.387 OA
ATOM     15  H   LIG    1        4.524   2.088  -1.077  0.00  0.00    +0.210 HD
ENDBRANCH   6  14
BRANCH   4  16
ATOM     16  C   LIG    1        4.636  -1.028  -2.745  0.00  0.00    +0.190 C 
BRANCH  16  17
ATOM     17  O   LIG    1        4.956  -2.374  -3.103  0.00  0.00    -0.392 OA
ATOM     18  H   LIG    1        4.402  -2.949  -2.539  0.00  0.00    +0.209 HD
ENDBRANCH  16  17
ENDBRANCH   4  16
TORSDOF 6
