REMARK  Name = *****
REMARK                            x       y       z     vdW  Elec       q    Type
REMARK                         _______ _______ _______ _____ _____    ______ ____
ROOT
ATOM      1  C   ALA A  1        1.294  -2.674  -1.536  0.00  0.00    +0.233 C 
ATOM      2  N   UNK A  2        1.391  -3.223  -0.274  0.00  0.00    -0.283 N 
ATOM      3  C   UNK A  2        0.206  -3.182   0.590  0.00  0.00    +0.080 C 
ATOM      4  C   UNK A  2        0.783  -2.977   1.998  0.00  0.00    +0.012 C 
ATOM      5  C   UNK A  2       -0.143  -3.376   3.146  0.00  0.00    +0.005 C 
ATOM      6  C   UNK A  2       -0.949  -4.643   2.878  0.00  0.00    +0.000 C 
ATOM      7  C   UNK A  2       -1.674  -4.561   1.542  0.00  0.00    +0.002 C 
ATOM      8  C   UNK A  2        2.111  -3.735   1.940  0.00  0.00    +0.039 C 
ATOM      9  C   UNK A  2       -0.673  -4.414   0.406  0.00  0.00    +0.023 C 
ATOM     10  C   UNK A  2        2.606  -3.512   0.501  0.00  0.00    +0.185 C 
ATOM     11  O   ALA A  1        0.311  -2.956  -2.226  0.00  0.00    -0.274 OA
ENDROOT
BRANCH   1  12
ATOM     12  CA  ALA A  1        2.344  -1.664  -2.055  0.00  0.00    +0.138 C 
ATOM     13  CB  ALA A  1        3.697  -2.275  -2.415  0.00  0.00    +0.034 C 
BRANCH  12  14
ATOM     14  N   ALA A  1        2.502  -0.511  -1.119  0.00  0.00    -0.294 NA
ATOM     15  H   ALA A  1        3.068   0.199  -1.591  0.00  0.00    +0.123 HD
BRANCH  14  16
ATOM     16  C   UNK A  0        1.201   0.122  -0.739  0.00  0.00    +0.164 C 
BRANCH  16  17
ATOM     17  C   UNK A  0        0.440   0.639  -1.961  0.00  0.00    +0.324 C 
ATOM     18  O   UNK A  0       -0.375  -0.028  -2.607  0.00  0.00    -0.249 OA
BRANCH  17  19
ATOM     19  O   UNK A  0        0.821   1.903  -2.260  0.00  0.00    -0.464 OA
BRANCH  19  20
ATOM     20  C   UNK A  0        0.110   2.513  -3.338  0.00  0.00    +0.229 C 
ATOM     21  C   UNK A  0        0.782   2.146  -4.643  0.00  0.00    +0.048 C 
ENDBRANCH  19  20
ENDBRANCH  17  19
ENDBRANCH  16  17
BRANCH  16  22
ATOM     22  C   UNK A  0        1.400   1.240   0.303  0.00  0.00    +0.030 C 
BRANCH  22  24
ATOM     23  C   UNK A  0        0.252   2.927   1.804  0.00  0.00    +0.004 C 
ATOM     24  C   UNK A  0        0.056   1.806   0.799  0.00  0.00    -0.001 C 
ENDBRANCH  22  24
ENDBRANCH  16  22
ENDBRANCH  14  16
ENDBRANCH  12  14
ENDBRANCH   1  12
BRANCH  10  25
ATOM     25  C   UNK A  2        3.316  -4.782  -0.003  0.00  0.00    +0.326 C 
ATOM     26  O   UNK A  2        4.306  -5.261   0.530  0.00  0.00    -0.249 OA
BRANCH  25  27
ATOM     27  O   UNK A  2        2.768  -5.341  -1.111  0.00  0.00    -0.479 OA
ATOM     28  H   UNK A  2        1.938  -4.897  -1.385  0.00  0.00    +0.295 HD
ENDBRANCH  25  27
ENDBRANCH  10  25
TORSDOF 10
