REMARK  Name = *****
REMARK                            x       y       z     vdW  Elec       q    Type
REMARK                         _______ _______ _______ _____ _____    ______ ____
ROOT
ATOM      1  N   LIG    1        1.710  -3.103   2.863  0.00  0.00    -0.302 NA
ATOM      2  C   LIG    1        0.673  -2.423   3.662  0.00  0.00    +0.087 C 
ATOM      3  C   LIG    1       -0.734  -2.508   3.065  0.00  0.00    +0.055 C 
ATOM      4  C   LIG    1       -1.176  -3.962   2.793  0.00  0.00    +0.093 C 
ATOM      5  C   LIG    1       -0.060  -4.665   1.992  0.00  0.00    +0.055 C 
ATOM      6  C   LIG    1        1.315  -4.500   2.643  0.00  0.00    +0.087 C 
ENDROOT
BRANCH   4   7
ATOM      7  C   LIG    1       -1.676  -4.694   4.048  0.00  0.00    -0.016 A 
ATOM      8  C   LIG    1       -2.721  -4.134   4.814  0.00  0.00    +0.007 A 
ATOM      9  C   LIG    1       -3.244  -4.788   5.936  0.00  0.00    +0.015 A 
ATOM     10  C   LIG    1       -2.739  -6.028   6.308  0.00  0.00    +0.018 A 
ATOM     11 BR   LIG    1       -3.456  -6.933   7.803  0.00  0.00    -0.050 Br
ATOM     12  C   LIG    1       -1.718  -6.614   5.569  0.00  0.00    +0.015 A 
ATOM     13  C   LIG    1       -1.197  -5.953   4.449  0.00  0.00    +0.007 A 
ENDBRANCH   4   7
BRANCH   4  14
ATOM     14  O   LIG    1       -2.327  -3.882   1.930  0.00  0.00    -0.384 OA
ATOM     15  H   LIG    1       -2.505  -4.782   1.607  0.00  0.00    +0.211 HD
ENDBRANCH   4  14
BRANCH   1  16
ATOM     16  C   LIG    1        2.032  -2.359   1.628  0.00  0.00    +0.085 C 
BRANCH  16  17
ATOM     17  C   LIG    1        3.204  -2.969   0.833  0.00  0.00    +0.023 C 
BRANCH  17  18
ATOM     18  C   LIG    1        3.554  -2.195  -0.444  0.00  0.00    +0.081 C 
BRANCH  18  20
ATOM     19  O   LIG    1        1.449  -2.941  -1.359  0.00  0.00    -0.292 OA
ATOM     20  C   LIG    1        2.484  -2.304  -1.524  0.00  0.00    +0.163 C 
BRANCH  20  21
ATOM     21  C   LIG    1        2.716  -1.634  -2.843  0.00  0.00    +0.018 A 
ATOM     22  C   LIG    1        1.726  -1.762  -3.833  0.00  0.00    +0.014 A 
ATOM     23  C   LIG    1        1.908  -1.193  -5.095  0.00  0.00    +0.039 A 
ATOM     24  C   LIG    1        3.078  -0.496  -5.367  0.00  0.00    +0.123 A 
ATOM     25  F   LIG    1        3.262   0.036  -6.582  0.00  0.00    -0.205 F 
ATOM     26  C   LIG    1        4.062  -0.347  -4.397  0.00  0.00    +0.039 A 
ATOM     27  C   LIG    1        3.883  -0.913  -3.130  0.00  0.00    +0.014 A 
ENDBRANCH  20  21
ENDBRANCH  18  20
ENDBRANCH  17  18
ENDBRANCH  16  17
ENDBRANCH   1  16
TORSDOF 7
