REMARK  Name = *****
REMARK                            x       y       z     vdW  Elec       q    Type
REMARK                         _______ _______ _______ _____ _____    ______ ____
ROOT
ATOM      1  C   LIG    1        4.273  -1.194  -0.441  0.00  0.00    +0.065 C 
ATOM      2  C   LIG    1        4.976   0.164  -0.355  0.00  0.00    +0.096 C 
ATOM      3  C   LIG    1        6.453   0.057   0.069  0.00  0.00    +0.065 C 
ATOM      4  C   LIG    1        6.964  -1.109   0.516  0.00  0.00    +0.016 C 
ATOM      5  C   LIG    1        8.402  -1.333   0.914  0.00  0.00    +0.061 C 
ATOM      6  N   LIG    1        6.143  -2.226   0.591  0.00  0.00    -0.321 N 
ATOM      7  H   LIG    1        6.576  -3.098   0.888  0.00  0.00    +0.152 HD
ATOM      8  C   LIG    1        4.869  -2.308   0.049  0.00  0.00    +0.016 C 
ATOM      9  C   LIG    1        4.271  -3.691   0.022  0.00  0.00    +0.061 C 
ENDROOT
BRANCH   2  10
ATOM     10  C   LIG    1        4.152   1.137   0.515  0.00  0.00    -0.029 A 
ATOM     11  C   LIG    1        3.943   0.917   1.887  0.00  0.00    +0.088 A 
ATOM     12  C   LIG    1        3.163   1.828   2.616  0.00  0.00    +0.273 A 
ATOM     13  C   LIG    1        2.589   2.958   2.029  0.00  0.00    +0.084 A 
ATOM     14  C   LIG    1        2.789   3.176   0.671  0.00  0.00    +0.007 A 
ATOM     15  C   LIG    1        3.553   2.272  -0.077  0.00  0.00    +0.005 A 
BRANCH  12  16
ATOM     16  N   LIG    1        2.921   1.600   4.028  0.00  0.00    +0.080 N 
ATOM     17  O   LIG    1        2.334   0.556   4.339  0.00  0.00    -0.576 OA
ATOM     18  O   LIG    1        3.298   2.480   4.814  0.00  0.00    +0.041 OA
ENDBRANCH  12  16
ENDBRANCH   2  10
BRANCH   1  19
ATOM     19  C   LIG    1        2.953  -1.229  -1.135  0.00  0.00    +0.337 C 
ATOM     20  O   LIG    1        2.081  -2.068  -0.961  0.00  0.00    -0.245 OA
BRANCH  19  22
ATOM     21  C   LIG    1        1.939  -0.301  -3.091  0.00  0.00    +0.280 C 
ATOM     22  O   LIG    1        2.923  -0.233  -2.056  0.00  0.00    -0.465 OA
ENDBRANCH  19  22
ENDBRANCH   1  19
BRANCH   3  23
ATOM     23  C   LIG    1        7.215   1.330  -0.099  0.00  0.00    +0.338 C 
ATOM     24  O   LIG    1        6.703   2.312  -0.580  0.00  0.00    -0.245 OA
BRANCH  23  25
ATOM     25  O   LIG    1        8.479   1.285   0.387  0.00  0.00    -0.457 OA
BRANCH  25  26
ATOM     26  C   LIG    1        9.086   2.573   0.626  0.00  0.00    +0.191 C 
ATOM     27  C   LIG    1       10.264   2.430   1.617  0.00  0.00    +0.129 C 
ATOM     28  N   LIG    1       11.450   1.758   1.054  0.00  0.00    -0.295 NA
ATOM     29  C   LIG    1       11.909   2.407  -0.189  0.00  0.00    +0.085 C 
ATOM     30  C   LIG    1       10.787   2.519  -1.228  0.00  0.00    +0.019 C 
ATOM     31  C   LIG    1        9.568   3.235  -0.660  0.00  0.00    +0.047 C 
BRANCH  28  32
ATOM     32  C   LIG    1       12.558   1.617   2.024  0.00  0.00    +0.119 C 
BRANCH  32  33
ATOM     33  C   LIG    1       12.171   1.016   3.370  0.00  0.00    -0.033 A 
ATOM     34  C   LIG    1       11.833   1.819   4.475  0.00  0.00    +0.005 A 
ATOM     35  C   LIG    1       11.490   1.241   5.704  0.00  0.00    +0.000 A 
ATOM     36  C   LIG    1       11.463  -0.145   5.841  0.00  0.00    +0.000 A 
ATOM     37  C   LIG    1       11.766  -0.952   4.747  0.00  0.00    +0.000 A 
ATOM     38  C   LIG    1       12.116  -0.377   3.521  0.00  0.00    +0.005 A 
ENDBRANCH  32  33
ENDBRANCH  28  32
ENDBRANCH  25  26
ENDBRANCH  23  25
ENDBRANCH   3  23
TORSDOF 9
