REMARK  Name = *****
REMARK                            x       y       z     vdW  Elec       q    Type
REMARK                         _______ _______ _______ _____ _____    ______ ____
ROOT
ATOM      1  C   LIG    1        2.778  -2.173  -1.683  0.00  0.00    +0.095 C 
ENDROOT
BRANCH   1   2
ATOM      2  C   LIG    1        3.590  -2.027  -3.034  0.00  0.00    +0.025 C 
ATOM      3  C   LIG    1        2.730  -1.975  -4.324  0.00  0.00    +0.006 C 
ATOM      4  C   LIG    1        2.152  -0.610  -4.681  0.00  0.00    +0.000 C 
ATOM      5  C   LIG    1        3.208   0.485  -4.670  0.00  0.00    +0.000 C 
ATOM      6  C   LIG    1        4.011   0.495  -3.375  0.00  0.00    +0.000 C 
ATOM      7  C   LIG    1        4.614  -0.873  -3.083  0.00  0.00    +0.006 C 
ENDBRANCH   1   2
BRANCH   1   8
ATOM      8  C   LIG    1        1.801  -3.375  -1.671  0.00  0.00    -0.016 A 
ATOM      9  C   LIG    1        0.620  -3.372  -0.910  0.00  0.00    +0.006 A 
ATOM     10  C   LIG    1       -0.228  -4.488  -0.894  0.00  0.00    +0.000 A 
ATOM     11  C   LIG    1        0.079  -5.627  -1.631  0.00  0.00    +0.000 A 
ATOM     12  C   LIG    1        1.239  -5.657  -2.395  0.00  0.00    +0.000 A 
ATOM     13  C   LIG    1        2.087  -4.549  -2.404  0.00  0.00    +0.006 A 
ENDBRANCH   1   8
BRANCH   1  14
ATOM     14  O   LIG    1        2.023  -0.969  -1.479  0.00  0.00    -0.384 OA
ATOM     15  H   LIG    1        1.267  -0.987  -2.087  0.00  0.00    +0.211 HD
ENDBRANCH   1  14
BRANCH   1  16
ATOM     16  C   LIG    1        3.711  -2.260  -0.437  0.00  0.00    +0.055 C 
BRANCH  16  17
ATOM     17  C   LIG    1        4.677  -3.458  -0.395  0.00  0.00    +0.087 C 
BRANCH  17  18
ATOM     18  N   LIG    1        5.570  -3.421   0.773  0.00  0.00    -0.302 NA
ATOM     19  C   LIG    1        4.859  -3.458   2.052  0.00  0.00    +0.084 C 
ATOM     20  C   LIG    1        5.972  -3.770   3.032  0.00  0.00    +0.017 C 
ATOM     21  C   LIG    1        6.873  -4.729   2.273  0.00  0.00    +0.017 C 
ATOM     22  C   LIG    1        6.493  -4.562   0.804  0.00  0.00    +0.084 C 
ENDBRANCH  17  18
ENDBRANCH  16  17
ENDBRANCH   1  16
TORSDOF 6
