REMARK  Name = *****
REMARK                            x       y       z     vdW  Elec       q    Type
REMARK                         _______ _______ _______ _____ _____    ______ ____
ROOT
ATOM      1  O   LIG    1        1.243  -5.749  -1.440  0.00  0.00    -0.312 OA
ENDROOT
BRANCH   1   2
ATOM      2  C   LIG    1        1.412  -4.618  -2.307  0.00  0.00    +0.285 C 
ATOM      3  C   LIG    1        2.196  -3.564  -1.494  0.00  0.00    +0.201 C 
ATOM      4  C   LIG    1        2.311  -2.240  -2.263  0.00  0.00    +0.179 C 
ATOM      5  C   LIG    1        0.934  -1.779  -2.770  0.00  0.00    +0.177 C 
ATOM      6  C   LIG    1        0.134  -2.902  -3.450  0.00  0.00    +0.178 C 
ATOM      7  O   LIG    1        0.135  -4.097  -2.660  0.00  0.00    -0.340 OA
BRANCH   3   8
ATOM      8  O   LIG    1        1.483  -3.322  -0.256  0.00  0.00    -0.384 OA
ATOM      9  H   LIG    1        1.219  -4.216   0.051  0.00  0.00    +0.210 HD
ENDBRANCH   3   8
BRANCH   4  10
ATOM     10  O   LIG    1        3.272  -2.327  -3.317  0.00  0.00    -0.386 OA
ATOM     11  H   LIG    1        2.900  -2.866  -4.045  0.00  0.00    +0.210 HD
ENDBRANCH   4  10
BRANCH   5  12
ATOM     12  O   LIG    1        0.151  -1.310  -1.653  0.00  0.00    -0.387 OA
ATOM     13  H   LIG    1        0.283  -1.954  -0.924  0.00  0.00    +0.210 HD
ENDBRANCH   5  12
BRANCH   6  14
ATOM     14  C   LIG    1        0.498  -3.174  -4.920  0.00  0.00    +0.190 C 
BRANCH  14  15
ATOM     15  O   LIG    1        1.825  -3.662  -5.080  0.00  0.00    -0.392 OA
ATOM     16  H   LIG    1        1.855  -4.115  -5.950  0.00  0.00    +0.209 HD
ENDBRANCH  14  15
ENDBRANCH   6  14
ENDBRANCH   1   2
BRANCH   1  20
ATOM     17  C   LIG    1        1.170  -9.091  -1.377  0.00  0.00    +0.178 C 
ATOM     18  C   LIG    1        1.167  -9.036  -2.900  0.00  0.00    +0.179 C 
ATOM     19  C   LIG    1        1.217  -7.543  -3.205  0.00  0.00    +0.207 C 
ATOM     20  C   LIG    1        0.542  -6.885  -1.971  0.00  0.00    +0.225 C 
ATOM     21  O   LIG    1        0.547  -7.881  -0.910  0.00  0.00    -0.336 OA
BRANCH  18  22
ATOM     22  O   LIG    1       -0.023  -9.649  -3.413  0.00  0.00    -0.386 OA
ATOM     23  H   LIG    1       -0.781  -9.330  -2.874  0.00  0.00    +0.210 HD
ENDBRANCH  18  22
BRANCH  19  24
ATOM     24  O   LIG    1        2.590  -7.144  -3.364  0.00  0.00    -0.384 OA
ATOM     25  H   LIG    1        3.006  -7.254  -2.479  0.00  0.00    +0.210 HD
ENDBRANCH  19  24
BRANCH  17  26
ATOM     26  C   LIG    1        2.571  -9.215  -0.759  0.00  0.00    +0.190 C 
BRANCH  26  27
ATOM     27  O   LIG    1        3.425  -8.147  -1.155  0.00  0.00    -0.392 OA
ATOM     28  H   LIG    1        4.276  -8.280  -0.664  0.00  0.00    +0.209 HD
ENDBRANCH  26  27
ENDBRANCH  17  26
BRANCH  20  29
ATOM     29  C   LIG    1       -0.957  -6.567  -2.246  0.00  0.00    +0.223 C 
BRANCH  29  30
ATOM     30  O   LIG    1       -1.731  -7.714  -2.615  0.00  0.00    -0.390 OA
ATOM     31  H   LIG    1       -2.555  -7.355  -2.995  0.00  0.00    +0.210 HD
ENDBRANCH  29  30
ENDBRANCH  20  29
ENDBRANCH   1  20
TORSDOF 13
