REMARK  Name = *****
REMARK                            x       y       z     vdW  Elec       q    Type
REMARK                         _______ _______ _______ _____ _____    ______ ____
ROOT
ATOM      1  N   LIG    1       -4.581   2.720  -1.022  0.00  0.00    -0.297 NA
ATOM      2  C   LIG    1       -5.717   2.539  -0.121  0.00  0.00    +0.100 C 
ATOM      3  C   LIG    1       -5.909   3.615   0.982  0.00  0.00    +0.100 C 
ATOM      4  N   LIG    1       -4.838   4.601   1.158  0.00  0.00    -0.299 NA
ATOM      5  C   LIG    1       -4.510   5.167  -0.156  0.00  0.00    +0.100 C 
ATOM      6  C   LIG    1       -4.428   4.146  -1.326  0.00  0.00    +0.100 C 
ENDROOT
BRANCH   1   7
ATOM      7  C   LIG    1       -3.340   2.023  -0.619  0.00  0.00    +0.120 C 
BRANCH   7   8
ATOM      8  C   LIG    1       -2.487   2.448   0.628  0.00  0.00    +0.162 C 
BRANCH   8   9
ATOM      9  C   LIG    1       -3.160   2.283   1.981  0.00  0.00    -0.018 A 
ATOM     10  C   LIG    1       -2.898   3.179   3.024  0.00  0.00    +0.006 A 
ATOM     11  C   LIG    1       -3.531   3.016   4.265  0.00  0.00    +0.000 A 
ATOM     12  C   LIG    1       -4.551   2.078   4.420  0.00  0.00    +0.000 A 
ATOM     13  C   LIG    1       -4.864   1.227   3.372  0.00  0.00    +0.000 A 
ATOM     14  C   LIG    1       -4.080   1.247   2.221  0.00  0.00    +0.006 A 
ENDBRANCH   8   9
BRANCH   8  15
ATOM     15  O   LIG    1       -1.344   1.602   0.817  0.00  0.00    -0.371 OA
BRANCH  15  17
ATOM     16  C   LIG    1        0.777   0.733   0.320  0.00  0.00    +0.034 C 
ATOM     17  C   LIG    1       -0.348   1.617  -0.187  0.00  0.00    +0.157 C 
ENDBRANCH  15  17
ENDBRANCH   8  15
ENDBRANCH   7   8
ENDBRANCH   1   7
BRANCH   4  18
ATOM     18  C   LIG    1       -5.076   5.682   2.152  0.00  0.00    +0.095 C 
BRANCH  18  19
ATOM     19  C   LIG    1       -5.364   5.345   3.630  0.00  0.00    +0.071 C 
ATOM     20  C   LIG    1       -6.429   4.271   3.876  0.00  0.00    +0.017 C 
BRANCH  19  21
ATOM     21  C   LIG    1       -5.530   6.542   4.557  0.00  0.00    +0.167 C 
ATOM     22  O   LIG    1       -4.559   7.386   4.713  0.00  0.00    -0.292 OA
BRANCH  21  23
ATOM     23  C   LIG    1       -6.697   6.672   5.438  0.00  0.00    +0.018 A 
ATOM     24  C   LIG    1       -6.591   7.141   6.746  0.00  0.00    +0.011 A 
ATOM     25  C   LIG    1       -7.719   7.137   7.567  0.00  0.00    +0.001 A 
ATOM     26  C   LIG    1       -8.931   6.598   7.120  0.00  0.00    +0.000 A 
ATOM     27  C   LIG    1       -9.036   6.104   5.832  0.00  0.00    +0.001 A 
ATOM     28  C   LIG    1       -7.956   6.238   4.980  0.00  0.00    +0.011 A 
ENDBRANCH  21  23
ENDBRANCH  19  21
ENDBRANCH  18  19
ENDBRANCH   4  18
TORSDOF 9
