REMARK  Name = *****
REMARK                            x       y       z     vdW  Elec       q    Type
REMARK                         _______ _______ _______ _____ _____    ______ ____
ROOT
ATOM      1  C   LIG    1        2.754  -0.462   1.276  0.00  0.00    -0.003 A 
ATOM      2  C   LIG    1        2.736  -1.857   1.454  0.00  0.00    +0.124 A 
ATOM      3  C   LIG    1        3.127  -2.464   2.663  0.00  0.00    -0.003 A 
ATOM      4  C   LIG    1        3.504  -1.624   3.725  0.00  0.00    +0.007 A 
ATOM      5  C   LIG    1        3.508  -0.238   3.578  0.00  0.00    +0.001 A 
ATOM      6  C   LIG    1        3.145   0.337   2.361  0.00  0.00    +0.007 A 
ENDROOT
BRANCH   1   8
ATOM      7  C   LIG    1        1.141   1.101   0.119  0.00  0.00    +0.012 C 
ATOM      8  C   LIG    1        2.349   0.174  -0.047  0.00  0.00    +0.016 C 
ATOM      9  C   LIG    1        3.522   0.913  -0.695  0.00  0.00    +0.012 C 
ENDBRANCH   1   8
BRANCH   3  10
ATOM     10  C   LIG    1        3.172  -3.975   2.838  0.00  0.00    +0.016 C 
ATOM     11  C   LIG    1        2.150  -4.443   3.878  0.00  0.00    +0.012 C 
ATOM     12  C   LIG    1        4.577  -4.472   3.194  0.00  0.00    +0.012 C 
ENDBRANCH   3  10
BRANCH   2  13
ATOM     13  O   LIG    1        2.312  -2.622   0.402  0.00  0.00    -0.506 OA
ATOM     14  H   LIG    1        1.690  -3.277   0.762  0.00  0.00    +0.292 HD
ENDBRANCH   2  13
TORSDOF 3
