REMARK  Name = *****
REMARK                            x       y       z     vdW  Elec       q    Type
REMARK                         _______ _______ _______ _____ _____    ______ ____
ROOT
ATOM      1  N   LIG    1        1.609  -1.702  -0.969  0.00  0.00    -0.297 N 
ATOM      2  C   LIG    1        2.340  -0.816  -0.158  0.00  0.00    +0.226 C 
ATOM      3  O   LIG    1        2.889  -1.242   0.898  0.00  0.00    -0.275 OA
ENDROOT
BRANCH   1   5
ATOM      4  C   LIG    1        1.095  -2.361  -3.346  0.00  0.00    +0.024 C 
ATOM      5  C   LIG    1        0.968  -1.315  -2.233  0.00  0.00    +0.105 C 
ENDBRANCH   1   5
BRANCH   2   6
ATOM      6  C   LIG    1        2.526   0.679  -0.507  0.00  0.00    +0.130 C 
BRANCH   6   7
ATOM      7  C   LIG    1        3.598   0.983  -1.565  0.00  0.00    -0.033 A 
ATOM      8  C   LIG    1        4.961   0.691  -1.397  0.00  0.00    +0.004 A 
ATOM      9  C   LIG    1        5.901   1.060  -2.373  0.00  0.00    +0.000 A 
ATOM     10  C   LIG    1        5.497   1.729  -3.525  0.00  0.00    +0.000 A 
ATOM     11  C   LIG    1        4.155   2.040  -3.702  0.00  0.00    +0.000 A 
ATOM     12  C   LIG    1        3.219   1.679  -2.729  0.00  0.00    +0.004 A 
ENDBRANCH   6   7
BRANCH   6  13
ATOM     13  C   LIG    1        2.777   1.575   0.752  0.00  0.00    +0.173 C 
BRANCH  13  14
ATOM     14  O   LIG    1        3.930   1.264   1.534  0.00  0.00    -0.394 OA
ATOM     15  H   LIG    1        4.153   0.323   1.383  0.00  0.00    +0.209 HD
ENDBRANCH  13  14
ENDBRANCH   6  13
ENDBRANCH   2   6
BRANCH   1  16
ATOM     16  C   LIG    1        1.519  -3.122  -0.558  0.00  0.00    +0.143 C 
BRANCH  16  17
ATOM     17  C   LIG    1        0.229  -3.642   0.049  0.00  0.00    -0.027 A 
ATOM     18  C   LIG    1       -1.015  -3.586  -0.592  0.00  0.00    +0.025 A 
ATOM     19  C   LIG    1       -2.106  -4.238  -0.024  0.00  0.00    +0.111 A 
ATOM     20  N   LIG    1       -2.048  -4.955   1.115  0.00  0.00    -0.263 NA
ATOM     21  C   LIG    1       -0.844  -5.022   1.716  0.00  0.00    +0.111 A 
ATOM     22  C   LIG    1        0.296  -4.394   1.232  0.00  0.00    +0.025 A 
ENDBRANCH  16  17
ENDBRANCH   1  16
TORSDOF 7
