REMARK  Name = *****
REMARK                            x       y       z     vdW  Elec       q    Type
REMARK                         _______ _______ _______ _____ _____    ______ ____
ROOT
ATOM      1  O   LIG    1        1.080  -0.198  -0.020  0.00  0.00    -0.245 OA
ATOM      2  C   LIG    1        2.287  -0.082  -0.024  0.00  0.00    +0.341 C 
ATOM      3  C   LIG    1        3.168  -0.268  -1.169  0.00  0.00    +0.067 A 
ATOM      4  C   LIG    1        4.467  -0.006  -0.782  0.00  0.00    +0.019 A 
ATOM      5  C   LIG    1        5.509  -0.106  -1.693  0.00  0.00    +0.009 A 
ATOM      6  C   LIG    1        5.205  -0.486  -3.002  0.00  0.00    +0.001 A 
ATOM      7  C   LIG    1        3.879  -0.759  -3.381  0.00  0.00    +0.001 A 
ATOM      8  C   LIG    1        4.481   0.341   0.674  0.00  0.00    +0.196 C 
ATOM      9  C   LIG    1        5.245  -0.683   1.485  0.00  0.00    +0.047 A 
ATOM     10  C   LIG    1        6.363  -0.292   2.225  0.00  0.00    +0.140 A 
ATOM     11  C   LIG    1        7.129  -1.242   2.912  0.00  0.00    +0.092 A 
ATOM     12  C   LIG    1        6.773  -2.587   2.855  0.00  0.00    +0.120 A 
ATOM     13  C   LIG    1        5.659  -2.996   2.138  0.00  0.00    +0.046 A 
ATOM     14  O   LIG    1        6.794   1.011   2.321  0.00  0.00    -0.455 OA
ATOM     15  C   LIG    1        6.066   2.003   1.708  0.00  0.00    +0.140 A 
ATOM     16  C   LIG    1        6.523   3.310   1.903  0.00  0.00    +0.092 A 
ATOM     17  C   LIG    1        5.858   4.376   1.304  0.00  0.00    +0.120 A 
ATOM     18  C   LIG    1        4.735   4.162   0.517  0.00  0.00    +0.046 A 
ATOM     19  C   LIG    1        4.275   2.860   0.330  0.00  0.00    +0.015 A 
ATOM     20  C   LIG    1        4.893  -2.049   1.462  0.00  0.00    +0.015 A 
ATOM     21  C   LIG    1        4.940   1.762   0.918  0.00  0.00    +0.047 A 
ATOM     22  C   LIG    1        2.839  -0.647  -2.457  0.00  0.00    +0.015 A 
ATOM     23  O   LIG    1        3.076   0.256   1.037  0.00  0.00    -0.440 OA
ENDROOT
BRANCH  12  24
ATOM     24  O   LIG    1        7.498  -3.551   3.490  0.00  0.00    -0.507 OA
ATOM     25  H   LIG    1        8.225  -3.129   3.976  0.00  0.00    +0.292 HD
ENDBRANCH  12  24
BRANCH  17  26
ATOM     26  O   LIG    1        6.343   5.633   1.510  0.00  0.00    -0.507 OA
ATOM     27  H   LIG    1        5.767   6.268   1.051  0.00  0.00    +0.292 HD
ENDBRANCH  17  26
TORSDOF 2
