REMARK  Name = *****
REMARK                            x       y       z     vdW  Elec       q    Type
REMARK                         _______ _______ _______ _____ _____    ______ ____
ROOT
ATOM      1  O   LIG    1        0.879   0.613   0.282  0.00  0.00    -0.248 OA
ATOM      2  C   LIG    1        1.889   0.097  -0.166  0.00  0.00    +0.331 C 
ENDROOT
BRANCH   2   3
ATOM      3  O   LIG    1        2.281  -1.169   0.131  0.00  0.00    -0.479 OA
ATOM      4  H   LIG    1        3.110  -1.358  -0.369  0.00  0.00    +0.295 HD
ENDBRANCH   2   3
BRANCH   2   5
ATOM      5  C   LIG    1        2.855   0.763  -1.134  0.00  0.00    +0.276 C 
BRANCH   5   6
ATOM      6  O   LIG    1        4.096   0.049  -1.137  0.00  0.00    -0.384 OA
ATOM      7  H   LIG    1        4.644   0.444  -0.432  0.00  0.00    +0.210 HD
ENDBRANCH   5   6
ENDBRANCH   2   5
TORSDOF 3
