REMARK  Name = *****
REMARK                            x       y       z     vdW  Elec       q    Type
REMARK                         _______ _______ _______ _____ _____    ______ ____
ROOT
ATOM      1  C   LIG    1        3.632   0.146  -0.432  0.00  0.00    +0.146 C 
ATOM      2  C   LIG    1        3.346  -1.139   0.259  0.00  0.00    +0.033 C 
ATOM      3  N   LIG    1        2.733  -2.026  -0.586  0.00  0.00    -0.341 NA
ATOM      4  C   LIG    1        2.495  -3.217   0.029  0.00  0.00    +0.090 C 
ATOM      5  C   LIG    1        2.944  -3.034   1.341  0.00  0.00    +0.031 C 
ATOM      6  C   LIG    1        2.424  -1.437  -1.881  0.00  0.00    +0.123 C 
ATOM      7  C   LIG    1        3.446  -1.712   1.495  0.00  0.00    +0.024 C 
ATOM      8  C   LIG    1        2.619   0.072  -1.605  0.00  0.00    +0.042 C 
ENDROOT
BRANCH   1  10
ATOM      9  O   LIG    1        5.402   1.188  -1.702  0.00  0.00    -0.250 OA
ATOM     10  C   LIG    1        5.053   0.262  -0.978  0.00  0.00    +0.314 C 
BRANCH  10  11
ATOM     11  O   LIG    1        5.924  -0.709  -0.628  0.00  0.00    -0.480 OA
ATOM     12  H   LIG    1        5.546  -1.411  -0.063  0.00  0.00    +0.295 HD
ENDBRANCH  10  11
ENDBRANCH   1  10
BRANCH   4  13
ATOM     13  C   LIG    1        1.936  -4.404  -0.608  0.00  0.00    +0.209 C 
ATOM     14  O   LIG    1        2.073  -4.629  -1.806  0.00  0.00    -0.285 OA
BRANCH  13  15
ATOM     15  C   LIG    1        1.186  -5.402   0.227  0.00  0.00    +0.024 C 
ATOM     16  C   LIG    1        0.446  -5.007   1.352  0.00  0.00    +0.012 C 
ATOM     17  C   LIG    1       -0.234  -5.953   2.123  0.00  0.00    +0.001 C 
ATOM     18  C   LIG    1       -0.201  -7.298   1.766  0.00  0.00    +0.000 C 
ATOM     19  C   LIG    1        0.500  -7.699   0.629  0.00  0.00    +0.001 C 
ATOM     20  C   LIG    1        1.188  -6.753  -0.141  0.00  0.00    +0.012 C 
ENDBRANCH  13  15
ENDBRANCH   4  13
TORSDOF 4
