REMARK  Name = *****
REMARK                            x       y       z     vdW  Elec       q    Type
REMARK                         _______ _______ _______ _____ _____    ______ ____
ROOT
ATOM      1  C   LIG    1        4.031  -1.242   0.902  0.00  0.00    +0.116 C 
ENDROOT
BRANCH   1   2
ATOM      2  C   LIG    1        3.819  -2.754   0.719  0.00  0.00    -0.012 A 
ATOM      3  C   LIG    1        4.922  -3.605   0.510  0.00  0.00    +0.007 A 
ATOM      4  C   LIG    1        4.748  -4.980   0.341  0.00  0.00    +0.000 A 
ATOM      5  C   LIG    1        3.470  -5.532   0.375  0.00  0.00    +0.000 A 
ATOM      6  C   LIG    1        2.365  -4.709   0.574  0.00  0.00    +0.000 A 
ATOM      7  C   LIG    1        2.538  -3.332   0.744  0.00  0.00    +0.007 A 
ENDBRANCH   1   2
BRANCH   1   8
ATOM      8  C   LIG    1        4.989  -0.948   2.078  0.00  0.00    -0.012 A 
ATOM      9  C   LIG    1        6.197  -0.243   1.920  0.00  0.00    +0.007 A 
ATOM     10  C   LIG    1        7.038   0.003   3.009  0.00  0.00    +0.000 A 
ATOM     11  C   LIG    1        6.691  -0.447   4.276  0.00  0.00    +0.000 A 
ATOM     12  C   LIG    1        5.500  -1.147   4.461  0.00  0.00    +0.000 A 
ATOM     13  C   LIG    1        4.659  -1.393   3.373  0.00  0.00    +0.007 A 
ENDBRANCH   1   8
BRANCH   1  14
ATOM     14  O   LIG    1        2.775  -0.613   1.228  0.00  0.00    -0.379 OA
ATOM     15  H   LIG    1        2.948   0.044   1.921  0.00  0.00    +0.211 HD
ENDBRANCH   1  14
BRANCH   1  16
ATOM     16  C   LIG    1        4.495  -0.599  -0.438  0.00  0.00    +0.046 C 
BRANCH  16  17
ATOM     17  C   LIG    1        3.529  -0.774  -1.619  0.00  0.00    +0.019 C 
BRANCH  17  18
ATOM     18  C   LIG    1        4.081  -0.085  -2.881  0.00  0.00    +0.084 C 
BRANCH  18  19
ATOM     19  N   LIG    1        3.220  -0.239  -4.066  0.00  0.00    -0.302 NA
ATOM     20  C   LIG    1        3.868   0.361  -5.247  0.00  0.00    +0.084 C 
ATOM     21  C   LIG    1        3.034   0.147  -6.513  0.00  0.00    +0.015 C 
ATOM     22  C   LIG    1        1.618   0.684  -6.344  0.00  0.00    +0.002 C 
ATOM     23  C   LIG    1        0.988   0.122  -5.078  0.00  0.00    +0.015 C 
ATOM     24  C   LIG    1        1.885   0.345  -3.862  0.00  0.00    +0.084 C 
ENDBRANCH  18  19
ENDBRANCH  17  18
ENDBRANCH  16  17
ENDBRANCH   1  16
TORSDOF 7
