REMARK  Name = *****
REMARK                            x       y       z     vdW  Elec       q    Type
REMARK                         _______ _______ _______ _____ _____    ______ ____
ROOT
ATOM      1  C   LIG    1        2.722   1.029   0.944  0.00  0.00    +0.151 C 
ENDROOT
BRANCH   1   2
ATOM      2  N   LIG    1        2.149   2.340   0.549  0.00  0.00    -0.348 NA
ATOM      3  C   LIG    1        2.607   3.006  -0.588  0.00  0.00    +0.135 C 
ATOM      4  C   LIG    1        2.140   4.185  -1.017  0.00  0.00    +0.180 C 
ATOM      5  C   LIG    1        1.070   4.842  -0.211  0.00  0.00    +0.223 C 
ATOM      6  O   LIG    1        0.578   5.903  -0.585  0.00  0.00    -0.284 OA
ATOM      7  C   LIG    1        0.652   4.175   1.043  0.00  0.00    +0.072 C 
ATOM      8  C   LIG    1        1.213   2.995   1.345  0.00  0.00    +0.089 C 
BRANCH   4   9
ATOM      9  O   LIG    1        2.599   4.807  -2.158  0.00  0.00    -0.502 OA
ATOM     10  H   LIG    1        2.076   5.635  -2.216  0.00  0.00    +0.292 HD
ENDBRANCH   4   9
ENDBRANCH   1   2
BRANCH   1  11
ATOM     11  CA  LIG    1        2.409  -0.074  -0.092  0.00  0.00    +0.180 C 
BRANCH  11  12
ATOM     12  N   LIG    1        0.940  -0.312  -0.323  0.00  0.00    -0.317 NA
ATOM     13  H1  LIG    1        0.455  -0.190   0.572  0.00  0.00    +0.119 HD
ATOM     14  H2  LIG    1        0.606   0.489  -0.873  0.00  0.00    +0.119 HD
ENDBRANCH  11  12
BRANCH  11  15
ATOM     15  C   LIG    1        3.040  -1.388   0.373  0.00  0.00    +0.324 C 
ATOM     16  O   LIG    1        4.176  -1.509   0.810  0.00  0.00    -0.249 OA
BRANCH  15  17
ATOM     17  OXT LIG    1        2.183  -2.430   0.223  0.00  0.00    -0.479 OA
ATOM     18  HXT LIG    1        1.359  -2.049  -0.175  0.00  0.00    +0.295 HD
ENDBRANCH  15  17
ENDBRANCH  11  15
ENDBRANCH   1  11
TORSDOF 6
