REMARK  Name = *****
REMARK                            x       y       z     vdW  Elec       q    Type
REMARK                         _______ _______ _______ _____ _____    ______ ____
ROOT
ATOM      1  CA  HIS A  1        5.698   4.281  -0.560  0.00  0.00    +0.188 C 
ENDROOT
BRANCH   1   3
ATOM      2  C   UNK A  0        7.205   4.746  -2.489  0.00  0.00    +0.215 C 
ATOM      3  N   HIS A  1        6.017   4.933  -1.839  0.00  0.00    -0.302 N 
ATOM      4  H   HIS A  1        5.221   5.370  -2.300  0.00  0.00    +0.149 HD
ATOM      5  O   UNK A  0        8.117   4.090  -2.002  0.00  0.00    -0.276 OA
BRANCH   2   6
ATOM      6  C   UNK A  0        7.359   5.414  -3.849  0.00  0.00    +0.110 C 
BRANCH   6   7
ATOM      7  C   UNK A  0        6.112   6.102  -4.397  0.00  0.00    +0.087 C 
BRANCH   7   8
ATOM      8  N   UNK A  0        6.334   6.727  -5.696  0.00  0.00    -0.330 NA
ATOM      9  H   UNK A  0        7.121   7.373  -5.641  0.00  0.00    +0.118 HD
ATOM     10  H   UNK A  0        6.597   6.020  -6.383  0.00  0.00    +0.118 HD
ENDBRANCH   7   8
ENDBRANCH   6   7
ENDBRANCH   2   6
ENDBRANCH   1   3
BRANCH   1  11
ATOM     11  C   HIS A  1        6.184   5.081   0.668  0.00  0.00    +0.326 C 
ATOM     12  O   HIS A  1        6.434   4.568   1.742  0.00  0.00    -0.249 OA
BRANCH  11  13
ATOM     13  OXT HIS A  1        6.209   6.430   0.500  0.00  0.00    -0.479 OA
ATOM     14  HXT HIS A  1        5.801   6.691  -0.352  0.00  0.00    +0.295 HD
ENDBRANCH  11  13
ENDBRANCH   1  11
BRANCH   1  15
ATOM     15  CB  HIS A  1        4.186   4.000  -0.488  0.00  0.00    +0.090 C 
BRANCH  15  16
ATOM     16  CG  HIS A  1        3.334   5.232  -0.509  0.00  0.00    +0.061 A 
ATOM     17  ND1 HIS A  1        3.778   6.389  -1.122  0.00  0.00    -0.241 NA
ATOM     18  CE1 HIS A  1        2.818   7.269  -0.939  0.00  0.00    +0.196 A 
ATOM     19  NE2 HIS A  1        1.767   6.732  -0.251  0.00  0.00    -0.351 N 
ATOM     20  HE2 HIS A  1        0.923   7.220   0.019  0.00  0.00    +0.166 HD
ATOM     21  CD2 HIS A  1        2.074   5.426   0.014  0.00  0.00    +0.107 A 
ENDBRANCH  15  16
ENDBRANCH   1  15
TORSDOF 8
