REMARK  Name = *****
REMARK                            x       y       z     vdW  Elec       q    Type
REMARK                         _______ _______ _______ _____ _____    ______ ____
ROOT
ATOM      1  C   LIG    1        4.689  -0.446  -2.496  0.00  0.00    +0.131 A 
ATOM      2  C   LIG    1        4.682  -1.801  -2.922  0.00  0.00    +0.061 A 
ATOM      3  C   LIG    1        5.163  -2.107  -4.212  0.00  0.00    +0.043 A 
ATOM      4  C   LIG    1        5.628  -1.089  -5.055  0.00  0.00    +0.106 A 
ATOM      5  C   LIG    1        5.595   0.238  -4.643  0.00  0.00    +0.032 A 
ATOM      6  C   LIG    1        5.116   0.553  -3.380  0.00  0.00    +0.048 A 
ENDROOT
BRANCH   2   7
ATOM      7  C   LIG    1        4.218  -2.957  -2.054  0.00  0.00    +0.145 C 
ATOM      8  N   LIG    1        3.779  -2.613  -0.780  0.00  0.00    -0.305 N 
ATOM      9  H   LIG    1        3.760  -1.640  -0.504  0.00  0.00    +0.170 HD
ATOM     10  C   LIG    1        3.352  -3.500   0.174  0.00  0.00    +0.278 C 
ATOM     11  O   LIG    1        2.951  -3.148   1.278  0.00  0.00    -0.266 OA
ATOM     12  C   LIG    1        3.422  -4.830  -0.298  0.00  0.00    +0.151 A 
ATOM     13  C   LIG    1        3.817  -5.146  -1.564  0.00  0.00    +0.119 A 
ATOM     14  C   LIG    1        3.682  -6.546  -1.668  0.00  0.00    +0.089 A 
ATOM     15  N   LIG    1        3.271  -7.076  -0.498  0.00  0.00    -0.174 NA
ATOM     16  N   LIG    1        3.151  -6.007   0.322  0.00  0.00    -0.260 N 
ATOM     17  C   LIG    1        2.809  -6.197   1.711  0.00  0.00    +0.173 C 
ATOM     18  N   LIG    1        4.238  -4.188  -2.501  0.00  0.00    -0.225 NA
BRANCH  14  19
ATOM     19  C   LIG    1        3.901  -7.430  -2.846  0.00  0.00    +0.059 C 
BRANCH  19  20
ATOM     20  C   LIG    1        5.341  -7.928  -2.948  0.00  0.00    +0.003 C 
ATOM     21  C   LIG    1        5.529  -8.847  -4.145  0.00  0.00    +0.004 C 
ENDBRANCH  19  20
ENDBRANCH  14  19
ENDBRANCH   2   7
BRANCH   4  22
ATOM     22  S   LIG    1        6.386  -1.431  -6.622  0.00  0.00    +0.058 S 
ATOM     23  O   LIG    1        7.420  -2.421  -6.410  0.00  0.00    -0.153 OA
ATOM     24  O   LIG    1        6.669  -0.169  -7.262  0.00  0.00    -0.153 OA
BRANCH  22  25
ATOM     25  N   LIG    1        5.145  -2.104  -7.532  0.00  0.00    -0.190 NA
ATOM     26  H   LIG    1        5.098  -1.645  -8.441  0.00  0.00    +0.148 HD
BRANCH  25  27
ATOM     27  C   LIG    1        4.998  -3.562  -7.504  0.00  0.00    +0.107 C 
BRANCH  27  28
ATOM     28  C   LIG    1        3.820  -3.953  -8.388  0.00  0.00    +0.036 C 
BRANCH  28  29
ATOM     29  C   LIG    1        3.594  -5.467  -8.391  0.00  0.00    +0.058 C 
ATOM     30  N   LIG    1        3.325  -6.119  -7.091  0.00  0.00    -0.302 NA
ATOM     31  C   LIG    1        2.323  -5.425  -6.274  0.00  0.00    +0.105 C 
ATOM     32  C   LIG    1        2.831  -7.452  -7.479  0.00  0.00    +0.084 C 
ATOM     33  C   LIG    1        1.952  -7.219  -8.700  0.00  0.00    +0.017 C 
ATOM     34  C   LIG    1        2.430  -5.895  -9.287  0.00  0.00    +0.020 C 
ENDBRANCH  28  29
ENDBRANCH  27  28
ENDBRANCH  25  27
ENDBRANCH  22  25
ENDBRANCH   4  22
BRANCH   1  35
ATOM     35  O   LIG    1        4.298  -0.158  -1.210  0.00  0.00    -0.491 OA
BRANCH  35  36
ATOM     36  C   LIG    1        4.323   1.203  -0.757  0.00  0.00    +0.229 C 
BRANCH  36  38
ATOM     37  C   LIG    1        1.831   1.223  -0.318  0.00  0.00    +0.007 C 
ATOM     38  C   LIG    1        2.990   1.889  -1.048  0.00  0.00    +0.037 C 
ENDBRANCH  36  38
ENDBRANCH  35  36
ENDBRANCH   1  35
TORSDOF 11
