REMARK  Name = *****
REMARK                            x       y       z     vdW  Elec       q    Type
REMARK                         _______ _______ _______ _____ _____    ______ ____
ROOT
ATOM      1  N   LIG    1        6.139   5.341  -4.622  0.00  0.00    -0.286 N 
ATOM      2  C   LIG    1        6.888   5.125  -3.405  0.00  0.00    +0.234 C 
ATOM      3  O   LIG    1        6.384   4.463  -2.486  0.00  0.00    -0.274 OA
ENDROOT
BRANCH   1   4
ATOM      4  C   LIG    1        6.688   5.909  -5.867  0.00  0.00    +0.139 C 
ATOM      5  C   LIG    1        6.909   7.444  -5.994  0.00  0.00    +0.036 C 
BRANCH   4   6
ATOM      6  C   LIG    1        7.598   4.998  -6.639  0.00  0.00    +0.128 A 
ATOM      7  N   LIG    1        7.192   4.133  -7.634  0.00  0.00    -0.346 N 
ATOM      8  H   LIG    1        6.244   3.961  -7.946  0.00  0.00    +0.167 HD
ATOM      9  C   LIG    1        8.316   3.546  -8.148  0.00  0.00    +0.112 A 
ATOM     10  C   LIG    1        9.366   4.075  -7.434  0.00  0.00    +0.089 A 
ATOM     11  N   LIG    1        8.904   4.951  -6.498  0.00  0.00    -0.231 NA
BRANCH  10  12
ATOM     12  C   LIG    1       10.765   3.748  -7.603  0.00  0.00    +0.002 A 
ATOM     13  C   LIG    1       11.238   3.349  -8.858  0.00  0.00    +0.010 A 
ATOM     14  C   LIG    1       12.559   2.945  -9.023  0.00  0.00    +0.001 A 
ATOM     15  C   LIG    1       13.428   2.952  -7.935  0.00  0.00    +0.000 A 
ATOM     16  C   LIG    1       12.982   3.388  -6.687  0.00  0.00    +0.001 A 
ATOM     17  C   LIG    1       11.655   3.795  -6.520  0.00  0.00    +0.010 A 
ENDBRANCH  10  12
ENDBRANCH   4   6
ENDBRANCH   1   4
BRANCH   1  18
ATOM     18  C   LIG    1        4.773   4.667  -4.747  0.00  0.00    +0.143 C 
BRANCH  18  22
ATOM     19  C   LIG    1        1.521   5.762  -7.648  0.00  0.00    +0.134 A 
ATOM     20  C   LIG    1        2.769   6.236  -7.984  0.00  0.00    +0.101 A 
ATOM     21  C   LIG    1        3.794   5.847  -7.078  0.00  0.00    +0.024 A 
ATOM     22  C   LIG    1        3.661   5.164  -5.792  0.00  0.00    -0.029 A 
ATOM     23  C   LIG    1        2.367   4.687  -5.564  0.00  0.00    +0.009 A 
ATOM     24  C   LIG    1        1.360   4.931  -6.516  0.00  0.00    +0.047 A 
BRANCH  19  26
ATOM     25  C   LIG    1       -0.681   6.338  -7.832  0.00  0.00    +0.277 C 
ATOM     26  O   LIG    1        0.504   5.986  -8.524  0.00  0.00    -0.494 OA
ENDBRANCH  19  26
BRANCH  20  27
ATOM     27  C   LIG    1        3.023   6.850  -9.344  0.00  0.00    +0.340 C 
ATOM     28  O   LIG    1        4.117   6.723 -10.018  0.00  0.00    -0.245 OA
BRANCH  27  29
ATOM     29  O   LIG    1        2.047   7.577  -9.895  0.00  0.00    -0.477 OA
ATOM     30  H   LIG    1        2.387   7.816 -10.806  0.00  0.00    +0.295 HD
ENDBRANCH  27  29
ENDBRANCH  20  27
ENDBRANCH  18  22
ENDBRANCH   1  18
BRANCH   2  31
ATOM     31  C   LIG    1        8.404   5.667  -3.214  0.00  0.00    +0.142 C 
BRANCH  31  32
ATOM     32  N   LIG    1        8.787   6.492  -4.318  0.00  0.00    -0.320 NA
ATOM     33  H   LIG    1        8.852   5.884  -5.141  0.00  0.00    +0.119 HD
ATOM     34  H   LIG    1        7.965   7.071  -4.310  0.00  0.00    +0.119 HD
ENDBRANCH  31  32
BRANCH  31  35
ATOM     35  C   LIG    1        8.823   6.699  -2.128  0.00  0.00    +0.063 C 
BRANCH  35  36
ATOM     36  C   LIG    1        9.128   6.249  -0.722  0.00  0.00    -0.040 A 
ATOM     37  C   LIG    1        8.873   7.095   0.415  0.00  0.00    -0.046 A 
ATOM     38  C   LIG    1        8.248   8.476   0.551  0.00  0.00    +0.044 C 
ATOM     39  C   LIG    1        9.091   6.577   1.695  0.00  0.00    +0.016 A 
ATOM     40  C   LIG    1        9.684   5.360   1.943  0.00  0.00    +0.037 A 
ATOM     41  C   LIG    1       10.094   4.620   0.833  0.00  0.00    +0.016 A 
ATOM     42  C   LIG    1        9.734   4.973  -0.492  0.00  0.00    -0.046 A 
ATOM     43  C   LIG    1        9.965   3.812  -1.459  0.00  0.00    +0.044 C 
BRANCH  40  44
ATOM     44  C   LIG    1        9.685   4.884   3.361  0.00  0.00    +0.241 C 
ATOM     45  O   LIG    1       10.355   3.890   3.725  0.00  0.00    -0.270 OA
ATOM     46  N   LIG    1        8.909   5.538   4.291  0.00  0.00    -0.325 N 
ATOM     47  H   LIG    1        8.860   5.191   5.236  0.00  0.00    +0.145 HD
ATOM     48  H   LIG    1        8.427   6.415   4.143  0.00  0.00    +0.145 HD
ENDBRANCH  40  44
ENDBRANCH  35  36
ENDBRANCH  31  35
ENDBRANCH   2  31
TORSDOF 13
