REMARK  Name = *****
REMARK                            x       y       z     vdW  Elec       q    Type
REMARK                         _______ _______ _______ _____ _____    ______ ____
ROOT
ATOM      1  C   LIG    1        3.863   1.327  -0.247  0.00  0.00    +0.203 C 
ENDROOT
BRANCH   1   2
ATOM      2  N   LIG    1        5.290   1.051  -0.358  0.00  0.00    -0.293 N 
ATOM      3  C   LIG    1        6.242   2.016  -0.641  0.00  0.00    +0.216 C 
ATOM      4  O   LIG    1        6.054   3.220  -0.669  0.00  0.00    -0.276 OA
ATOM      5  C   LIG    1        7.545   1.316  -0.932  0.00  0.00    +0.097 C 
ATOM      6  C   LIG    1        7.296  -0.099  -0.420  0.00  0.00    +0.028 C 
ATOM      7  C   LIG    1        5.798  -0.279  -0.571  0.00  0.00    +0.109 C 
ENDBRANCH   1   2
BRANCH   1  11
ATOM      8  N   LIG    1        4.169   3.088   1.440  0.00  0.00    -0.328 N 
ATOM      9  H   LIG    1        4.861   3.498   0.814  0.00  0.00    +0.145 HD
ATOM     10  H   LIG    1        3.921   3.577   2.288  0.00  0.00    +0.145 HD
ATOM     11  C   LIG    1        3.489   1.955   1.098  0.00  0.00    +0.228 C 
ATOM     12  O   LIG    1        2.558   1.550   1.790  0.00  0.00    -0.274 OA
ENDBRANCH   1  11
TORSDOF 2
