REMARK  Name = *****
REMARK                            x       y       z     vdW  Elec       q    Type
REMARK                         _______ _______ _______ _____ _____    ______ ____
ROOT
ATOM      1  N   LIG    1        7.521   2.916   2.950  0.00  0.00    -0.287 NA
ATOM      2  C   LIG    1        8.937   2.613   3.235  0.00  0.00    +0.108 C 
ATOM      3  C   LIG    1        9.976   3.314   2.297  0.00  0.00    +0.039 C 
ATOM      4  C   LIG    1       11.354   3.341   2.966  0.00  0.00    +0.030 C 
ATOM      5  C   LIG    1        9.539   4.780   2.001  0.00  0.00    +0.108 C 
ATOM      6  N   LIG    1        8.100   4.891   1.684  0.00  0.00    -0.287 NA
ATOM      7  C   LIG    1        7.359   4.364   2.841  0.00  0.00    +0.171 C 
ENDROOT
BRANCH   3   8
ATOM      8  N   LIG    1       10.165   2.572   1.028  0.00  0.00    -0.323 NA
ATOM      9  H   LIG    1        9.857   1.629   1.132  0.00  0.00    +0.119 HD
ATOM     10  H   LIG    1        9.519   2.990   0.341  0.00  0.00    +0.119 HD
ENDBRANCH   3   8
BRANCH   1  11
ATOM     11  C   LIG    1        6.941   2.093   1.870  0.00  0.00    +0.089 C 
BRANCH  11  12
ATOM     12  C   LIG    1        5.405   2.162   1.564  0.00  0.00    +0.003 C 
BRANCH  12  13
ATOM     13  C   LIG    1        5.025   1.225   0.365  0.00  0.00    +0.001 C 
ATOM     14  C   LIG    1        5.612   1.570  -0.998  0.00  0.00    +0.004 C 
ENDBRANCH  12  13
BRANCH  12  15
ATOM     15  C   LIG    1        4.498   1.722   2.757  0.00  0.00    +0.005 C 
BRANCH  15  16
ATOM     16  C   LIG    1        4.556   2.626   3.989  0.00  0.00    +0.000 C 
BRANCH  16  18
ATOM     17  C   LIG    1        2.206   2.145   4.901  0.00  0.00    +0.004 C 
ATOM     18  C   LIG    1        3.698   2.179   5.175  0.00  0.00    -0.003 C 
ENDBRANCH  16  18
ENDBRANCH  15  16
ENDBRANCH  12  15
ENDBRANCH  11  12
ENDBRANCH   1  11
BRANCH   6  19
ATOM     19  C   LIG    1        7.704   6.294   1.417  0.00  0.00    +0.089 C 
BRANCH  19  20
ATOM     20  C   LIG    1        8.429   7.051   0.253  0.00  0.00    +0.003 C 
BRANCH  20  21
ATOM     21  C   LIG    1        8.265   6.366  -1.125  0.00  0.00    +0.001 C 
ATOM     22  C   LIG    1        9.010   7.065  -2.267  0.00  0.00    +0.004 C 
ENDBRANCH  20  21
BRANCH  20  23
ATOM     23  C   LIG    1        8.014   8.546   0.223  0.00  0.00    +0.005 C 
BRANCH  23  24
ATOM     24  C   LIG    1        6.523   8.812  -0.012  0.00  0.00    +0.000 C 
BRANCH  24  25
ATOM     25  C   LIG    1        6.226  10.314  -0.040  0.00  0.00    -0.003 C 
ATOM     26  C   LIG    1        4.747  10.589  -0.263  0.00  0.00    +0.004 C 
ENDBRANCH  24  25
ENDBRANCH  23  24
ENDBRANCH  20  23
ENDBRANCH  19  20
ENDBRANCH   6  19
TORSDOF 13
