REMARK  Name = *****
REMARK                            x       y       z     vdW  Elec       q    Type
REMARK                         _______ _______ _______ _____ _____    ______ ____
ROOT
ATOM      1  C   LIG    1       16.771  -0.919   5.985  0.00  0.00    -0.047 A 
ATOM      2  C   LIG    1       15.446  -0.503   5.829  0.00  0.00    +0.007 A 
ATOM      3  C   LIG    1       14.648  -1.000   4.794  0.00  0.00    +0.046 A 
ATOM      4  C   LIG    1       15.151  -1.923   3.881  0.00  0.00    +0.121 A 
ATOM      5  C   LIG    1       16.481  -2.335   4.021  0.00  0.00    +0.046 A 
ATOM      6  C   LIG    1       17.285  -1.841   5.064  0.00  0.00    +0.007 A 
ENDROOT
BRANCH   1   7
ATOM      7  C   LIG    1       17.581  -0.440   7.169  0.00  0.00    +0.046 C 
BRANCH   7   8
ATOM      8  C   LIG    1       17.808   1.068   7.236  0.00  0.00    +0.125 C 
BRANCH   8   9
ATOM      9  C   LIG    1       18.774   1.550   6.181  0.00  0.00    +0.307 C 
ATOM     10  O   LIG    1       19.918   1.169   6.064  0.00  0.00    -0.251 OA
BRANCH   9  12
ATOM     11  C   LIG    1       18.983   3.018   4.355  0.00  0.00    +0.280 C 
ATOM     12  O   LIG    1       18.171   2.502   5.406  0.00  0.00    -0.468 OA
ENDBRANCH   9  12
ENDBRANCH   8   9
ENDBRANCH   7   8
ENDBRANCH   1   7
BRANCH   4  13
ATOM     13  O   LIG    1       14.450  -2.472   2.836  0.00  0.00    -0.489 OA
BRANCH  13  14
ATOM     14  C   LIG    1       13.082  -2.040   2.633  0.00  0.00    +0.261 C 
BRANCH  14  15
ATOM     15  C   LIG    1       12.771  -2.125   1.131  0.00  0.00    +0.166 C 
BRANCH  15  16
ATOM     16  O   LIG    1       13.692  -1.266   0.432  0.00  0.00    -0.387 OA
ATOM     17  H   LIG    1       14.578  -1.602   0.671  0.00  0.00    +0.210 HD
ENDBRANCH  15  16
BRANCH  15  18
ATOM     18  C   LIG    1       11.320  -1.740   0.721  0.00  0.00    +0.115 C 
BRANCH  18  19
ATOM     19  N   LIG    1       10.851  -0.443   1.251  0.00  0.00    -0.311 NA
ATOM     20  H   LIG    1       11.523   0.265   0.942  0.00  0.00    +0.122 HD
BRANCH  19  21
ATOM     21  C   LIG    1        9.501  -0.055   0.787  0.00  0.00    +0.048 C 
ATOM     22  C   LIG    1        9.200   1.378   1.252  0.00  0.00    +0.024 C 
ATOM     23  C   LIG    1        8.392  -0.972   1.315  0.00  0.00    +0.024 C 
ENDBRANCH  19  21
ENDBRANCH  18  19
ENDBRANCH  15  18
ENDBRANCH  14  15
ENDBRANCH  13  14
ENDBRANCH   4  13
TORSDOF 11
