REMARK  Name = *****
REMARK                            x       y       z     vdW  Elec       q    Type
REMARK                         _______ _______ _______ _____ _____    ______ ____
ROOT
ATOM      1  C   LIG    1        5.808  -3.048   1.389  0.00  0.00    +0.332 C 
ATOM      2  O   LIG    1        5.141  -3.260   2.372  0.00  0.00    -0.246 OA
ENDROOT
BRANCH   1   3
ATOM      3  C   LIG    1        7.286  -2.911   1.383  0.00  0.00    +0.092 C 
ATOM      4  C   LIG    1        7.989  -2.961   2.523  0.00  0.00    +0.015 C 
BRANCH   4   5
ATOM      5  C   LIG    1        9.443  -2.719   2.645  0.00  0.00    -0.025 A 
ATOM      6  C   LIG    1       10.056  -2.853   3.899  0.00  0.00    +0.011 A 
ATOM      7  C   LIG    1       11.421  -2.582   4.072  0.00  0.00    +0.046 A 
ATOM      8  C   LIG    1       12.199  -2.172   2.991  0.00  0.00    +0.120 A 
ATOM      9  C   LIG    1       11.601  -2.032   1.741  0.00  0.00    +0.046 A 
ATOM     10  C   LIG    1       10.241  -2.313   1.568  0.00  0.00    +0.011 A 
BRANCH   8  11
ATOM     11  O   LIG    1       13.521  -1.831   3.057  0.00  0.00    -0.495 OA
ATOM     12  C   LIG    1       14.282  -2.535   4.032  0.00  0.00    +0.277 C 
ENDBRANCH   8  11
ENDBRANCH   4   5
ENDBRANCH   1   3
BRANCH   1  13
ATOM     13  O   LIG    1        5.350  -2.787   0.134  0.00  0.00    -0.461 OA
BRANCH  13  14
ATOM     14  C   LIG    1        3.974  -2.356   0.036  0.00  0.00    +0.236 C 
BRANCH  14  15
ATOM     15  C   LIG    1        2.923  -3.483   0.199  0.00  0.00    +0.026 C 
BRANCH  15  16
ATOM     16  C   LIG    1        3.213  -4.659  -0.755  0.00  0.00    +0.003 C 
ATOM     17  C   LIG    1        3.001  -4.358  -2.232  0.00  0.00    +0.004 C 
ENDBRANCH  15  16
BRANCH  15  18
ATOM     18  C   LIG    1        1.472  -2.924   0.079  0.00  0.00    +0.007 C 
BRANCH  18  19
ATOM     19  C   LIG    1        0.352  -3.941   0.407  0.00  0.00    +0.000 C 
BRANCH  19  21
ATOM     20  C   LIG    1       -2.177  -4.314   0.607  0.00  0.00    +0.004 C 
ATOM     21  C   LIG    1       -1.056  -3.329   0.281  0.00  0.00    -0.003 C 
ENDBRANCH  19  21
ENDBRANCH  18  19
ENDBRANCH  15  18
ENDBRANCH  14  15
ENDBRANCH  13  14
ENDBRANCH   1  13
TORSDOF 10
