REMARK  Name = *****
REMARK                            x       y       z     vdW  Elec       q    Type
REMARK                         _______ _______ _______ _____ _____    ______ ____
ROOT
ATOM      1  O   LIG    1        8.868  -3.656   1.891  0.00  0.00    -0.350 OA
ENDROOT
BRANCH   1   2
ATOM      2  C   LIG    1        7.846  -2.832   2.479  0.00  0.00    +0.183 C 
BRANCH   2   3
ATOM      3  C   LIG    1        6.503  -3.532   2.186  0.00  0.00    +0.266 C 
BRANCH   3   4
ATOM      4  O   LIG    1        6.414  -4.818   2.836  0.00  0.00    -0.461 OA
BRANCH   4   5
ATOM      5  C   LIG    1        5.875  -4.782   4.085  0.00  0.00    +0.324 C 
ATOM      6  O   LIG    1        5.625  -3.739   4.677  0.00  0.00    -0.249 OA
BRANCH   5   7
ATOM      7  C   LIG    1        5.527  -6.203   4.612  0.00  0.00    +0.163 C 
BRANCH   7   9
ATOM      8  C   LIG    1        5.653  -7.864   6.545  0.00  0.00    +0.009 C 
ATOM      9  C   LIG    1        6.000  -6.445   6.067  0.00  0.00    +0.011 C 
ATOM     10  C   LIG    1        5.376  -5.444   7.053  0.00  0.00    +0.009 C 
ENDBRANCH   7   9
BRANCH   7  11
ATOM     11  N   LIG    1        6.078  -7.239   3.699  0.00  0.00    -0.318 NA
ATOM     12  H   LIG    1        5.763  -7.018   2.750  0.00  0.00    +0.119 HD
ATOM     13  H   LIG    1        7.093  -7.127   3.654  0.00  0.00    +0.119 HD
ENDBRANCH   7  11
ENDBRANCH   5   7
ENDBRANCH   4   5
ENDBRANCH   3   4
ENDBRANCH   2   3
BRANCH   2  14
ATOM     14  C   LIG    1        7.836  -1.407   1.891  0.00  0.00    +0.191 C 
BRANCH  14  15
ATOM     15  O   LIG    1        6.746  -0.599   2.320  0.00  0.00    -0.392 OA
ATOM     16  H   LIG    1        6.342  -0.967   3.125  0.00  0.00    +0.209 HD
ENDBRANCH  14  15
ENDBRANCH   2  14
ENDBRANCH   1   2
BRANCH   1  17
ATOM     17  C   LIG    1       10.218  -3.266   2.140  0.00  0.00    +0.287 C 
BRANCH  17  18
ATOM     18  N   LIG    1       11.103  -4.257   1.545  0.00  0.00    -0.291 N 
ATOM     19  C   LIG    1       12.375  -4.564   1.943  0.00  0.00    +0.171 A 
ATOM     20  N   LIG    1       13.063  -4.011   2.973  0.00  0.00    -0.196 NA
ATOM     21  C   LIG    1       14.270  -4.496   3.104  0.00  0.00    +0.195 C 
ATOM     22  N   LIG    1       14.804  -5.475   2.286  0.00  0.00    -0.293 N 
ATOM     23  H   LIG    1       15.724  -5.839   2.469  0.00  0.00    +0.172 HD
ATOM     24  C   LIG    1       14.132  -6.075   1.233  0.00  0.00    +0.280 C 
ATOM     25  O   LIG    1       14.652  -6.955   0.547  0.00  0.00    -0.265 OA
ATOM     26  C   LIG    1       12.799  -5.536   1.062  0.00  0.00    +0.172 A 
ATOM     27  N   LIG    1       11.845  -5.813   0.120  0.00  0.00    -0.229 NA
ATOM     28  C   LIG    1       10.843  -5.014   0.428  0.00  0.00    +0.203 A 
BRANCH  21  29
ATOM     29  N   LIG    1       15.084  -4.030   4.083  0.00  0.00    -0.329 N 
ATOM     30  H   LIG    1       16.067  -3.958   3.857  0.00  0.00    +0.145 HD
ATOM     31  H   LIG    1       14.720  -3.185   4.513  0.00  0.00    +0.145 HD
ENDBRANCH  21  29
ENDBRANCH  17  18
ENDBRANCH   1  17
TORSDOF 12
