REMARK  Name = *****
REMARK                            x       y       z     vdW  Elec       q    Type
REMARK                         _______ _______ _______ _____ _____    ______ ____
ROOT
ATOM      1  C   LIG    1        6.337  -1.189  -4.455  0.00  0.00    -0.008 A 
ATOM      2  C   LIG    1        7.565  -0.608  -4.139  0.00  0.00    +0.008 A 
ATOM      3  C   LIG    1        7.625   0.635  -3.475  0.00  0.00    +0.009 A 
ATOM      4  C   LIG    1        6.475   1.375  -3.121  0.00  0.00    -0.017 A 
ATOM      5  C   LIG    1        5.269   0.813  -3.570  0.00  0.00    +0.009 A 
ATOM      6  C   LIG    1        5.194  -0.403  -4.292  0.00  0.00    +0.008 A 
ENDROOT
BRANCH   4   7
ATOM      7  C   LIG    1        6.575   2.620  -2.260  0.00  0.00    -0.007 A 
ATOM      8  C   LIG    1        5.772   3.801  -2.336  0.00  0.00    +0.030 A 
ATOM      9  C   LIG    1        6.082   4.902  -1.479  0.00  0.00    +0.012 A 
ATOM     10  C   LIG    1        7.138   4.890  -0.573  0.00  0.00    +0.001 A 
ATOM     11  C   LIG    1        7.908   3.752  -0.467  0.00  0.00    +0.001 A 
ATOM     12  C   LIG    1        7.619   2.644  -1.278  0.00  0.00    +0.009 A 
BRANCH   8  13
ATOM     13  C   LIG    1        4.657   4.069  -3.263  0.00  0.00    +0.205 A 
ATOM     14  N   LIG    1        4.139   3.247  -4.185  0.00  0.00    -0.133 NA
ATOM     15  N   LIG    1        3.226   4.027  -4.759  0.00  0.00    -0.176 N 
ATOM     16  H   LIG    1        2.674   3.711  -5.551  0.00  0.00    +0.214 HD
ATOM     17  N   LIG    1        3.107   5.255  -4.256  0.00  0.00    -0.049 NA
ATOM     18  N   LIG    1        4.016   5.300  -3.295  0.00  0.00    -0.108 NA
ENDBRANCH   8  13
ENDBRANCH   4   7
BRANCH   1  19
ATOM     19  C   LIG    1        6.232  -2.663  -4.761  0.00  0.00    +0.270 C 
BRANCH  19  21
ATOM     20  C   LIG    1        5.189  -3.242  -2.497  0.00  0.00    +0.292 C 
ATOM     21  N   LIG    1        5.666  -3.512  -3.703  0.00  0.00    -0.153 N 
ATOM     22  C   LIG    1        5.508  -4.876  -3.955  0.00  0.00    +0.356 C 
ATOM     23  O   LIG    1        5.800  -5.497  -4.928  0.00  0.00    -0.242 OA
ATOM     24  C   LIG    1        4.888  -5.460  -2.686  0.00  0.00    +0.249 C 
ATOM     25  C   LIG    1        5.780  -6.506  -2.008  0.00  0.00    +0.069 C 
ATOM     26  C   LIG    1        5.054  -7.843  -2.217  0.00  0.00    +0.005 C 
ATOM     27  C   LIG    1        3.885  -7.543  -3.150  0.00  0.00    +0.005 C 
ATOM     28  C   LIG    1        3.528  -6.108  -2.841  0.00  0.00    +0.069 C 
ATOM     29  N   LIG    1        4.703  -4.277  -1.901  0.00  0.00    -0.069 NA
BRANCH  20  30
ATOM     30  C   LIG    1        5.207  -1.972  -1.673  0.00  0.00    +0.128 C 
BRANCH  30  31
ATOM     31  C   LIG    1        4.106  -1.698  -0.643  0.00  0.00    +0.012 C 
BRANCH  31  33
ATOM     32  C   LIG    1        3.907  -4.013   0.508  0.00  0.00    +0.004 C 
ATOM     33  C   LIG    1        4.163  -2.527   0.638  0.00  0.00    -0.003 C 
ENDBRANCH  31  33
ENDBRANCH  30  31
ENDBRANCH  20  30
ENDBRANCH  19  21
ENDBRANCH   1  19
TORSDOF 7
