REMARK  Name = *****
REMARK                            x       y       z     vdW  Elec       q    Type
REMARK                         _______ _______ _______ _____ _____    ______ ____
ROOT
ATOM      1  N   LIG    1        1.921  -2.765  -3.930  0.00  0.00    -0.302 NA
ATOM      2  C   LIG    1        2.001  -2.495  -5.380  0.00  0.00    +0.087 C 
ATOM      3  C   LIG    1        2.941  -3.428  -6.146  0.00  0.00    +0.055 C 
ATOM      4  C   LIG    1        2.596  -4.915  -5.927  0.00  0.00    +0.093 C 
ATOM      5  C   LIG    1        2.533  -5.163  -4.407  0.00  0.00    +0.055 C 
ATOM      6  C   LIG    1        1.604  -4.177  -3.691  0.00  0.00    +0.087 C 
ENDROOT
BRANCH   4   7
ATOM      7  C   LIG    1        1.374  -5.378  -6.733  0.00  0.00    -0.016 A 
ATOM      8  C   LIG    1        1.353  -5.220  -8.134  0.00  0.00    +0.008 A 
ATOM      9  C   LIG    1        0.261  -5.642  -8.903  0.00  0.00    +0.020 A 
ATOM     10  C   LIG    1       -0.831  -6.239  -8.285  0.00  0.00    +0.041 A 
ATOM     11 CL   LIG    1       -2.174  -6.767  -9.220  0.00  0.00    -0.084 Cl
ATOM     12  C   LIG    1       -0.835  -6.424  -6.909  0.00  0.00    +0.020 A 
ATOM     13  C   LIG    1        0.262  -6.009  -6.146  0.00  0.00    +0.008 A 
ENDBRANCH   4   7
BRANCH   4  14
ATOM     14  O   LIG    1        3.705  -5.667  -6.452  0.00  0.00    -0.384 OA
ATOM     15  H   LIG    1        3.741  -6.515  -5.980  0.00  0.00    +0.211 HD
ENDBRANCH   4  14
BRANCH   1  16
ATOM     16  C   LIG    1        3.132  -2.303  -3.233  0.00  0.00    +0.085 C 
BRANCH  16  17
ATOM     17  C   LIG    1        2.999  -2.316  -1.701  0.00  0.00    +0.023 C 
BRANCH  17  18
ATOM     18  C   LIG    1        4.261  -1.785  -1.021  0.00  0.00    +0.081 C 
BRANCH  18  20
ATOM     19  O   LIG    1        6.181  -2.423  -2.304  0.00  0.00    -0.292 OA
ATOM     20  C   LIG    1        5.472  -2.652  -1.329  0.00  0.00    +0.163 C 
BRANCH  20  21
ATOM     21  C   LIG    1        5.777  -3.834  -0.454  0.00  0.00    +0.018 A 
ATOM     22  C   LIG    1        6.883  -4.641  -0.775  0.00  0.00    +0.014 A 
ATOM     23  C   LIG    1        7.196  -5.749   0.019  0.00  0.00    +0.039 A 
ATOM     24  C   LIG    1        6.399  -6.056   1.115  0.00  0.00    +0.123 A 
ATOM     25  F   LIG    1        6.690  -7.121   1.871  0.00  0.00    -0.205 F 
ATOM     26  C   LIG    1        5.298  -5.273   1.436  0.00  0.00    +0.039 A 
ATOM     27  C   LIG    1        4.987  -4.162   0.649  0.00  0.00    +0.014 A 
ENDBRANCH  20  21
ENDBRANCH  18  20
ENDBRANCH  17  18
ENDBRANCH  16  17
ENDBRANCH   1  16
TORSDOF 7
