REMARK  Name = *****
REMARK                            x       y       z     vdW  Elec       q    Type
REMARK                         _______ _______ _______ _____ _____    ______ ____
ROOT
ATOM      1  C   LIG    1        1.638   0.193  -4.273  0.00  0.00    +0.164 A 
ATOM      2  C   LIG    1        1.320  -1.170  -4.337  0.00  0.00    +0.162 A 
ATOM      3  C   LIG    1        2.343  -2.101  -4.523  0.00  0.00    +0.062 A 
ATOM      4  C   LIG    1        3.688  -1.694  -4.574  0.00  0.00    +0.044 A 
ATOM      5  C   LIG    1        4.005  -0.345  -4.509  0.00  0.00    +0.082 A 
ATOM      6  N   LIG    1        5.262   0.082  -4.562  0.00  0.00    -0.214 NA
ATOM      7  C   LIG    1        6.247  -0.815  -4.715  0.00  0.00    +0.220 A 
ATOM      8  N   LIG    1        6.035  -2.134  -4.782  0.00  0.00    -0.199 NA
ATOM      9  C   LIG    1        4.774  -2.558  -4.682  0.00  0.00    +0.129 A 
ATOM     10  C   LIG    1        2.981   0.581  -4.378  0.00  0.00    +0.078 A 
ENDROOT
BRANCH   7  11
ATOM     11  N   LIG    1        7.558  -0.351  -4.789  0.00  0.00    -0.297 N 
ATOM     12  C   LIG    1        8.322  -0.936  -5.918  0.00  0.00    +0.127 C 
ATOM     13  C   LIG    1        7.988  -0.217  -7.253  0.00  0.00    +0.127 C 
ATOM     14  N   LIG    1        8.181   1.234  -7.089  0.00  0.00    -0.296 N 
ATOM     15  C   LIG    1        9.410   1.784  -7.449  0.00  0.00    +0.244 C 
ATOM     16  O   LIG    1       10.127   1.224  -8.306  0.00  0.00    -0.273 OA
ATOM     17  C   LIG    1        7.343   1.798  -6.030  0.00  0.00    +0.127 C 
ATOM     18  C   LIG    1        7.671   1.119  -4.683  0.00  0.00    +0.127 C 
BRANCH  15  19
ATOM     19  C   LIG    1        9.854   3.101  -6.773  0.00  0.00    +0.204 C 
ATOM     20  O   LIG    1        9.995   2.940  -5.350  0.00  0.00    -0.367 OA
ATOM     21  C   LIG    1       11.387   2.888  -5.008  0.00  0.00    +0.161 C 
ATOM     22  C   LIG    1       12.166   2.932  -6.301  0.00  0.00    +0.031 C 
ATOM     23  C   LIG    1       11.202   3.613  -7.241  0.00  0.00    +0.043 C 
ENDBRANCH  15  19
ENDBRANCH   7  11
BRANCH   9  24
ATOM     24  N   LIG    1        4.608  -3.951  -4.688  0.00  0.00    -0.343 N 
ATOM     25  H   LIG    1        4.115  -4.251  -3.853  0.00  0.00    +0.144 HD
ATOM     26  H   LIG    1        5.545  -4.349  -4.715  0.00  0.00    +0.144 HD
ENDBRANCH   9  24
BRANCH   1  28
ATOM     27  C   LIG    1       -0.594   0.971  -3.925  0.00  0.00    +0.277 C 
ATOM     28  O   LIG    1        0.788   1.253  -4.088  0.00  0.00    -0.491 OA
ENDBRANCH   1  28
BRANCH   2  29
ATOM     29  O   LIG    1        0.015  -1.568  -4.265  0.00  0.00    -0.491 OA
ATOM     30  C   LIG    1       -0.222  -2.826  -3.640  0.00  0.00    +0.277 C 
ENDBRANCH   2  29
TORSDOF 5
