REMARK  Name = *****
REMARK                            x       y       z     vdW  Elec       q    Type
REMARK                         _______ _______ _______ _____ _____    ______ ____
ROOT
ATOM      1  O   LIG    1        3.989   1.154  -3.163  0.00  0.00    -0.489 OA
ENDROOT
BRANCH   1   2
ATOM      2  C   LIG    1        4.816   0.840  -4.221  0.00  0.00    +0.128 A 
ATOM      3  C   LIG    1        4.455  -0.267  -5.045  0.00  0.00    +0.024 A 
ATOM      4  C   LIG    1        5.284  -0.613  -6.136  0.00  0.00    -0.014 A 
ATOM      5  C   LIG    1        4.936  -1.671  -6.998  0.00  0.00    +0.008 A 
ATOM      6  C   LIG    1        3.772  -2.405  -6.781  0.00  0.00    +0.001 A 
ATOM      7  C   LIG    1        2.955  -2.099  -5.701  0.00  0.00    +0.001 A 
ATOM      8  C   LIG    1        6.469   0.101  -6.376  0.00  0.00    +0.009 A 
ATOM      9  C   LIG    1        6.826   1.162  -5.550  0.00  0.00    +0.004 A 
ATOM     10  C   LIG    1        3.288  -1.042  -4.840  0.00  0.00    +0.012 A 
ATOM     11  C   LIG    1        6.006   1.534  -4.489  0.00  0.00    +0.046 A 
ENDBRANCH   1   2
BRANCH   1  12
ATOM     12  C   LIG    1        4.015   2.520  -2.718  0.00  0.00    +0.261 C 
BRANCH  12  13
ATOM     13  C   LIG    1        3.071   2.729  -1.524  0.00  0.00    +0.166 C 
BRANCH  13  14
ATOM     14  O   LIG    1        3.219   4.069  -1.031  0.00  0.00    -0.387 OA
ATOM     15  H   LIG    1        2.605   4.135  -0.273  0.00  0.00    +0.210 HD
ENDBRANCH  13  14
BRANCH  13  16
ATOM     16  C   LIG    1        1.599   2.467  -1.906  0.00  0.00    +0.115 C 
BRANCH  16  17
ATOM     17  N   LIG    1        0.633   2.664  -0.800  0.00  0.00    -0.311 NA
ATOM     18  H   LIG    1       -0.306   2.527  -1.181  0.00  0.00    +0.122 HD
BRANCH  17  20
ATOM     19  C   LIG    1       -0.231   2.023   1.414  0.00  0.00    +0.024 C 
ATOM     20  C   LIG    1        0.826   1.754   0.339  0.00  0.00    +0.048 C 
ATOM     21  C   LIG    1        0.770   0.278  -0.057  0.00  0.00    +0.024 C 
ENDBRANCH  17  20
ENDBRANCH  16  17
ENDBRANCH  13  16
ENDBRANCH  12  13
ENDBRANCH   1  12
TORSDOF 7
