REMARK  Name = *****
REMARK                            x       y       z     vdW  Elec       q    Type
REMARK                         _______ _______ _______ _____ _____    ______ ____
ROOT
ATOM      1  C   LIG    1        2.993   1.059  -0.617  0.00  0.00    -0.032 C 
ATOM      2  C   LIG    1        2.219   1.884  -1.381  0.00  0.00    -0.007 C 
ENDROOT
BRANCH   1   3
ATOM      3  C   LIG    1        4.483   1.125  -0.600  0.00  0.00    -0.021 A 
ATOM      4  C   LIG    1        5.142   1.893   0.369  0.00  0.00    +0.008 A 
ATOM      5  C   LIG    1        6.541   1.927   0.426  0.00  0.00    +0.001 A 
ATOM      6  C   LIG    1        7.293   1.191  -0.486  0.00  0.00    +0.000 A 
ATOM      7  C   LIG    1        6.648   0.421  -1.454  0.00  0.00    +0.001 A 
ATOM      8  C   LIG    1        5.250   0.390  -1.513  0.00  0.00    +0.008 A 
ENDBRANCH   1   3
BRANCH   2   9
ATOM      9  C   LIG    1        2.858   2.831  -2.334  0.00  0.00    -0.017 A 
ATOM     10  C   LIG    1        3.302   4.093  -1.926  0.00  0.00    +0.012 A 
ATOM     11  C   LIG    1        3.927   4.954  -2.838  0.00  0.00    +0.046 A 
ATOM     12  C   LIG    1        4.111   4.559  -4.165  0.00  0.00    +0.121 A 
ATOM     13  C   LIG    1        3.617   3.324  -4.587  0.00  0.00    +0.046 A 
ATOM     14  C   LIG    1        3.006   2.459  -3.677  0.00  0.00    +0.012 A 
BRANCH  12  15
ATOM     15  O   LIG    1        4.741   5.293  -5.134  0.00  0.00    -0.491 OA
BRANCH  15  16
ATOM     16  C   LIG    1        5.719   6.231  -4.667  0.00  0.00    +0.244 C 
BRANCH  16  17
ATOM     17  C   LIG    1        6.721   6.506  -5.806  0.00  0.00    +0.124 C 
BRANCH  17  18
ATOM     18  N   LIG    1        7.830   7.418  -5.455  0.00  0.00    -0.305 NA
ATOM     19  C   LIG    1        7.361   8.750  -5.071  0.00  0.00    +0.104 C 
ATOM     20  C   LIG    1        8.759   7.540  -6.583  0.00  0.00    +0.104 C 
ENDBRANCH  17  18
ENDBRANCH  16  17
ENDBRANCH  15  16
ENDBRANCH  12  15
ENDBRANCH   2   9
BRANCH   2  21
ATOM     21  C   LIG    1        0.730   1.824  -1.303  0.00  0.00    -0.017 A 
ATOM     22  C   LIG    1        0.034   2.664  -0.419  0.00  0.00    +0.008 A 
ATOM     23  C   LIG    1       -1.365   2.644  -0.364  0.00  0.00    +0.001 A 
ATOM     24  C   LIG    1       -2.083   1.789  -1.202  0.00  0.00    +0.000 A 
ATOM     25  C   LIG    1       -1.407   0.965  -2.092  0.00  0.00    +0.001 A 
ATOM     26  C   LIG    1       -0.007   0.980  -2.145  0.00  0.00    +0.008 A 
ENDBRANCH   2  21
BRANCH   1  28
ATOM     27  C   LIG    1        2.140   0.301   1.675  0.00  0.00    +0.009 C 
ATOM     28  C   LIG    1        2.458  -0.081   0.237  0.00  0.00    +0.033 C 
ENDBRANCH   1  28
TORSDOF 8
