REMARK  Name = *****
REMARK                            x       y       z     vdW  Elec       q    Type
REMARK                         _______ _______ _______ _____ _____    ______ ____
ROOT
ATOM      1  C   LIG    1        0.629   3.092   3.097  0.00  0.00    +0.014 C 
ATOM      2  C   LIG    1        1.303   4.443   2.707  0.00  0.00    -0.003 C 
ATOM      3  C   LIG    1        2.831   4.397   2.996  0.00  0.00    +0.121 C 
ATOM      4  C   LIG    1        2.993   4.894   4.447  0.00  0.00    +0.032 C 
ATOM      5  C   LIG    1        1.565   5.215   4.939  0.00  0.00    +0.007 C 
ATOM      6  C   LIG    1        0.877   5.614   3.617  0.00  0.00    +0.001 C 
ATOM      7  C   LIG    1       -0.592   6.095   3.474  0.00  0.00    -0.003 C 
ATOM      8  C   LIG    1       -1.601   5.474   4.443  0.00  0.00    +0.007 C 
ATOM      9  C   LIG    1       -2.909   4.926   3.896  0.00  0.00    +0.039 C 
ATOM     10  C   LIG    1       -3.301   5.310   2.504  0.00  0.00    +0.110 C 
ATOM     11  C   LIG    1       -2.585   6.434   1.763  0.00  0.00    +0.008 C 
ATOM     12  C   LIG    1       -2.998   7.814   2.330  0.00  0.00    +0.015 C 
ATOM     13  C   LIG    1       -3.044   6.461   0.229  0.00  0.00    +0.059 C 
ATOM     14  C   LIG    1       -3.179   5.106  -0.440  0.00  0.00    +0.070 C 
ATOM     15  C   LIG    1       -3.493   4.042   0.324  0.00  0.00    +0.139 C 
ATOM     16  C   LIG    1       -3.942   4.181   1.712  0.00  0.00    +0.217 C 
ATOM     17  O   LIG    1       -4.711   5.276   2.232  0.00  0.00    -0.356 OA
ATOM     18  C   LIG    1       -1.032   6.222   1.962  0.00  0.00    +0.002 C 
ATOM     19  C   LIG    1       -0.497   5.081   1.078  0.00  0.00    +0.005 C 
ATOM     20  C   LIG    1        0.976   4.770   1.254  0.00  0.00    +0.010 C 
ENDROOT
BRANCH   3  21
ATOM     21  O   LIG    1        3.566   5.275   2.138  0.00  0.00    -0.391 OA
ATOM     22  H   LIG    1        3.286   6.191   2.310  0.00  0.00    +0.210 HD
ENDBRANCH   3  21
BRANCH  14  23
ATOM     23  C   LIG    1       -2.861   4.949  -1.814  0.00  0.00    +0.098 C 
ATOM     24  N   LIG    1       -2.603   4.821  -2.951  0.00  0.00    -0.191 NA
ENDBRANCH  14  23
BRANCH  15  25
ATOM     25  O   LIG    1       -3.237   2.762  -0.137  0.00  0.00    -0.507 OA
ATOM     26  H   LIG    1       -2.344   2.532   0.192  0.00  0.00    +0.292 HD
ENDBRANCH  15  25
TORSDOF 3
