REMARK  Name = *****
REMARK                            x       y       z     vdW  Elec       q    Type
REMARK                         _______ _______ _______ _____ _____    ______ ____
ROOT
ATOM      1  C   LIG    1        4.126   0.678  -4.060  0.00  0.00    +0.158 C 
ENDROOT
BRANCH   1   2
ATOM      2  C   LIG    1        5.261   1.389  -4.792  0.00  0.00    -0.017 A 
ATOM      3  C   LIG    1        6.538   1.450  -4.202  0.00  0.00    +0.023 A 
ATOM      4  C   LIG    1        7.575   2.220  -4.768  0.00  0.00    +0.078 A 
ATOM      5  C   LIG    1        7.339   2.894  -5.974  0.00  0.00    +0.129 A 
ATOM      6  C   LIG    1        6.098   2.800  -6.600  0.00  0.00    +0.046 A 
ATOM      7  C   LIG    1        5.069   2.066  -6.007  0.00  0.00    +0.010 A 
BRANCH   4   8
ATOM      8  C   LIG    1        8.850   2.323  -3.992  0.00  0.00    +0.245 C 
ATOM      9  O   LIG    1        9.007   1.752  -2.928  0.00  0.00    -0.270 OA
ATOM     10  N   LIG    1        9.836   3.115  -4.511  0.00  0.00    -0.325 N 
ATOM     11  H   LIG    1       10.694   3.238  -3.995  0.00  0.00    +0.145 HD
ATOM     12  H   LIG    1        9.716   3.563  -5.412  0.00  0.00    +0.145 HD
ENDBRANCH   4   8
BRANCH   5  13
ATOM     13  O   LIG    1        8.303   3.678  -6.557  0.00  0.00    -0.506 OA
ATOM     14  H   LIG    1        7.939   4.080  -7.365  0.00  0.00    +0.292 HD
ENDBRANCH   5  13
ENDBRANCH   1   2
BRANCH   1  15
ATOM     15  O   LIG    1        3.153   0.181  -4.991  0.00  0.00    -0.386 OA
ATOM     16  H   LIG    1        2.801   0.940  -5.481  0.00  0.00    +0.210 HD
ENDBRANCH   1  15
BRANCH   1  17
ATOM     17  C   LIG    1        3.432   1.628  -3.037  0.00  0.00    +0.117 C 
BRANCH  17  18
ATOM     18  N   LIG    1        2.364   0.959  -2.272  0.00  0.00    -0.311 NA
ATOM     19  H   LIG    1        1.699   0.528  -2.914  0.00  0.00    +0.122 HD
BRANCH  18  21
ATOM     20  C   LIG    1        0.959   3.008  -1.928  0.00  0.00    +0.024 C 
ATOM     21  C   LIG    1        1.692   1.819  -1.285  0.00  0.00    +0.051 C 
BRANCH  21  22
ATOM     22  C   LIG    1        0.665   1.001  -0.459  0.00  0.00    +0.023 C 
BRANCH  22  23
ATOM     23  C   LIG    1        1.224  -0.228   0.275  0.00  0.00    +0.036 C 
BRANCH  23  24
ATOM     24  C   LIG    1        2.325   0.069   1.265  0.00  0.00    -0.047 A 
ATOM     25  C   LIG    1        2.101   0.917   2.358  0.00  0.00    +0.003 A 
ATOM     26  C   LIG    1        3.125   1.186   3.268  0.00  0.00    +0.000 A 
ATOM     27  C   LIG    1        4.380   0.604   3.101  0.00  0.00    +0.000 A 
ATOM     28  C   LIG    1        4.613  -0.244   2.021  0.00  0.00    +0.000 A 
ATOM     29  C   LIG    1        3.591  -0.511   1.108  0.00  0.00    +0.003 A 
ENDBRANCH  23  24
ENDBRANCH  22  23
ENDBRANCH  21  22
ENDBRANCH  18  21
ENDBRANCH  17  18
ENDBRANCH   1  17
TORSDOF 10
