REMARK  Name = *****
REMARK                            x       y       z     vdW  Elec       q    Type
REMARK                         _______ _______ _______ _____ _____    ______ ____
ROOT
ATOM      1  C   LIG    1        2.936   1.049  -1.113  0.00  0.00    +0.042 A 
ATOM      2  N   LIG    1        3.325   0.533  -2.303  0.00  0.00    -0.260 NA
ATOM      3  C   LIG    1        3.622   1.398  -3.296  0.00  0.00    +0.112 A 
ATOM      4  C   LIG    1        3.545   2.772  -3.171  0.00  0.00    +0.030 A 
ATOM      5  C   LIG    1        3.144   3.291  -1.940  0.00  0.00    +0.006 A 
ATOM      6  C   LIG    1        2.844   2.418  -0.892  0.00  0.00    +0.033 A 
ENDROOT
BRANCH   1   8
ATOM      7  C   LIG    1        3.829  -0.263   0.831  0.00  0.00    +0.010 C 
ATOM      8  C   LIG    1        2.611   0.071  -0.015  0.00  0.00    +0.052 C 
ENDBRANCH   1   8
BRANCH   5   9
ATOM      9  C   LIG    1        3.023   4.756  -1.733  0.00  0.00    +0.077 C 
ATOM     10  S   LIG    1        4.091   5.903  -2.309  0.00  0.00    -0.035 S 
BRANCH   9  11
ATOM     11  N   LIG    1        1.933   5.175  -1.013  0.00  0.00    -0.352 N 
ATOM     12  H   LIG    1        1.790   6.172  -0.889  0.00  0.00    +0.143 HD
ATOM     13  H   LIG    1        1.183   4.560  -0.727  0.00  0.00    +0.143 HD
ENDBRANCH   9  11
ENDBRANCH   5   9
TORSDOF 3
