REMARK  Name = *****
REMARK                            x       y       z     vdW  Elec       q    Type
REMARK                         _______ _______ _______ _____ _____    ______ ____
ROOT
ATOM      1  C   LIG    1        0.611  -1.796  -0.785  0.00  0.00    -0.018 A 
ATOM      2  C   LIG    1       -0.225  -0.695  -1.141  0.00  0.00    +0.039 A 
ATOM      3  I   LIG    1        0.588   1.184  -1.845  0.00  0.00    -0.042 I 
ATOM      4  C   LIG    1       -1.645  -0.762  -1.081  0.00  0.00    +0.051 A 
ATOM      5  C   LIG    1       -2.230  -1.994  -0.759  0.00  0.00    +0.036 A 
ATOM      6  I   LIG    1       -4.319  -2.262  -0.780  0.00  0.00    -0.042 I 
ATOM      7  C   LIG    1       -1.446  -3.092  -0.414  0.00  0.00    +0.030 A 
ATOM      8  C   LIG    1       -0.046  -2.994  -0.420  0.00  0.00    +0.019 A 
ATOM      9  I   LIG    1        0.958  -4.787   0.085  0.00  0.00    -0.043 I 
ENDROOT
BRANCH   4  10
ATOM     10  N   LIG    1       -2.445   0.299  -1.559  0.00  0.00    -0.356 N 
ATOM     11  H   LIG    1       -2.003   1.210  -1.466  0.00  0.00    +0.142 HD
ATOM     12  H   LIG    1       -3.402   0.280  -1.217  0.00  0.00    +0.142 HD
ENDBRANCH   4  10
BRANCH   1  13
ATOM     13  C   LIG    1        2.134  -1.711  -0.820  0.00  0.00    +0.052 C 
BRANCH  13  14
ATOM     14  C   LIG    1        2.830  -1.361   0.520  0.00  0.00    +0.102 C 
BRANCH  14  16
ATOM     15  C   LIG    1        3.102   0.427   2.355  0.00  0.00    +0.004 C 
ATOM     16  C   LIG    1        2.439   0.028   1.047  0.00  0.00    +0.011 C 
ENDBRANCH  14  16
BRANCH  14  17
ATOM     17  C   LIG    1        4.331  -1.406   0.291  0.00  0.00    +0.308 C 
ATOM     18  O   LIG    1        4.931  -0.670  -0.489  0.00  0.00    -0.251 OA
BRANCH  17  19
ATOM     19  O   LIG    1        4.978  -2.328   1.035  0.00  0.00    -0.480 OA
ATOM     20  H   LIG    1        4.409  -2.856   1.626  0.00  0.00    +0.295 HD
ENDBRANCH  17  19
ENDBRANCH  14  17
ENDBRANCH  13  14
ENDBRANCH   1  13
TORSDOF 6
