REMARK  Name = *****
REMARK                            x       y       z     vdW  Elec       q    Type
REMARK                         _______ _______ _______ _____ _____    ______ ____
ROOT
ATOM      1  C   LIG    1       -4.481   0.650   0.223  0.00  0.00    +0.132 C 
ATOM      2  C   LIG    1       -4.350  -0.508   1.302  0.00  0.00    +0.011 C 
ATOM      3  C   LIG    1       -5.769  -0.470   2.027  0.00  0.00    +0.015 C 
ATOM      4  C   LIG    1       -3.199  -0.022   2.222  0.00  0.00    +0.003 C 
ATOM      5  C   LIG    1       -1.785  -0.674   2.038  0.00  0.00    +0.003 C 
ATOM      6  C   LIG    1       -1.812  -2.214   2.133  0.00  0.00    +0.019 C 
ATOM      7  C   LIG    1       -2.869  -2.792   1.162  0.00  0.00    +0.009 C 
ATOM      8  C   LIG    1       -0.398  -2.827   1.896  0.00  0.00    -0.066 C 
ATOM      9  C   LIG    1       -0.276  -4.334   2.084  0.00  0.00    +0.038 C 
ATOM     10  C   LIG    1        1.131  -4.881   1.858  0.00  0.00    +0.079 C 
ATOM     11  C   LIG    1        1.694  -4.169   0.664  0.00  0.00    +0.138 C 
ATOM     12  O   LIG    1        1.922  -4.732  -0.404  0.00  0.00    -0.297 OA
ATOM     13  C   LIG    1        1.930  -2.696   0.888  0.00  0.00    +0.105 C 
ATOM     14  C   LIG    1        0.659  -2.091   1.447  0.00  0.00    -0.063 C 
ATOM     15  C   LIG    1        0.560  -0.601   1.208  0.00  0.00    +0.034 C 
ATOM     16  C   LIG    1       -0.883  -0.247   0.837  0.00  0.00    -0.006 C 
ATOM     17  C   LIG    1       -1.130  -0.934  -0.518  0.00  0.00    +0.008 C 
ATOM     18  C   LIG    1       -3.166   1.515   2.106  0.00  0.00    +0.008 C 
ATOM     19  C   LIG    1       -4.208  -2.036   1.027  0.00  0.00    +0.011 C 
ATOM     20  C   LIG    1       -4.257   1.904   1.113  0.00  0.00    +0.049 C 
ENDROOT
BRANCH   1  22
ATOM     21  C   LIG    1       -2.984   0.823  -1.983  0.00  0.00    +0.007 C 
ATOM     22  C   LIG    1       -3.590   0.722  -0.932  0.00  0.00    -0.070 C 
ENDBRANCH   1  22
BRANCH   1  23
ATOM     23  O   LIG    1       -5.793   0.716  -0.331  0.00  0.00    -0.376 OA
ATOM     24  H   LIG    1       -5.761   0.265  -1.193  0.00  0.00    +0.211 HD
ENDBRANCH   1  23
TORSDOF 2
