REMARK  Name = *****
REMARK                            x       y       z     vdW  Elec       q    Type
REMARK                         _______ _______ _______ _____ _____    ______ ____
ROOT
ATOM      1  C   LIG    1        3.097   1.277  -6.220  0.00  0.00    +0.005 C 
ATOM      2  C   LIG    1        1.857   1.097  -6.872  0.00  0.00    +0.125 C 
ATOM      3  C   LIG    1        1.034   2.193  -7.187  0.00  0.00    +0.056 C 
ATOM      4  C   LIG    1        1.337   3.477  -6.719  0.00  0.00    +0.007 C 
ATOM      5  C   LIG    1        2.504   3.660  -5.978  0.00  0.00    +0.048 C 
ATOM      6  N   LIG    1        2.552   5.001  -5.614  0.00  0.00    -0.357 NA
ATOM      7  H   LIG    1        3.296   5.424  -5.072  0.00  0.00    +0.166 HD
ATOM      8  C   LIG    1        1.442   5.631  -6.100  0.00  0.00    +0.039 C 
ATOM      9  C   LIG    1        0.960   7.033  -6.030  0.00  0.00    +0.123 C 
ATOM     10  C   LIG    1        1.389   8.348  -5.438  0.00  0.00    +0.030 C 
ATOM     11  C   LIG    1        0.025   9.161  -5.230  0.00  0.00    +0.005 C 
ATOM     12  C   LIG    1       -0.397   8.822  -3.797  0.00  0.00    +0.010 C 
ATOM     13  C   LIG    1       -0.576   7.298  -3.769  0.00  0.00    +0.008 C 
ATOM     14  C   LIG    1       -1.224   8.693  -6.153  0.00  0.00    +0.088 C 
ATOM     15  N   LIG    1       -1.492   7.231  -6.037  0.00  0.00    -0.297 NA
ATOM     16  C   LIG    1       -1.577   6.380  -7.258  0.00  0.00    +0.089 C 
ATOM     17  C   LIG    1       -0.763   4.982  -7.419  0.00  0.00    +0.053 C 
ATOM     18  C   LIG    1       -0.423   6.720  -5.224  0.00  0.00    +0.082 C 
ATOM     19  C   LIG    1        0.642   4.715  -6.789  0.00  0.00    -0.017 C 
ATOM     20  C   LIG    1        3.385   2.584  -5.718  0.00  0.00    +0.034 C 
ENDROOT
BRANCH   1  30
ATOM     21  C   LIG    1        7.444  -4.479  -8.529  0.00  0.00    +0.035 C 
ATOM     22  C   LIG    1        6.457  -3.389  -8.245  0.00  0.00    -0.030 C 
ATOM     23  C   LIG    1        6.740  -2.130  -7.870  0.00  0.00    -0.056 C 
ATOM     24  C   LIG    1        5.700  -1.061  -7.587  0.00  0.00    +0.032 C 
ATOM     25  C   LIG    1        5.967  -0.024  -8.659  0.00  0.00    +0.122 C 
ATOM     26  C   LIG    1        7.173   0.785  -8.174  0.00  0.00    +0.075 C 
ATOM     27  C   LIG    1        6.893   1.657  -6.884  0.00  0.00    +0.057 C 
ATOM     28  C   LIG    1        6.532   1.034  -5.536  0.00  0.00    -0.017 C 
ATOM     29  C   LIG    1        5.320   0.437  -5.134  0.00  0.00    +0.028 C 
ATOM     30  C   LIG    1        4.013   0.071  -5.879  0.00  0.00    +0.070 C 
ATOM     31  N   LIG    1        5.499  -0.015  -3.844  0.00  0.00    -0.357 NA
ATOM     32  H   LIG    1        4.809  -0.527  -3.312  0.00  0.00    +0.166 HD
ATOM     33  C   LIG    1        6.769   0.238  -3.396  0.00  0.00    +0.047 C 
ATOM     34  C   LIG    1        7.369  -0.096  -2.174  0.00  0.00    +0.026 C 
ATOM     35  C   LIG    1        8.691   0.303  -1.967  0.00  0.00    +0.002 C 
ATOM     36  C   LIG    1        9.387   0.994  -2.954  0.00  0.00    +0.001 C 
ATOM     37  C   LIG    1        8.777   1.294  -4.181  0.00  0.00    +0.010 C 
ATOM     38  C   LIG    1        7.436   0.915  -4.415  0.00  0.00    +0.003 C 
ATOM     39  N   LIG    1        8.385  -0.114  -8.141  0.00  0.00    -0.297 NA
ATOM     40  C   LIG    1        9.023  -0.163  -9.468  0.00  0.00    +0.105 C 
ATOM     41  C   LIG    1        4.296  -1.105  -6.952  0.00  0.00    +0.023 C 
ATOM     42  C   LIG    1        8.152  -1.513  -7.648  0.00  0.00    +0.115 C 
BRANCH  25  43
ATOM     43  C   LIG    1        4.862   0.716  -9.332  0.00  0.00    +0.312 C 
ATOM     44  O   LIG    1        4.822   1.936  -9.440  0.00  0.00    -0.251 OA
BRANCH  43  45
ATOM     45  O   LIG    1        4.056  -0.135 -10.000  0.00  0.00    -0.468 OA
ATOM     46  C   LIG    1        3.271   0.417 -11.059  0.00  0.00    +0.280 C 
ENDBRANCH  43  45
ENDBRANCH  25  43
ENDBRANCH   1  30
BRANCH   2  47
ATOM     47  O   LIG    1        1.442  -0.187  -7.146  0.00  0.00    -0.495 OA
ATOM     48  C   LIG    1        0.025  -0.373  -7.224  0.00  0.00    +0.277 C 
ENDBRANCH   2  47
BRANCH   9  49
ATOM     49  C   LIG    1        1.153   7.415  -7.623  0.00  0.00    +0.321 C 
ATOM     50  O   LIG    1        0.461   8.112  -8.351  0.00  0.00    -0.250 OA
BRANCH  49  51
ATOM     51  O   LIG    1        2.353   6.893  -8.099  0.00  0.00    -0.467 OA
ATOM     52  C   LIG    1        2.329   6.549  -9.488  0.00  0.00    +0.280 C 
ENDBRANCH  49  51
ENDBRANCH   9  49
BRANCH  13  53
ATOM     53  C   LIG    1        0.322   6.632  -2.709  0.00  0.00    +0.002 C 
ATOM     54  C   LIG    1        0.172   5.118  -2.635  0.00  0.00    +0.004 C 
ENDBRANCH  13  53
TORSDOF 7
