REMARK  Name = *****
REMARK                            x       y       z     vdW  Elec       q    Type
REMARK                         _______ _______ _______ _____ _____    ______ ____
ROOT
ATOM      1  N   LIG    1        6.134  -8.818   0.902  0.00  0.00    -0.298 N 
ATOM      2  C   LIG    1        5.364  -7.930   1.714  0.00  0.00    +0.049 A 
ATOM      3  C   LIG    1        3.962  -7.834   1.586  0.00  0.00    +0.034 A 
ATOM      4  C   LIG    1        3.212  -6.966   2.406  0.00  0.00    +0.018 A 
ATOM      5  C   LIG    1        3.822  -6.168   3.368  0.00  0.00    +0.018 A 
ATOM      6  C   LIG    1        5.201  -6.237   3.519  0.00  0.00    +0.040 A 
ATOM      7  S   LIG    1        3.004  -8.761   0.418  0.00  0.00    -0.086 S 
ATOM      8  C   LIG    1        4.224  -9.790  -0.354  0.00  0.00    +0.034 A 
ATOM      9  C   LIG    1        3.710 -10.709  -1.294  0.00  0.00    +0.017 A 
ATOM     10  C   LIG    1        4.542 -11.574  -1.989  0.00  0.00    +0.001 A 
ATOM     11  C   LIG    1        5.905 -11.515  -1.757  0.00  0.00    +0.002 A 
ATOM     12  C   LIG    1        6.419 -10.601  -0.827  0.00  0.00    +0.024 A 
ATOM     13  C   LIG    1        5.944  -7.104   2.704  0.00  0.00    +0.041 A 
ATOM     14  C   LIG    1        5.608  -9.717  -0.079  0.00  0.00    +0.048 A 
ENDROOT
BRANCH   6  15
ATOM     15  S   LIG    1        6.010  -5.259   4.807  0.00  0.00    +0.051 S 
ATOM     16  C   LIG    1        6.599  -3.909   3.753  0.00  0.00    +0.127 C 
ATOM     17  O   LIG    1        7.223  -6.053   5.204  0.00  0.00    -0.252 OA
ENDBRANCH   6  15
BRANCH   1  18
ATOM     18  C   LIG    1        7.608  -8.824   1.112  0.00  0.00    +0.112 C 
BRANCH  18  19
ATOM     19  C   LIG    1        8.304  -7.790   0.209  0.00  0.00    +0.038 C 
BRANCH  19  22
ATOM     20  C   LIG    1       11.734  -9.200   0.939  0.00  0.00    +0.105 C 
ATOM     21  N   LIG    1       10.431  -9.090   0.282  0.00  0.00    -0.302 NA
ATOM     22  C   LIG    1        9.836  -7.747   0.436  0.00  0.00    +0.058 C 
ATOM     23  C   LIG    1       10.517  -6.700  -0.472  0.00  0.00    +0.019 C 
ATOM     24  C   LIG    1       10.575  -7.138  -1.933  0.00  0.00    +0.003 C 
ATOM     25  C   LIG    1       11.166  -8.537  -2.063  0.00  0.00    +0.015 C 
ATOM     26  C   LIG    1       10.486  -9.528  -1.119  0.00  0.00    +0.084 C 
ENDBRANCH  19  22
ENDBRANCH  18  19
ENDBRANCH   1  18
TORSDOF 4
