REMARK  Name = *****
REMARK                            x       y       z     vdW  Elec       q    Type
REMARK                         _______ _______ _______ _____ _____    ______ ____
ROOT
ATOM      1  O   LIG    1       10.880  -0.704  -1.003  0.00  0.00    -0.461 OA
ENDROOT
BRANCH   1   9
ATOM      2  C   LIG    1       13.793  -5.236  -1.714  0.00  0.00    +0.193 C 
ATOM      3  N   LIG    1       12.945  -3.958  -1.587  0.00  0.00    +0.247 N 
ATOM      4  C   LIG    1       13.426  -2.886  -2.602  0.00  0.00    +0.102 C 
ATOM      5  C   LIG    1       12.969  -3.400  -3.958  0.00  0.00    +0.201 C 
ATOM      6  C   LIG    1       11.746  -4.241  -3.688  0.00  0.00    +0.201 C 
ATOM      7  O   LIG    1       11.679  -3.031  -4.439  0.00  0.00    -0.357 OA
ATOM      8  C   LIG    1       12.760  -1.548  -2.252  0.00  0.00    +0.102 C 
ATOM      9  C   LIG    1       11.225  -1.608  -2.084  0.00  0.00    +0.187 C 
ATOM     10  C   LIG    1       10.630  -3.010  -1.781  0.00  0.00    +0.102 C 
ATOM     11  C   LIG    1       11.530  -4.190  -2.184  0.00  0.00    +0.102 C 
ATOM     12  C   LIG    1       13.000  -3.568  -0.118  0.00  0.00    +0.193 C 
ENDBRANCH   1   9
BRANCH   1  13
ATOM     13  C   LIG    1        9.627  -0.166  -1.032  0.00  0.00    +0.317 C 
ATOM     14  O   LIG    1        8.803  -0.375  -1.920  0.00  0.00    -0.250 OA
BRANCH  13  15
ATOM     15  C   LIG    1        9.362   0.645   0.246  0.00  0.00    +0.153 C 
BRANCH  15  16
ATOM     16  C   LIG    1        9.634   2.137   0.073  0.00  0.00    -0.032 A 
ATOM     17  C   LIG    1       10.583   2.781   0.887  0.00  0.00    +0.004 A 
ATOM     18  C   LIG    1       10.823   4.154   0.765  0.00  0.00    +0.000 A 
ATOM     19  C   LIG    1       10.121   4.902  -0.175  0.00  0.00    +0.000 A 
ATOM     20  C   LIG    1        9.177   4.280  -0.989  0.00  0.00    +0.000 A 
ATOM     21  C   LIG    1        8.932   2.908  -0.865  0.00  0.00    +0.004 A 
ENDBRANCH  15  16
BRANCH  15  22
ATOM     22  C   LIG    1        7.930   0.334   0.684  0.00  0.00    +0.175 C 
BRANCH  22  23
ATOM     23  O   LIG    1        7.709   0.736   2.032  0.00  0.00    -0.394 OA
ATOM     24  H   LIG    1        7.078   1.478   2.011  0.00  0.00    +0.209 HD
ENDBRANCH  22  23
ENDBRANCH  15  22
ENDBRANCH  13  15
ENDBRANCH   1  13
TORSDOF 6
