REMARK  Name = *****
REMARK                            x       y       z     vdW  Elec       q    Type
REMARK                         _______ _______ _______ _____ _____    ______ ____
ROOT
ATOM      1  C   LIG    1        4.123  -1.222  -0.469  0.00  0.00    +0.264 C 
ENDROOT
BRANCH   1   2
ATOM      2  O   LIG    1        4.471   0.126  -0.117  0.00  0.00    -0.486 OA
BRANCH   2   4
ATOM      3  C   LIG    1        2.051   0.802  -0.146  0.00  0.00    +0.162 A 
ATOM      4  C   LIG    1        3.434   1.030   0.021  0.00  0.00    +0.162 A 
ATOM      5  C   LIG    1        3.869   2.322   0.365  0.00  0.00    +0.049 A 
ATOM      6  C   LIG    1        2.961   3.368   0.549  0.00  0.00    +0.004 A 
ATOM      7  C   LIG    1        1.600   3.135   0.399  0.00  0.00    +0.004 A 
ATOM      8  C   LIG    1        1.150   1.861   0.054  0.00  0.00    +0.049 A 
BRANCH   3  10
ATOM      9  C   LIG    1        0.266  -0.657  -0.810  0.00  0.00    +0.277 C 
ATOM     10  O   LIG    1        1.634  -0.454  -0.493  0.00  0.00    -0.491 OA
ENDBRANCH   3  10
ENDBRANCH   2   4
ENDBRANCH   1   2
BRANCH   1  11
ATOM     11  C   LIG    1        5.374  -2.110  -0.571  0.00  0.00    +0.189 C 
BRANCH  11  12
ATOM     12  O   LIG    1        6.075  -2.123   0.677  0.00  0.00    -0.385 OA
ATOM     13  H   LIG    1        6.202  -1.189   0.927  0.00  0.00    +0.210 HD
ENDBRANCH  11  12
BRANCH  11  14
ATOM     14  C   LIG    1        4.994  -3.557  -0.925  0.00  0.00    +0.268 C 
BRANCH  14  15
ATOM     15  O   LIG    1        4.403  -3.593  -2.233  0.00  0.00    -0.448 OA
BRANCH  15  16
ATOM     16  C   LIG    1        4.925  -4.508  -3.086  0.00  0.00    +0.398 C 
ATOM     17  O   LIG    1        5.675  -5.424  -2.821  0.00  0.00    -0.227 OA
ATOM     18  N   LIG    1        4.512  -4.212  -4.344  0.00  0.00    -0.295 N 
ATOM     19  H   LIG    1        4.850  -4.772  -5.112  0.00  0.00    +0.148 HD
ATOM     20  H   LIG    1        3.888  -3.439  -4.494  0.00  0.00    +0.148 HD
ENDBRANCH  15  16
ENDBRANCH  14  15
ENDBRANCH  11  14
ENDBRANCH   1  11
TORSDOF 8
