REMARK  Name = *****
REMARK                            x       y       z     vdW  Elec       q    Type
REMARK                         _______ _______ _______ _____ _____    ______ ____
ROOT
ATOM      1  C   LIG    1        0.759  -2.349  -1.229  0.00  0.00    +0.231 A 
ATOM      2  C   LIG    1        2.063  -2.821  -1.255  0.00  0.00    +0.264 A 
ATOM      3  N   LIG    1        2.840  -2.917  -0.162  0.00  0.00    -0.187 NA
ATOM      4  C   LIG    1        2.462  -2.344   0.985  0.00  0.00    +0.203 A 
ATOM      5  N   LIG    1        1.310  -1.664   1.077  0.00  0.00    -0.204 NA
ATOM      6  C   LIG    1        0.481  -1.716   0.001  0.00  0.00    +0.188 A 
ENDROOT
BRANCH   4   7
ATOM      7  C   LIG    1        3.512  -2.293   2.057  0.00  0.00    +0.198 A 
ATOM      8  N   LIG    1        4.811  -2.392   1.648  0.00  0.00    -0.233 NA
ATOM      9  C   LIG    1        5.769  -2.228   2.579  0.00  0.00    +0.115 A 
ATOM     10  C   LIG    1        5.498  -1.988   3.901  0.00  0.00    +0.039 A 
ATOM     11  C   LIG    1        4.162  -1.940   4.230  0.00  0.00    +0.115 A 
ATOM     12  N   LIG    1        3.156  -2.083   3.341  0.00  0.00    -0.233 NA
ENDBRANCH   4   7
BRANCH   6  13
ATOM     13  N   LIG    1       -0.668  -0.874   0.208  0.00  0.00    -0.196 N 
ATOM     14  H   LIG    1       -0.939  -0.319  -0.589  0.00  0.00    +0.175 HD
BRANCH  13  15
ATOM     15  S   LIG    1       -1.989  -1.607   0.947  0.00  0.00    +0.074 S 
ATOM     16  O   LIG    1       -1.685  -1.962   2.279  0.00  0.00    -0.150 OA
ATOM     17  O   LIG    1       -2.492  -2.584  -0.009  0.00  0.00    -0.150 OA
BRANCH  15  18
ATOM     18  C   LIG    1       -3.212  -0.295   1.000  0.00  0.00    +0.109 A 
ATOM     19  C   LIG    1       -4.445  -0.388   0.345  0.00  0.00    +0.029 A 
ATOM     20  C   LIG    1       -5.450   0.577   0.572  0.00  0.00    +0.006 A 
ATOM     21  C   LIG    1       -5.238   1.658   1.448  0.00  0.00    -0.042 A 
ATOM     22  C   LIG    1       -3.974   1.729   2.067  0.00  0.00    +0.006 A 
ATOM     23  C   LIG    1       -2.969   0.770   1.858  0.00  0.00    +0.029 A 
BRANCH  21  24
ATOM     24  C   LIG    1       -6.333   2.693   1.804  0.00  0.00    -0.013 C 
ATOM     25  C   LIG    1       -7.340   2.965   0.663  0.00  0.00    +0.015 C 
ATOM     26  C   LIG    1       -5.697   4.060   2.163  0.00  0.00    +0.015 C 
ATOM     27  C   LIG    1       -7.143   2.188   3.018  0.00  0.00    +0.015 C 
ENDBRANCH  21  24
ENDBRANCH  15  18
ENDBRANCH  13  15
ENDBRANCH   6  13
BRANCH   1  28
ATOM     28  O   LIG    1       -0.280  -2.850  -1.993  0.00  0.00    -0.444 OA
BRANCH  28  30
ATOM     29  C   LIG    1       -0.582  -1.614  -4.223  0.00  0.00    +0.162 A 
ATOM     30  C   LIG    1       -0.714  -2.659  -3.298  0.00  0.00    +0.170 A 
ATOM     31  C   LIG    1       -1.604  -3.695  -3.699  0.00  0.00    +0.050 A 
ATOM     32  C   LIG    1       -2.331  -3.673  -4.911  0.00  0.00    +0.004 A 
ATOM     33  C   LIG    1       -2.267  -2.567  -5.737  0.00  0.00    +0.004 A 
ATOM     34  C   LIG    1       -1.397  -1.548  -5.385  0.00  0.00    +0.049 A 
BRANCH  29  36
ATOM     35  C   LIG    1        0.505   0.030  -3.005  0.00  0.00    +0.277 C 
ATOM     36  O   LIG    1        0.302  -0.578  -4.246  0.00  0.00    -0.491 OA
ENDBRANCH  29  36
ENDBRANCH  28  30
ENDBRANCH   1  28
BRANCH   2  37
ATOM     37  O   LIG    1        2.749  -3.016  -2.437  0.00  0.00    -0.471 OA
BRANCH  37  38
ATOM     38  C   LIG    1        4.210  -2.910  -2.286  0.00  0.00    +0.258 C 
BRANCH  38  39
ATOM     39  C   LIG    1        4.831  -4.199  -1.724  0.00  0.00    +0.197 C 
BRANCH  39  40
ATOM     40  O   LIG    1        4.325  -5.334  -2.418  0.00  0.00    -0.392 OA
ATOM     41  H   LIG    1        3.359  -5.296  -2.288  0.00  0.00    +0.209 HD
ENDBRANCH  39  40
ENDBRANCH  38  39
ENDBRANCH  37  38
ENDBRANCH   2  37
TORSDOF 12
