REMARK  Name = *****
REMARK                            x       y       z     vdW  Elec       q    Type
REMARK                         _______ _______ _______ _____ _____    ______ ____
ROOT
ATOM      1  C   LIG    1        7.674  -0.432   0.424  0.00  0.00    +0.169 C 
ENDROOT
BRANCH   1   5
ATOM      2  C   LIG    1        3.436  -0.669   1.470  0.00  0.00    +0.052 A 
ATOM      3  C   LIG    1        3.891   0.281   0.548  0.00  0.00    +0.019 A 
ATOM      4  C   LIG    1        5.250   0.352   0.211  0.00  0.00    +0.007 A 
ATOM      5  C   LIG    1        6.184  -0.533   0.784  0.00  0.00    -0.019 A 
ATOM      6  C   LIG    1        5.709  -1.470   1.720  0.00  0.00    +0.007 A 
ATOM      7  C   LIG    1        4.355  -1.541   2.057  0.00  0.00    +0.019 A 
BRANCH   2   9
ATOM      8  N   LIG    1        0.917  -0.830   2.082  0.00  0.00    -0.191 NA
ATOM      9  C   LIG    1        2.047  -0.752   1.807  0.00  0.00    +0.099 C 
ENDBRANCH   2   9
ENDBRANCH   1   5
BRANCH   1  10
ATOM     10  C   LIG    1        8.447   0.569   1.293  0.00  0.00    -0.019 A 
ATOM     11  C   LIG    1        9.096   1.673   0.711  0.00  0.00    +0.007 A 
ATOM     12  C   LIG    1        9.774   2.609   1.505  0.00  0.00    +0.019 A 
ATOM     13  C   LIG    1        9.835   2.452   2.894  0.00  0.00    +0.052 A 
ATOM     14  C   LIG    1        9.212   1.350   3.483  0.00  0.00    +0.019 A 
ATOM     15  C   LIG    1        8.522   0.426   2.692  0.00  0.00    +0.007 A 
BRANCH  13  16
ATOM     16  C   LIG    1       10.532   3.413   3.703  0.00  0.00    +0.099 C 
ATOM     17  N   LIG    1       11.088   4.196   4.357  0.00  0.00    -0.191 NA
ENDBRANCH  13  16
ENDBRANCH   1  10
BRANCH   1  18
ATOM     18  N   LIG    1        8.325  -1.758   0.363  0.00  0.00    -0.240 N 
ATOM     19  N   LIG    1        8.842  -2.371   1.456  0.00  0.00    -0.158 NA
ATOM     20  C   LIG    1        9.270  -3.526   0.945  0.00  0.00    +0.244 A 
ATOM     21  N   LIG    1        9.037  -3.692  -0.388  0.00  0.00    -0.223 NA
ATOM     22  C   LIG    1        8.438  -2.573  -0.728  0.00  0.00    +0.220 A 
ENDBRANCH   1  18
TORSDOF 5
