REMARK  Name = *****
REMARK                            x       y       z     vdW  Elec       q    Type
REMARK                         _______ _______ _______ _____ _____    ______ ____
ROOT
ATOM      1  C   LIG    1        0.689  -0.383   0.247  0.00  0.00    +0.008 C 
ATOM      2  C   LIG    1        2.069   0.156   0.642  0.00  0.00    -0.008 C 
ATOM      3  C   LIG    1        2.499  -0.159   2.092  0.00  0.00    +0.032 C 
ATOM      4  C   LIG    1        3.131  -1.587   2.374  0.00  0.00    +0.161 C 
ATOM      5  C   LIG    1        2.349  -2.539   3.320  0.00  0.00    +0.293 C 
ATOM      6  O   LIG    1        2.116  -2.003   4.620  0.00  0.00    -0.314 OA
ATOM      7  C   LIG    1        2.771  -0.776   4.908  0.00  0.00    +0.203 C 
ATOM      8  O   LIG    1        4.046  -0.496   4.301  0.00  0.00    -0.199 OA
ATOM      9  C   LIG    1        1.823   0.357   4.507  0.00  0.00    +0.068 C 
ATOM     10  C   LIG    1        3.006  -0.718   6.417  0.00  0.00    +0.077 C 
ATOM     11  O   LIG    1        3.041  -3.761   3.583  0.00  0.00    -0.309 OA
ATOM     12  C   LIG    1        3.530  -4.506   2.482  0.00  0.00    +0.316 C 
ATOM     13  C   LIG    1        3.236  -3.862   1.123  0.00  0.00    +0.061 C 
ATOM     14  C   LIG    1        3.904  -4.653  -0.015  0.00  0.00    +0.014 C 
ATOM     15  C   LIG    1        3.653  -2.362   1.108  0.00  0.00    +0.038 C 
ATOM     16  C   LIG    1        3.291  -1.791  -0.274  0.00  0.00    +0.007 C 
ATOM     17  O   LIG    1        4.339  -1.382   3.173  0.00  0.00    -0.220 OA
ATOM     18  C   LIG    1        1.363   0.229   3.059  0.00  0.00    +0.012 C 
ATOM     19  C   LIG    1        3.159  -0.292  -0.316  0.00  0.00    +0.004 C 
ENDROOT
BRANCH  12  20
ATOM     20  O   LIG    1        2.896  -5.799   2.541  0.00  0.00    -0.435 OA
BRANCH  20  21
ATOM     21  C   LIG    1        3.709  -6.882   2.602  0.00  0.00    +0.310 C 
ATOM     22  O   LIG    1        4.919  -6.893   2.405  0.00  0.00    -0.251 OA
BRANCH  21  23
ATOM     23  C   LIG    1        2.925  -8.100   3.023  0.00  0.00    +0.132 C 
BRANCH  23  24
ATOM     24  C   LIG    1        3.819  -9.327   3.209  0.00  0.00    +0.131 C 
BRANCH  24  25
ATOM     25  C   LIG    1        4.653  -9.294   4.471  0.00  0.00    +0.305 C 
ATOM     26  O   LIG    1        4.519 -10.065   5.405  0.00  0.00    -0.251 OA
BRANCH  25  27
ATOM     27  O   LIG    1        5.637  -8.355   4.436  0.00  0.00    -0.481 OA
ATOM     28  H   LIG    1        5.698  -7.812   3.597  0.00  0.00    +0.295 HD
ENDBRANCH  25  27
ENDBRANCH  24  25
ENDBRANCH  23  24
ENDBRANCH  21  23
ENDBRANCH  20  21
ENDBRANCH  12  20
TORSDOF 6
