REMARK  Name = *****
REMARK                            x       y       z     vdW  Elec       q    Type
REMARK                         _______ _______ _______ _____ _____    ______ ____
ROOT
ATOM      1  C   LIG    1        6.970  -2.189  -3.676  0.00  0.00    -0.000 C 
ENDROOT
BRANCH   1   2
ATOM      2  C   LIG    1        6.429  -1.425  -2.466  0.00  0.00    +0.000 C 
BRANCH   2   3
ATOM      3  C   LIG    1        4.899  -1.426  -2.444  0.00  0.00    +0.005 C 
BRANCH   3   4
ATOM      4  C   LIG    1        4.359  -0.657  -1.234  0.00  0.00    +0.051 C 
BRANCH   4   5
ATOM      5  C   LIG    1        2.829  -0.674  -1.218  0.00  0.00    +0.132 C 
BRANCH   5   7
ATOM      6  C   LIG    1        0.687   0.041  -0.188  0.00  0.00    +0.192 C 
ATOM      7  N   LIG    1        2.213   0.155  -0.078  0.00  0.00    +0.237 N 
ATOM      8  C   LIG    1        2.628  -0.372   1.290  0.00  0.00    +0.192 C 
ATOM      9  C   LIG    1        2.582   1.630  -0.193  0.00  0.00    +0.192 C 
ENDBRANCH   5   7
ENDBRANCH   4   5
ENDBRANCH   3   4
ENDBRANCH   2   3
ENDBRANCH   1   2
BRANCH   1  10
ATOM     10  C   LIG    1        8.499  -2.199  -3.680  0.00  0.00    -0.000 C 
BRANCH  10  11
ATOM     11  C   LIG    1        9.055  -2.961  -4.884  0.00  0.00    +0.000 C 
BRANCH  11  12
ATOM     12  C   LIG    1       10.586  -2.965  -4.870  0.00  0.00    +0.005 C 
BRANCH  12  13
ATOM     13  C   LIG    1       11.144  -3.726  -6.075  0.00  0.00    +0.051 C 
BRANCH  13  14
ATOM     14  C   LIG    1       12.676  -3.764  -6.053  0.00  0.00    +0.132 C 
BRANCH  14  15
ATOM     15  N   LIG    1       13.288  -4.476  -7.275  0.00  0.00    +0.237 N 
ATOM     16  C   LIG    1       12.938  -3.756  -8.574  0.00  0.00    +0.192 C 
ATOM     17  C   LIG    1       12.849  -5.935  -7.356  0.00  0.00    +0.192 C 
ATOM     18  C   LIG    1       14.816  -4.458  -7.125  0.00  0.00    +0.192 C 
ENDBRANCH  14  15
ENDBRANCH  13  14
ENDBRANCH  12  13
ENDBRANCH  11  12
ENDBRANCH  10  11
ENDBRANCH   1  10
TORSDOF 11
