REMARK  Name = *****
REMARK                            x       y       z     vdW  Elec       q    Type
REMARK                         _______ _______ _______ _____ _____    ______ ____
ROOT
ATOM      1  C   LIG    1        6.280   0.076  -0.203  0.00  0.00    +0.162 A 
ATOM      2  C   LIG    1        5.499  -0.093   0.951  0.00  0.00    +0.162 A 
ATOM      3  C   LIG    1        5.303  -1.391   1.460  0.00  0.00    +0.054 A 
ATOM      4  C   LIG    1        5.921  -2.517   0.879  0.00  0.00    -0.023 A 
ATOM      5  C   LIG    1        5.837  -3.875   1.563  0.00  0.00    +0.091 C 
ATOM      6  N   LIG    1        6.684  -4.935   1.000  0.00  0.00    -0.295 NA
ATOM      7  C   LIG    1        7.901  -4.466   0.337  0.00  0.00    +0.089 C 
ATOM      8  C   LIG    1        7.608  -3.433  -0.753  0.00  0.00    +0.051 C 
ATOM      9  C   LIG    1        6.989  -5.947   2.025  0.00  0.00    +0.092 C 
ATOM     10  C   LIG    1        5.829  -6.245   3.012  0.00  0.00    +0.044 C 
ATOM     11  C   LIG    1        4.451  -5.887   2.364  0.00  0.00    +0.182 C 
ATOM     12  C   LIG    1        4.430  -4.504   1.647  0.00  0.00    +0.068 C 
ATOM     13  C   LIG    1        6.764  -2.309  -0.220  0.00  0.00    -0.038 A 
ATOM     14  C   LIG    1        6.877  -1.038  -0.796  0.00  0.00    +0.053 A 
ENDROOT
BRANCH   1  16
ATOM     15  C   LIG    1        7.620   1.629  -1.417  0.00  0.00    +0.277 C 
ATOM     16  O   LIG    1        6.412   1.325  -0.740  0.00  0.00    -0.491 OA
ENDBRANCH   1  16
BRANCH   2  17
ATOM     17  O   LIG    1        4.904   0.896   1.701  0.00  0.00    -0.491 OA
ATOM     18  C   LIG    1        5.122   2.245   1.294  0.00  0.00    +0.277 C 
ENDBRANCH   2  17
BRANCH  10  19
ATOM     19  C   LIG    1        5.998  -5.595   4.433  0.00  0.00    +0.011 C 
BRANCH  19  20
ATOM     20  C   LIG    1        7.331  -5.858   5.195  0.00  0.00    -0.017 C 
ATOM     21  C   LIG    1        7.633  -7.338   5.433  0.00  0.00    +0.007 C 
ATOM     22  C   LIG    1        7.353  -5.145   6.559  0.00  0.00    +0.007 C 
ENDBRANCH  19  20
ENDBRANCH  10  19
BRANCH  11  23
ATOM     23  O   LIG    1        4.117  -6.947   1.417  0.00  0.00    -0.460 OA
BRANCH  23  24
ATOM     24  C   LIG    1        2.790  -7.136   1.131  0.00  0.00    +0.325 C 
ATOM     25  O   LIG    1        1.878  -6.536   1.665  0.00  0.00    -0.249 OA
BRANCH  24  26
ATOM     26  C   LIG    1        2.568  -8.246   0.057  0.00  0.00    +0.163 C 
BRANCH  26  27
ATOM     27  C   LIG    1        3.753  -8.419  -0.922  0.00  0.00    +0.011 C 
ATOM     28  C   LIG    1        4.038  -7.151  -1.734  0.00  0.00    +0.009 C 
ATOM     29  C   LIG    1        3.553  -9.590  -1.895  0.00  0.00    +0.009 C 
ENDBRANCH  26  27
BRANCH  26  30
ATOM     30  N   LIG    1        1.300  -7.984  -0.675  0.00  0.00    -0.318 NA
ATOM     31  H   LIG    1        0.556  -7.856   0.015  0.00  0.00    +0.119 HD
ATOM     32  H   LIG    1        1.372  -7.076  -1.137  0.00  0.00    +0.119 HD
ENDBRANCH  26  30
ENDBRANCH  24  26
ENDBRANCH  23  24
ENDBRANCH  11  23
TORSDOF 9
