REMARK  Name = *****
REMARK                            x       y       z     vdW  Elec       q    Type
REMARK                         _______ _______ _______ _____ _____    ______ ____
ROOT
ATOM      1  C   LIG    1        2.846   2.630   2.776  0.00  0.00    +0.165 C 
ENDROOT
BRANCH   1   4
ATOM      2  C   LIG    1        3.142  -1.133   3.694  0.00  0.00    +0.162 C 
ATOM      3  N   LIG    1        3.424   0.199   3.132  0.00  0.00    -0.288 N 
ATOM      4  C   LIG    1        2.829   1.339   3.641  0.00  0.00    +0.237 C 
ATOM      5  O   LIG    1        2.230   1.321   4.723  0.00  0.00    -0.274 OA
ATOM      6  C   LIG    1        4.091   0.083   1.844  0.00  0.00    +0.109 C 
ATOM      7  C   LIG    1        4.591  -1.351   1.802  0.00  0.00    +0.021 C 
ATOM      8  C   LIG    1        3.480  -2.089   2.540  0.00  0.00    +0.033 C 
BRANCH   2  12
ATOM      9  N   LIG    1        4.870  -0.692   5.424  0.00  0.00    -0.328 N 
ATOM     10  H   LIG    1        4.830   0.291   5.161  0.00  0.00    +0.145 HD
ATOM     11  H   LIG    1        5.270  -0.921   6.324  0.00  0.00    +0.145 HD
ATOM     12  C   LIG    1        3.927  -1.555   4.952  0.00  0.00    +0.231 C 
ATOM     13  O   LIG    1        3.765  -2.648   5.492  0.00  0.00    -0.274 OA
ENDBRANCH   2  12
ENDBRANCH   1   4
BRANCH   1  14
ATOM     14  N   LIG    1        1.438   3.063   2.609  0.00  0.00    -0.302 N 
ATOM     15  H   LIG    1        0.901   3.173   3.467  0.00  0.00    +0.149 HD
ATOM     16  C   LIG    1        0.785   2.970   1.396  0.00  0.00    +0.234 C 
ATOM     17  O   LIG    1        1.381   2.756   0.346  0.00  0.00    -0.274 OA
BRANCH  16  18
ATOM     18  C   LIG    1       -0.740   3.256   1.451  0.00  0.00    +0.159 C 
ATOM     19  N   LIG    1       -0.999   4.659   1.369  0.00  0.00    -0.304 N 
ATOM     20  H   LIG    1       -0.803   5.362   2.061  0.00  0.00    +0.149 HD
ATOM     21  C   LIG    1       -1.320   5.065   0.084  0.00  0.00    +0.214 C 
ATOM     22  O   LIG    1       -1.465   6.244  -0.275  0.00  0.00    -0.276 OA
ATOM     23  C   LIG    1       -1.466   3.827  -0.790  0.00  0.00    +0.098 C 
ATOM     24  C   LIG    1       -1.477   2.693   0.232  0.00  0.00    +0.041 C 
ENDBRANCH  16  18
ENDBRANCH   1  14
BRANCH   1  25
ATOM     25  C   LIG    1        3.659   3.743   3.440  0.00  0.00    +0.088 C 
BRANCH  25  26
ATOM     26  C   LIG    1        5.105   3.420   3.588  0.00  0.00    +0.061 A 
ATOM     27  N   LIG    1        5.514   2.366   4.374  0.00  0.00    -0.241 NA
ATOM     28  C   LIG    1        6.826   2.378   4.326  0.00  0.00    +0.196 A 
ATOM     29  N   LIG    1        7.288   3.389   3.533  0.00  0.00    -0.351 N 
ATOM     30  H   LIG    1        8.259   3.601   3.349  0.00  0.00    +0.166 HD
ATOM     31  C   LIG    1        6.200   4.064   3.052  0.00  0.00    +0.107 A 
ENDBRANCH  25  26
ENDBRANCH   1  25
TORSDOF 6
