REMARK  Name = *****
REMARK                            x       y       z     vdW  Elec       q    Type
REMARK                         _______ _______ _______ _____ _____    ______ ____
ROOT
ATOM      1  C   LIG    1       -2.564  -3.020   0.152  0.00  0.00    +0.169 C 
ATOM      2  C   LIG    1       -3.876  -2.136   0.055  0.00  0.00    +0.175 C 
ATOM      3  C   LIG    1       -4.319  -1.598   1.472  0.00  0.00    +0.169 C 
ATOM      4  C   LIG    1       -3.166  -0.640   1.939  0.00  0.00    +0.084 C 
ATOM      5  C   LIG    1       -1.749  -1.227   1.812  0.00  0.00    +0.042 C 
ATOM      6  C   LIG    1       -1.468  -1.942   0.474  0.00  0.00    +0.084 C 
ENDROOT
BRANCH   4   7
ATOM      7  N   LIG    1       -3.319  -0.093   3.284  0.00  0.00    -0.325 NA
ATOM      8  H   LIG    1       -3.883  -0.758   3.819  0.00  0.00    +0.118 HD
ATOM      9  H   LIG    1       -2.429  -0.102   3.785  0.00  0.00    +0.118 HD
ENDBRANCH   4   7
BRANCH   6  10
ATOM     10  N   LIG    1       -0.105  -2.455   0.445  0.00  0.00    -0.325 NA
ATOM     11  H   LIG    1        0.262  -2.505   1.397  0.00  0.00    +0.118 HD
ATOM     12  H   LIG    1       -0.122  -3.426   0.124  0.00  0.00    +0.118 HD
ENDBRANCH   6  10
BRANCH   2  13
ATOM     13  O   LIG    1       -4.887  -2.803  -0.645  0.00  0.00    -0.387 OA
ATOM     14  H   LIG    1       -5.286  -3.410  -0.009  0.00  0.00    +0.210 HD
ENDBRANCH   2  13
BRANCH   1  15
ATOM     15  O   LIG    1       -2.435  -4.105   1.139  0.00  0.00    -0.342 OA
BRANCH  15  18
ATOM     16  C   LIG    1       -1.464  -6.892   2.344  0.00  0.00    +0.138 C 
ATOM     17  O   LIG    1       -2.811  -6.358   2.108  0.00  0.00    -0.345 OA
ATOM     18  C   LIG    1       -3.010  -5.428   0.939  0.00  0.00    +0.268 C 
ATOM     19  C   LIG    1       -2.507  -6.271  -0.273  0.00  0.00    +0.107 C 
ATOM     20  C   LIG    1       -0.986  -6.401  -0.189  0.00  0.00    +0.026 C 
ATOM     21  C   LIG    1       -0.476  -6.399   1.262  0.00  0.00    +0.035 C 
BRANCH  19  22
ATOM     22  N   LIG    1       -2.956  -5.973  -1.639  0.00  0.00    -0.323 NA
ATOM     23  H   LIG    1       -2.291  -5.403  -2.155  0.00  0.00    +0.119 HD
ATOM     24  H   LIG    1       -3.861  -5.510  -1.658  0.00  0.00    +0.119 HD
ENDBRANCH  19  22
BRANCH  16  25
ATOM     25  C   LIG    1       -1.286  -8.495   2.777  0.00  0.00    +0.079 C 
ATOM     26  C   LIG    1       -2.332  -8.995   3.801  0.00  0.00    +0.026 C 
BRANCH  25  28
ATOM     27  C   LIG    1        0.463 -10.121   3.708  0.00  0.00    +0.101 C 
ATOM     28  N   LIG    1        0.085  -8.743   3.352  0.00  0.00    -0.314 NA
ATOM     29  H   LIG    1        0.183  -8.180   4.197  0.00  0.00    +0.122 HD
ENDBRANCH  25  28
ENDBRANCH  16  25
ENDBRANCH  15  18
ENDBRANCH   1  15
BRANCH   3  30
ATOM     30  O   LIG    1       -4.562  -2.784   2.217  0.00  0.00    -0.341 OA
BRANCH  30  31
ATOM     31  C   LIG    1       -5.172  -2.830   3.486  0.00  0.00    +0.281 C 
ATOM     32  C   LIG    1       -6.688  -2.511   3.562  0.00  0.00    +0.190 C 
ATOM     33  C   LIG    1       -7.084  -1.236   4.410  0.00  0.00    +0.121 C 
ATOM     34  C   LIG    1       -6.152  -1.054   5.680  0.00  0.00    +0.104 C 
ATOM     35  C   LIG    1       -5.338   0.259   5.794  0.00  0.00    +0.045 C 
ATOM     36  C   LIG    1       -5.147  -2.222   5.762  0.00  0.00    +0.199 C 
ATOM     37  O   LIG    1       -4.398  -2.281   4.547  0.00  0.00    -0.346 OA
BRANCH  33  38
ATOM     38  N   LIG    1       -7.186  -0.099   3.449  0.00  0.00    -0.311 NA
ATOM     39  H   LIG    1       -7.716  -0.457   2.658  0.00  0.00    +0.122 HD
ATOM     40  C   LIG    1       -7.840   1.099   3.956  0.00  0.00    +0.101 C 
ENDBRANCH  33  38
BRANCH  32  41
ATOM     41  O   LIG    1       -7.379  -2.514   2.310  0.00  0.00    -0.385 OA
ATOM     42  H   LIG    1       -6.992  -3.249   1.787  0.00  0.00    +0.210 HD
ENDBRANCH  32  41
BRANCH  34  43
ATOM     43  O   LIG    1       -6.993  -1.089   6.840  0.00  0.00    -0.385 OA
ATOM     44  H   LIG    1       -7.507  -0.253   6.833  0.00  0.00    +0.210 HD
ENDBRANCH  34  43
ENDBRANCH  30  31
ENDBRANCH   3  30
TORSDOF 13
