REMARK  Name = *****
REMARK                            x       y       z     vdW  Elec       q    Type
REMARK                         _______ _______ _______ _____ _____    ______ ____
ROOT
ATOM      1  C   LIG    1        5.135   2.016  -0.897  0.00  0.00    +0.138 C 
ATOM      2  N   LIG    1        6.157   2.719  -0.271  0.00  0.00    -0.263 N 
ATOM      3  C   LIG    1        7.388   2.106   0.027  0.00  0.00    +0.269 C 
ATOM      4  O   LIG    1        8.324   2.658   0.595  0.00  0.00    -0.267 OA
ATOM      5  C   LIG    1        7.544   0.709  -0.415  0.00  0.00    +0.100 A 
ATOM      6  C   LIG    1        6.465   0.111  -1.056  0.00  0.00    +0.081 A 
ATOM      7  C   LIG    1        6.573  -1.218  -1.484  0.00  0.00    +0.029 A 
ATOM      8  C   LIG    1        7.749  -1.942  -1.284  0.00  0.00    +0.005 A 
ATOM      9  C   LIG    1        8.829  -1.333  -0.652  0.00  0.00    +0.039 A 
ATOM     10  C   LIG    1        8.723  -0.012  -0.220  0.00  0.00    +0.138 A 
ATOM     11  F   LIG    1        9.789   0.531   0.384  0.00  0.00    -0.205 F 
ATOM     12  N   LIG    1        5.260   0.776  -1.278  0.00  0.00    -0.231 NA
ENDROOT
BRANCH   2  13
ATOM     13  C   LIG    1        6.035   4.102   0.059  0.00  0.00    +0.051 A 
ATOM     14  C   LIG    1        5.794   5.054  -0.941  0.00  0.00    +0.026 A 
ATOM     15  C   LIG    1        5.715   6.410  -0.618  0.00  0.00    +0.002 A 
ATOM     16  C   LIG    1        5.876   6.825   0.703  0.00  0.00    +0.000 A 
ATOM     17  C   LIG    1        6.110   5.885   1.705  0.00  0.00    +0.002 A 
ATOM     18  C   LIG    1        6.197   4.529   1.384  0.00  0.00    +0.026 A 
ENDBRANCH   2  13
BRANCH   1  19
ATOM     19  C   LIG    1        3.734   2.667  -1.095  0.00  0.00    +0.138 C 
BRANCH  19  21
ATOM     20  C   LIG    1        2.937   1.830   1.189  0.00  0.00    +0.006 C 
ATOM     21  C   LIG    1        2.670   1.869  -0.313  0.00  0.00    +0.027 C 
ENDBRANCH  19  21
BRANCH  19  22
ATOM     22  N   LIG    1        3.442   2.621  -2.532  0.00  0.00    -0.317 N 
ATOM     23  H   LIG    1        3.353   1.690  -2.934  0.00  0.00    +0.148 HD
BRANCH  22  24
ATOM     24  C   LIG    1        2.603   3.564  -3.102  0.00  0.00    +0.150 A 
ATOM     25  C   LIG    1        1.847   3.298  -4.264  0.00  0.00    +0.147 A 
ATOM     26  C   LIG    1        1.102   4.346  -4.778  0.00  0.00    +0.163 A 
ATOM     27  N   LIG    1        0.480   3.841  -5.882  0.00  0.00    -0.329 N 
ATOM     28  H   LIG    1       -0.137   4.357  -6.491  0.00  0.00    +0.168 HD
ATOM     29  C   LIG    1        0.843   2.526  -5.993  0.00  0.00    +0.198 A 
ATOM     30  N   LIG    1        1.006   5.597  -4.308  0.00  0.00    -0.216 NA
ATOM     31  C   LIG    1        1.754   5.739  -3.197  0.00  0.00    +0.225 A 
ATOM     32  N   LIG    1        1.675   2.163  -5.038  0.00  0.00    -0.231 NA
ATOM     33  N   LIG    1        2.524   4.817  -2.578  0.00  0.00    -0.219 NA
ENDBRANCH  22  24
ENDBRANCH  19  22
ENDBRANCH   1  19
TORSDOF 5
