REMARK  Name = *****
REMARK                            x       y       z     vdW  Elec       q    Type
REMARK                         _______ _______ _______ _____ _____    ______ ____
ROOT
ATOM      1  C   LIG    1        3.250   0.381   1.488  0.00  0.00    +0.049 C 
ATOM      2  C   LIG    1        2.507  -0.238   0.320  0.00  0.00    +0.219 C 
ENDROOT
BRANCH   2   3
ATOM      3  O   LIG    1        1.194  -0.619   0.758  0.00  0.00    -0.381 OA
ATOM      4  H   LIG    1        0.613  -0.559  -0.025  0.00  0.00    +0.210 HD
ENDBRANCH   2   3
BRANCH   2   5
ATOM      5  C   LIG    1        3.242  -1.482  -0.175  0.00  0.00    +0.333 C 
ATOM      6  O   LIG    1        4.259  -1.477  -0.849  0.00  0.00    -0.248 OA
BRANCH   5   7
ATOM      7  O   LIG    1        2.628  -2.619   0.245  0.00  0.00    -0.479 OA
ATOM      8  H   LIG    1        1.852  -2.361   0.795  0.00  0.00    +0.295 HD
ENDBRANCH   5   7
ENDBRANCH   2   5
TORSDOF 3
