REMARK  Name = *****
REMARK                            x       y       z     vdW  Elec       q    Type
REMARK                         _______ _______ _______ _____ _____    ______ ____
ROOT
ATOM      1  C   LIG    1        3.114  -1.120   0.652  0.00  0.00    +0.104 C 
ATOM      2  C   LIG    1        2.196  -2.334   0.505  0.00  0.00    +0.152 C 
ATOM      3  O   LIG    1        1.043  -2.319   0.952  0.00  0.00    -0.296 OA
ATOM      4  C   LIG    1        2.686  -3.563  -0.235  0.00  0.00    +0.070 C 
ATOM      5  C   LIG    1        2.290  -3.505  -1.706  0.00  0.00    +0.017 C 
ATOM      6  C   LIG    1        4.181  -3.719  -0.039  0.00  0.00    +0.115 C 
ATOM      7  N   LIG    1        4.889  -2.512  -0.371  0.00  0.00    -0.314 N 
ATOM      8  H   LIG    1        5.840  -2.559  -0.724  0.00  0.00    +0.149 HD
ATOM      9  C   LIG    1        4.482  -1.262  -0.008  0.00  0.00    +0.226 C 
ATOM     10  O   LIG    1        5.242  -0.313  -0.191  0.00  0.00    -0.275 OA
ENDROOT
BRANCH   1  12
ATOM     11  C   LIG    1        2.089   0.049  -1.434  0.00  0.00    +0.005 C 
ATOM     12  C   LIG    1        2.400   0.129   0.057  0.00  0.00    +0.020 C 
ENDBRANCH   1  12
BRANCH   1  13
ATOM     13  C   LIG    1        3.329  -0.839   2.169  0.00  0.00    +0.020 C 
ATOM     14  C   LIG    1        4.018  -1.945   2.959  0.00  0.00    +0.005 C 
ENDBRANCH   1  13
TORSDOF 2
