REMARK  Name = *****
REMARK                            x       y       z     vdW  Elec       q    Type
REMARK                         _______ _______ _______ _____ _____    ______ ____
ROOT
ATOM      1  C   LIG    1        4.936   1.926  -1.746  0.00  0.00    +0.134 C 
ENDROOT
BRANCH   1   2
ATOM      2  C   LIG    1        4.434   0.967  -0.633  0.00  0.00    +0.338 C 
BRANCH   2   3
ATOM      3  O   LIG    1        3.030   0.770  -0.767  0.00  0.00    -0.216 OA
BRANCH   3   5
ATOM      4  O   LIG    1        3.394  -1.240   0.203  0.00  0.00    +0.093 OA
ATOM      5  N   LIG    1        2.558  -0.467  -0.265  0.00  0.00    +0.284 N 
ATOM      6  O   LIG    1        1.342  -0.603  -0.411  0.00  0.00    -0.534 OA
ENDBRANCH   3   5
ENDBRANCH   2   3
ENDBRANCH   1   2
BRANCH   1   7
ATOM      7  C   LIG    1        6.473   2.135  -1.605  0.00  0.00    +0.338 C 
BRANCH   7   8
ATOM      8  O   LIG    1        6.778   2.700  -0.328  0.00  0.00    -0.216 OA
BRANCH   8   9
ATOM      9  N   LIG    1        8.162   2.948  -0.150  0.00  0.00    +0.284 N 
ATOM     10  O   LIG    1        8.912   2.625  -1.075  0.00  0.00    -0.534 OA
ATOM     11  O   LIG    1        8.423   3.470   0.932  0.00  0.00    +0.093 OA
ENDBRANCH   8   9
ENDBRANCH   7   8
ENDBRANCH   1   7
BRANCH   1  12
ATOM     12  C   LIG    1        4.252   3.317  -1.647  0.00  0.00    +0.338 C 
BRANCH  12  13
ATOM     13  O   LIG    1        2.840   3.269  -1.835  0.00  0.00    -0.216 OA
BRANCH  13  14
ATOM     14  N   LIG    1        2.111   3.706  -0.698  0.00  0.00    +0.284 N 
ATOM     15  O   LIG    1        2.659   3.594   0.394  0.00  0.00    -0.534 OA
ATOM     16  O   LIG    1        0.976   4.092  -0.981  0.00  0.00    +0.093 OA
ENDBRANCH  13  14
ENDBRANCH  12  13
ENDBRANCH   1  12
BRANCH   1  17
ATOM     17  C   LIG    1        4.634   1.267  -3.121  0.00  0.00    +0.338 C 
BRANCH  17  18
ATOM     18  O   LIG    1        5.035   2.141  -4.174  0.00  0.00    -0.216 OA
BRANCH  18  19
ATOM     19  N   LIG    1        4.741   1.604  -5.452  0.00  0.00    +0.284 N 
ATOM     20  O   LIG    1        4.636   2.473  -6.316  0.00  0.00    -0.534 OA
ATOM     21  O   LIG    1        4.660   0.381  -5.532  0.00  0.00    +0.093 OA
ENDBRANCH  18  19
ENDBRANCH  17  18
ENDBRANCH   1  17
TORSDOF 12
