REMARK  Name = *****
REMARK                            x       y       z     vdW  Elec       q    Type
REMARK                         _______ _______ _______ _____ _____    ______ ____
ROOT
ATOM      1  C   LIG    1        5.211  -4.218   1.056  0.00  0.00    +0.162 C 
ENDROOT
BRANCH   1   2
ATOM      2  C   LIG    1        6.650  -4.556   0.687  0.00  0.00    -0.007 A 
ATOM      3  C   LIG    1        7.665  -4.696   1.678  0.00  0.00    +0.009 A 
ATOM      4  C   LIG    1        9.002  -4.837   1.228  0.00  0.00    +0.071 A 
ATOM      5  C   LIG    1       10.028  -4.897   2.160  0.00  0.00    +0.032 A 
ATOM      6  C   LIG    1        9.781  -4.870   3.532  0.00  0.00    +0.048 A 
ATOM      7  C   LIG    1        8.474  -4.816   3.996  0.00  0.00    +0.121 A 
ATOM      8  N   LIG    1        9.338  -4.914  -0.067  0.00  0.00    -0.255 NA
ATOM      9  C   LIG    1        8.348  -4.888  -0.975  0.00  0.00    +0.112 A 
ATOM     10  C   LIG    1        7.429  -4.711   3.078  0.00  0.00    +0.056 A 
ATOM     11  C   LIG    1        7.016  -4.718  -0.656  0.00  0.00    +0.026 A 
BRANCH   7  12
ATOM     12  O   LIG    1        8.328  -4.827   5.355  0.00  0.00    -0.495 OA
ATOM     13  C   LIG    1        7.149  -5.468   5.832  0.00  0.00    +0.277 C 
ENDBRANCH   7  12
ENDBRANCH   1   2
BRANCH   1  17
ATOM     14  C   LIG    1        2.802  -1.162  -1.074  0.00  0.00    +0.028 C 
ATOM     15  C   LIG    1        3.984  -0.873  -0.117  0.00  0.00    -0.000 C 
ATOM     16  C   LIG    1        5.052  -1.975  -0.228  0.00  0.00    +0.026 C 
ATOM     17  C   LIG    1        4.406  -3.356   0.022  0.00  0.00    +0.090 C 
ATOM     18  N   LIG    1        2.954  -3.217   0.392  0.00  0.00    -0.296 NA
ATOM     19  C   LIG    1        2.791  -2.314   1.555  0.00  0.00    +0.085 C 
ATOM     20  C   LIG    1        3.438  -0.942   1.320  0.00  0.00    +0.019 C 
ATOM     21  C   LIG    1        2.262  -2.587  -0.771  0.00  0.00    +0.092 C 
BRANCH  14  23
ATOM     22  C   LIG    1        2.651  -0.064  -3.336  0.00  0.00    +0.004 C 
ATOM     23  C   LIG    1        3.182  -0.989  -2.527  0.00  0.00    -0.029 C 
ENDBRANCH  14  23
ENDBRANCH   1  17
BRANCH   1  24
ATOM     24  O   LIG    1        4.509  -5.443   1.282  0.00  0.00    -0.386 OA
ATOM     25  H   LIG    1        3.563  -5.203   1.201  0.00  0.00    +0.210 HD
ENDBRANCH   1  24
TORSDOF 5
