REMARK  Name = *****
REMARK                            x       y       z     vdW  Elec       q    Type
REMARK                         _______ _______ _______ _____ _____    ______ ____
ROOT
ATOM      1  C   LIG    1        4.702   0.834   0.687  0.00  0.00    +0.182 C 
ENDROOT
BRANCH   1   2
ATOM      2  C   LIG    1        5.359   1.742   1.739  0.00  0.00    +0.338 C 
ATOM      3  O   LIG    1        4.807   2.700   2.264  0.00  0.00    -0.248 OA
BRANCH   2   4
ATOM      4  O   LIG    1        6.622   1.371   2.045  0.00  0.00    -0.479 OA
ATOM      5  H   LIG    1        6.921   0.597   1.520  0.00  0.00    +0.295 HD
ENDBRANCH   2   4
ENDBRANCH   1   2
BRANCH   1   6
ATOM      6  O   LIG    1        5.597  -0.255   0.361  0.00  0.00    -0.377 OA
ATOM      7  H   LIG    1        5.513  -0.919   1.089  0.00  0.00    +0.211 HD
ENDBRANCH   1   6
BRANCH   1   8
ATOM      8  C   LIG    1        3.341   0.309   1.210  0.00  0.00    +0.167 C 
BRANCH   8  10
ATOM      9  O   LIG    1        4.477  -1.176   2.725  0.00  0.00    -0.251 OA
ATOM     10  C   LIG    1        3.493  -0.518   2.452  0.00  0.00    +0.308 C 
BRANCH  10  11
ATOM     11  O   LIG    1        2.386  -0.527   3.217  0.00  0.00    -0.480 OA
ATOM     12  H   LIG    1        2.595  -1.078   4.001  0.00  0.00    +0.295 HD
ENDBRANCH  10  11
ENDBRANCH   8  10
ENDBRANCH   1   8
BRANCH   1  13
ATOM     13  C   LIG    1        4.428   1.631  -0.596  0.00  0.00    +0.167 C 
BRANCH  13  14
ATOM     14  C   LIG    1        5.616   2.262  -1.281  0.00  0.00    +0.308 C 
ATOM     15  O   LIG    1        5.528   3.320  -1.891  0.00  0.00    -0.251 OA
BRANCH  14  16
ATOM     16  O   LIG    1        6.752   1.538  -1.284  0.00  0.00    -0.480 OA
ATOM     17  H   LIG    1        6.666   0.643  -0.891  0.00  0.00    +0.295 HD
ENDBRANCH  14  16
ENDBRANCH  13  14
ENDBRANCH   1  13
TORSDOF 9
