REMARK  Name = *****
REMARK                            x       y       z     vdW  Elec       q    Type
REMARK                         _______ _______ _______ _____ _____    ______ ____
ROOT
ATOM      1  C   LIG    1        5.522  -2.204  -2.688  0.00  0.00    +0.162 C 
ENDROOT
BRANCH   1   7
ATOM      2  C   LIG    1        9.973  -1.944   2.124  0.00  0.00    +0.007 C 
ATOM      3  C   LIG    1        8.720  -2.075   1.264  0.00  0.00    -0.010 C 
ATOM      4  C   LIG    1        8.934  -2.710  -0.178  0.00  0.00    +0.037 C 
ATOM      5  C   LIG    1        7.733  -3.575  -0.689  0.00  0.00    +0.185 C 
ATOM      6  N   LIG    1        6.469  -2.811  -0.276  0.00  0.00    -0.287 N 
ATOM      7  C   LIG    1        5.547  -2.104  -1.099  0.00  0.00    +0.235 C 
ATOM      8  O   LIG    1        4.657  -1.435  -0.544  0.00  0.00    -0.274 OA
ATOM      9  C   LIG    1        6.341  -2.528   1.235  0.00  0.00    +0.109 C 
ATOM     10  C   LIG    1        7.616  -2.745   2.059  0.00  0.00    +0.022 C 
BRANCH   5  11
ATOM     11  C   LIG    1        7.952  -4.559  -1.971  0.00  0.00    +0.326 C 
ATOM     12  O   LIG    1        8.992  -5.082  -2.359  0.00  0.00    -0.249 OA
BRANCH  11  13
ATOM     13  O   LIG    1        6.814  -5.007  -2.511  0.00  0.00    -0.479 OA
ATOM     14  H   LIG    1        7.006  -5.780  -3.098  0.00  0.00    +0.295 HD
ENDBRANCH  11  13
ENDBRANCH   5  11
ENDBRANCH   1   7
BRANCH   1  15
ATOM     15  N   LIG    1        4.228  -2.672  -3.276  0.00  0.00    -0.178 NA
ATOM     16  H   LIG    1        3.579  -1.950  -3.569  0.00  0.00    +0.149 HD
BRANCH  15  17
ATOM     17  S   LIG    1        3.455  -4.092  -2.822  0.00  0.00    +0.061 S 
ATOM     18  O   LIG    1        4.356  -5.124  -2.679  0.00  0.00    -0.153 OA
ATOM     19  O   LIG    1        2.339  -4.224  -3.820  0.00  0.00    -0.153 OA
BRANCH  17  20
ATOM     20  C   LIG    1        2.658  -3.652  -1.302  0.00  0.00    +0.126 A 
ATOM     21  C   LIG    1        3.287  -4.033  -0.091  0.00  0.00    +0.057 A 
ATOM     22  N   LIG    1        4.468  -4.756  -0.082  0.00  0.00    -0.342 N 
ATOM     23  H   LIG    1        5.087  -4.526  -0.864  0.00  0.00    +0.146 HD
ATOM     24  C   LIG    1        5.189  -5.212   1.076  0.00  0.00    +0.105 C 
ATOM     25  C   LIG    1        4.314  -5.205   2.317  0.00  0.00    +0.007 C 
ATOM     26  C   LIG    1        3.241  -4.083   2.408  0.00  0.00    +0.041 C 
ATOM     27  C   LIG    1        5.177  -5.202   3.579  0.00  0.00    +0.009 C 
ATOM     28  C   LIG    1        2.611  -3.716   1.092  0.00  0.00    -0.024 A 
ATOM     29  C   LIG    1        1.381  -3.016   1.055  0.00  0.00    +0.005 A 
ATOM     30  C   LIG    1        0.779  -2.668  -0.159  0.00  0.00    +0.002 A 
ATOM     31  C   LIG    1        1.422  -3.009  -1.342  0.00  0.00    +0.030 A 
ENDBRANCH  17  20
ENDBRANCH  15  17
ENDBRANCH   1  15
BRANCH   1  32
ATOM     32  C   LIG    1        5.769  -0.801  -3.469  0.00  0.00    +0.033 C 
BRANCH  32  33
ATOM     33  C   LIG    1        6.009  -0.921  -5.144  0.00  0.00    +0.039 C 
BRANCH  33  34
ATOM     34  C   LIG    1        5.992   0.388  -6.186  0.00  0.00    +0.196 C 
BRANCH  34  35
ATOM     35  N   LIG    1        6.249   0.192  -7.696  0.00  0.00    -0.276 N 
ATOM     36  H   LIG    1        6.761  -0.648  -7.952  0.00  0.00    +0.258 HD
BRANCH  35  37
ATOM     37  C   LIG    1        5.699   0.794  -8.825  0.00  0.00    +0.376 C 
ATOM     38  N   LIG    1        4.567   1.354  -9.075  0.00  0.00    -0.130 NA
ATOM     39  H   LIG    1        3.929   1.351  -8.292  0.00  0.00    +0.306 HD
BRANCH  37  40
ATOM     40  N   LIG    1        6.429   0.738  -9.976  0.00  0.00    -0.289 N 
ATOM     41  H   LIG    1        5.823   1.148 -10.700  0.00  0.00    +0.255 HD
ATOM     42  H   LIG    1        7.252   1.331  -9.980  0.00  0.00    +0.255 HD
ENDBRANCH  37  40
ENDBRANCH  35  37
ENDBRANCH  34  35
ENDBRANCH  33  34
ENDBRANCH  32  33
ENDBRANCH   1  32
TORSDOF 12
