REMARK  Name = *****
REMARK                            x       y       z     vdW  Elec       q    Type
REMARK                         _______ _______ _______ _____ _____    ______ ____
ROOT
ATOM      1  C   LIG    1        2.832   1.697  -0.755  0.00  0.00    -0.030 A 
ATOM      2  C   LIG    1        3.585   0.719  -1.436  0.00  0.00    +0.050 A 
ATOM      3  C   LIG    1        3.684   0.713  -2.828  0.00  0.00    +0.129 A 
ATOM      4  C   LIG    1        2.934   1.635  -3.561  0.00  0.00    +0.046 A 
ATOM      5  C   LIG    1        2.179   2.614  -2.903  0.00  0.00    +0.004 A 
ATOM      6  C   LIG    1        2.156   2.669  -1.506  0.00  0.00    +0.005 A 
ENDROOT
BRANCH   1   8
ATOM      7  C   LIG    1        4.042   2.451   1.306  0.00  0.00    +0.024 C 
ATOM      8  C   LIG    1        2.844   1.667   0.766  0.00  0.00    +0.124 C 
BRANCH   8   9
ATOM      9  C   LIG    1        1.558   2.119   1.451  0.00  0.00    +0.312 C 
ATOM     10  O   LIG    1        1.498   2.972   2.317  0.00  0.00    -0.250 OA
BRANCH   9  11
ATOM     11  O   LIG    1        0.458   1.425   1.066  0.00  0.00    -0.480 OA
ATOM     12  H   LIG    1        0.628   0.760   0.372  0.00  0.00    +0.295 HD
ENDBRANCH   9  11
ENDBRANCH   8   9
ENDBRANCH   1   8
BRANCH   3  13
ATOM     13  O   LIG    1        4.411  -0.214  -3.543  0.00  0.00    -0.456 OA
BRANCH  13  14
ATOM     14  C   LIG    1        5.558  -0.778  -3.017  0.00  0.00    +0.128 A 
ATOM     15  C   LIG    1        5.794  -2.116  -3.353  0.00  0.00    +0.046 A 
ATOM     16  C   LIG    1        6.950  -2.769  -2.910  0.00  0.00    +0.004 A 
ATOM     17  C   LIG    1        7.901  -2.075  -2.165  0.00  0.00    +0.000 A 
ATOM     18  C   LIG    1        7.685  -0.734  -1.848  0.00  0.00    +0.004 A 
ATOM     19  C   LIG    1        6.514  -0.088  -2.265  0.00  0.00    +0.046 A 
ENDBRANCH  13  14
ENDBRANCH   3  13
TORSDOF 5
