REMARK  Name = *****
REMARK                            x       y       z     vdW  Elec       q    Type
REMARK                         _______ _______ _______ _____ _____    ______ ____
ROOT
ATOM      1  C   LIG    1        2.215  -1.402   0.233  0.00  0.00    +0.111 C 
ENDROOT
BRANCH   1   3
ATOM      2  O   LIG    1        2.066  -0.108   2.294  0.00  0.00    -0.251 OA
ATOM      3  C   LIG    1        2.674  -0.374   1.257  0.00  0.00    +0.309 C 
BRANCH   3   4
ATOM      4  O   LIG    1        3.816   0.264   0.937  0.00  0.00    -0.480 OA
ATOM      5  H   LIG    1        4.011   0.228  -0.030  0.00  0.00    +0.295 HD
ENDBRANCH   3   4
ENDBRANCH   1   3
BRANCH   1   6
ATOM      6  C   LIG    1        1.273  -0.763  -0.814  0.00  0.00    +0.110 C 
BRANCH   6   7
ATOM      7  C   LIG    1        1.891   0.371  -1.629  0.00  0.00    +0.216 C 
ATOM      8  N   LIG    1        1.083   0.974  -2.576  0.00  0.00    -0.301 N 
ATOM      9  C   LIG    1       -0.264   0.572  -2.984  0.00  0.00    +0.111 C 
ATOM     10  C   LIG    1       -0.462   1.251  -4.347  0.00  0.00    +0.011 C 
ATOM     11  C   LIG    1        0.360   2.541  -4.215  0.00  0.00    +0.011 C 
ATOM     12  C   LIG    1       -0.395   3.683  -3.522  0.00  0.00    +0.005 C 
ATOM     13  C   LIG    1       -1.760   3.923  -4.150  0.00  0.00    +0.000 C 
ATOM     14  C   LIG    1       -2.602   2.653  -4.110  0.00  0.00    +0.000 C 
ATOM     15  C   LIG    1       -1.901   1.489  -4.807  0.00  0.00    +0.005 C 
ATOM     16  C   LIG    1        1.566   2.090  -3.386  0.00  0.00    +0.111 C 
ATOM     17  O   LIG    1        3.063   0.708  -1.451  0.00  0.00    -0.276 OA
ENDBRANCH   6   7
ENDBRANCH   1   6
BRANCH   1  18
ATOM     18  C   LIG    1        1.481  -2.579   0.935  0.00  0.00    +0.050 C 
BRANCH  18  19
ATOM     19  C   LIG    1        2.269  -3.315   2.000  0.00  0.00    -0.047 A 
ATOM     20  C   LIG    1        2.163  -2.929   3.346  0.00  0.00    +0.003 A 
ATOM     21  C   LIG    1        2.901  -3.568   4.342  0.00  0.00    +0.000 A 
ATOM     22  C   LIG    1        3.741  -4.625   4.009  0.00  0.00    +0.000 A 
ATOM     23  C   LIG    1        3.838  -5.040   2.681  0.00  0.00    +0.000 A 
ATOM     24  C   LIG    1        3.110  -4.387   1.679  0.00  0.00    +0.003 A 
ENDBRANCH  18  19
ENDBRANCH   1  18
TORSDOF 6
