REMARK  Name = *****
REMARK                            x       y       z     vdW  Elec       q    Type
REMARK                         _______ _______ _______ _____ _____    ______ ____
ROOT
ATOM      1  C   LIG    1        0.466   0.582   0.356  0.00  0.00    +0.014 C 
ATOM      2  C   LIG    1        1.903   0.287  -0.074  0.00  0.00    -0.000 C 
ATOM      3  C   LIG    1        2.557   1.637  -0.681  0.00  0.00    +0.069 C 
ATOM      4  C   LIG    1        1.634   2.682  -1.285  0.00  0.00    +0.042 C 
ATOM      5  C   LIG    1        3.785   1.054  -1.337  0.00  0.00    +0.035 C 
ATOM      6  C   LIG    1        4.266   0.103  -0.161  0.00  0.00    +0.007 C 
ATOM      7  C   LIG    1        3.028   0.016   0.907  0.00  0.00    +0.001 C 
ATOM      8  C   LIG    1        2.841  -1.198   1.823  0.00  0.00    -0.004 C 
ATOM      9  C   LIG    1        1.456  -1.412   2.519  0.00  0.00    +0.004 C 
ATOM     10  C   LIG    1        0.693  -2.709   2.116  0.00  0.00    +0.005 C 
ATOM     11  C   LIG    1        1.539  -3.997   2.333  0.00  0.00    +0.001 C 
ATOM     12  C   LIG    1        3.070  -3.698   2.048  0.00  0.00    -0.022 C 
ATOM     13  C   LIG    1        3.716  -3.474   3.461  0.00  0.00    +0.012 C 
ATOM     14  C   LIG    1        3.884  -4.870   1.444  0.00  0.00    +0.045 C 
ATOM     15  C   LIG    1        3.100  -5.516   0.385  0.00  0.00    -0.006 A 
ATOM     16  C   LIG    1        1.783  -5.767   0.553  0.00  0.00    +0.040 A 
ATOM     17  N   LIG    1        1.395  -6.514  -0.538  0.00  0.00    -0.281 N 
ATOM     18  H   LIG    1        0.560  -7.024  -0.697  0.00  0.00    +0.189 HD
ATOM     19  N   LIG    1        2.337  -6.466  -1.514  0.00  0.00    -0.182 NA
ATOM     20  C   LIG    1        3.369  -5.829  -0.958  0.00  0.00    +0.138 A 
ATOM     21  C   LIG    1        0.941  -5.303   1.687  0.00  0.00    +0.059 C 
ATOM     22  C   LIG    1        3.235  -2.440   1.083  0.00  0.00    -0.001 C 
ATOM     23  C   LIG    1        2.523  -2.426  -0.327  0.00  0.00    +0.005 C 
ATOM     24  C   LIG    1        1.850  -1.089  -0.920  0.00  0.00    +0.010 C 
ENDROOT
BRANCH   3  25
ATOM     25  O   LIG    1        3.149   2.498   0.362  0.00  0.00    -0.388 OA
ATOM     26  H   LIG    1        3.873   3.006  -0.052  0.00  0.00    +0.210 HD
ENDBRANCH   3  25
TORSDOF 1
