REMARK  Name = *****
REMARK                            x       y       z     vdW  Elec       q    Type
REMARK                         _______ _______ _______ _____ _____    ______ ____
ROOT
ATOM      1  C   LIG    1        2.623  -1.860   1.409  0.00  0.00    -0.045 A 
ATOM      2  C   LIG    1        2.660  -1.103   2.578  0.00  0.00    +0.005 A 
ATOM      3  C   LIG    1        2.246  -1.656   3.803  0.00  0.00    +0.023 A 
ATOM      4  C   LIG    1        1.765  -2.972   3.923  0.00  0.00    +0.030 A 
ATOM      5  C   LIG    1        1.770  -3.715   2.731  0.00  0.00    +0.023 A 
ATOM      6  C   LIG    1        2.211  -3.186   1.510  0.00  0.00    +0.005 A 
ENDROOT
BRANCH   1   7
ATOM      7  C   LIG    1        2.999  -1.285   0.064  0.00  0.00    +0.065 C 
BRANCH   7   8
ATOM      8  CA  LIG    1        1.850  -0.660  -0.751  0.00  0.00    +0.165 C 
BRANCH   8   9
ATOM      9  N   LIG    1        1.193   0.507  -0.091  0.00  0.00    -0.318 NA
ATOM     10  H1  LIG    1        0.948   0.213   0.862  0.00  0.00    +0.119 HD
ATOM     11  H2  LIG    1        1.897   1.236   0.047  0.00  0.00    +0.119 HD
ENDBRANCH   8   9
BRANCH   8  12
ATOM     12  C   LIG    1        0.755  -1.646  -1.188  0.00  0.00    +0.322 C 
ATOM     13  O   LIG    1        0.869  -2.869  -1.283  0.00  0.00    -0.249 OA
BRANCH  12  14
ATOM     14  OXT LIG    1       -0.371  -0.988  -1.565  0.00  0.00    -0.479 OA
ATOM     15  HXT LIG    1       -0.225  -0.033  -1.354  0.00  0.00    +0.295 HD
ENDBRANCH  12  14
ENDBRANCH   8  12
ENDBRANCH   7   8
ENDBRANCH   1   7
BRANCH   4  16
ATOM     16  N   LIG    1        1.328  -3.508   5.134  0.00  0.00    -0.328 N 
BRANCH  16  17
ATOM     17  C   LIG    1        1.207  -2.679   6.357  0.00  0.00    +0.121 C 
BRANCH  17  18
ATOM     18  C   LIG    1       -0.148  -1.968   6.440  0.00  0.00    +0.127 C 
ATOM     19 CL   LIG    1       -0.301  -1.022   7.944  0.00  0.00    -0.124 Cl
ENDBRANCH  17  18
ENDBRANCH  16  17
BRANCH  16  20
ATOM     20  C   LIG    1        0.983  -4.947   5.248  0.00  0.00    +0.121 C 
BRANCH  20  21
ATOM     21  C   LIG    1       -0.498  -5.216   4.968  0.00  0.00    +0.127 C 
ATOM     22 CL   LIG    1       -0.860  -6.961   5.030  0.00  0.00    -0.124 Cl
ENDBRANCH  20  21
ENDBRANCH  16  20
ENDBRANCH   4  16
TORSDOF 10
