REMARK  Name = *****
REMARK                            x       y       z     vdW  Elec       q    Type
REMARK                         _______ _______ _______ _____ _____    ______ ____
ROOT
ATOM      1  C   LIG    1        5.463   0.731   2.334  0.00  0.00    +0.096 C 
ENDROOT
BRANCH   1   2
ATOM      2  N   LIG    1        5.949   0.530   0.966  0.00  0.00    -0.310 NA
ATOM      3  H   LIG    1        5.720   1.380   0.450  0.00  0.00    +0.122 HD
BRANCH   2   4
ATOM      4  CA  LIG    1        5.375  -0.650   0.287  0.00  0.00    +0.079 C 
BRANCH   4   6
ATOM      5  C   LIG    1        5.549   0.548  -2.000  0.00  0.00    +0.005 C 
ATOM      6  C   LIG    1        5.887  -0.687  -1.171  0.00  0.00    +0.017 C 
ENDBRANCH   4   6
BRANCH   4   7
ATOM      7  C   LIG    1        5.776  -1.997   0.952  0.00  0.00    +0.174 C 
BRANCH   7   8
ATOM      8  O   LIG    1        5.115  -2.211   2.198  0.00  0.00    -0.394 OA
ATOM      9  H   LIG    1        5.807  -2.440   2.843  0.00  0.00    +0.209 HD
ENDBRANCH   7   8
ENDBRANCH   4   7
ENDBRANCH   2   4
ENDBRANCH   1   2
BRANCH   1  10
ATOM     10  C   LIG    1        6.056   2.025   2.935  0.00  0.00    +0.096 C 
BRANCH  10  11
ATOM     11  N   LIG    1        5.651   3.259   2.230  0.00  0.00    -0.310 NA
ATOM     12  H   LIG    1        4.631   3.292   2.217  0.00  0.00    +0.122 HD
BRANCH  11  13
ATOM     13  CA  LIG    1        6.152   4.470   2.936  0.00  0.00    +0.079 C 
BRANCH  13  14
ATOM     14  C   LIG    1        7.695   4.534   3.043  0.00  0.00    +0.017 C 
ATOM     15  C   LIG    1        8.453   4.557   1.723  0.00  0.00    +0.005 C 
ENDBRANCH  13  14
BRANCH  13  16
ATOM     16  C   LIG    1        5.572   5.734   2.257  0.00  0.00    +0.174 C 
BRANCH  16  17
ATOM     17  O   LIG    1        5.837   5.754   0.855  0.00  0.00    -0.394 OA
ATOM     18  H   LIG    1        5.846   4.815   0.585  0.00  0.00    +0.209 HD
ENDBRANCH  16  17
ENDBRANCH  13  16
ENDBRANCH  11  13
ENDBRANCH  10  11
ENDBRANCH   1  10
TORSDOF 11
