REMARK  Name = *****
REMARK                            x       y       z     vdW  Elec       q    Type
REMARK                         _______ _______ _______ _____ _____    ______ ____
ROOT
ATOM      1  C   LIG    1        4.534  -1.950  -1.377  0.00  0.00    +0.158 C 
ENDROOT
BRANCH   1   2
ATOM      2  C   LIG    1        3.922  -0.738  -0.699  0.00  0.00    -0.011 A 
ATOM      3  C   LIG    1        4.636  -0.039   0.285  0.00  0.00    +0.051 A 
ATOM      4  C   LIG    1        4.075   1.083   0.906  0.00  0.00    +0.121 A 
ATOM      5  C   LIG    1        2.806   1.527   0.567  0.00  0.00    +0.090 A 
ATOM      6  C   LIG    1        2.091   0.830  -0.396  0.00  0.00    +0.121 A 
ATOM      7  C   LIG    1        2.635  -0.290  -1.032  0.00  0.00    +0.051 A 
BRANCH   4   8
ATOM      8  O   LIG    1        4.828   1.736   1.838  0.00  0.00    -0.507 OA
ATOM      9  H   LIG    1        4.333   2.516   2.134  0.00  0.00    +0.292 HD
ENDBRANCH   4   8
BRANCH   6  10
ATOM     10  O   LIG    1        0.839   1.275  -0.712  0.00  0.00    -0.507 OA
ATOM     11  H   LIG    1        0.445   0.668  -1.357  0.00  0.00    +0.292 HD
ENDBRANCH   6  10
ENDBRANCH   1   2
BRANCH   1  12
ATOM     12  O   LIG    1        3.656  -3.063  -1.203  0.00  0.00    -0.386 OA
ATOM     13  H   LIG    1        3.883  -3.673  -1.933  0.00  0.00    +0.210 HD
ENDBRANCH   1  12
BRANCH   1  14
ATOM     14  C   LIG    1        4.803  -1.745  -2.896  0.00  0.00    +0.117 C 
BRANCH  14  15
ATOM     15  N   LIG    1        5.350  -2.986  -3.495  0.00  0.00    -0.308 NA
ATOM     16  H   LIG    1        6.197  -3.244  -2.983  0.00  0.00    +0.122 HD
BRANCH  15  18
ATOM     17  C   LIG    1        6.709  -1.810  -5.249  0.00  0.00    +0.027 C 
ATOM     18  C   LIG    1        5.681  -2.912  -4.938  0.00  0.00    +0.011 C 
ATOM     19  C   LIG    1        6.307  -4.270  -5.324  0.00  0.00    +0.027 C 
ATOM     20  C   LIG    1        4.421  -2.714  -5.797  0.00  0.00    +0.027 C 
ENDBRANCH  15  18
ENDBRANCH  14  15
ENDBRANCH   1  14
TORSDOF 7
