REMARK  Name = *****
REMARK                            x       y       z     vdW  Elec       q    Type
REMARK                         _______ _______ _______ _____ _____    ______ ____
ROOT
ATOM      1  C   LIG    1       -6.245   2.986  -2.858  0.00  0.00    +0.233 C 
ATOM      2  O   LIG    1       -7.230   2.795  -1.827  0.00  0.00    -0.340 OA
ATOM      3  C   LIG    1       -8.443   2.203  -2.272  0.00  0.00    +0.133 C 
ATOM      4  C   LIG    1       -9.372   1.969  -1.081  0.00  0.00    +0.106 C 
ATOM      5  C   LIG    1       -9.226   0.491  -0.831  0.00  0.00    +0.139 C 
ATOM      6  O   LIG    1       -9.942  -0.136  -0.058  0.00  0.00    -0.297 OA
ATOM      7  C   LIG    1       -8.132  -0.141  -1.667  0.00  0.00    +0.061 C 
ATOM      8  C   LIG    1       -8.211   0.817  -2.876  0.00  0.00    +0.029 C 
ATOM      9  C   LIG    1       -7.066   0.776  -3.878  0.00  0.00    +0.012 C 
ATOM     10  C   LIG    1       -5.863   1.633  -3.494  0.00  0.00    +0.071 C 
ENDROOT
BRANCH   1  11
ATOM     11  C   LIG    1       -4.964   3.620  -2.199  0.00  0.00    +0.301 C 
ATOM     12  F   LIG    1       -4.486   2.760  -1.251  0.00  0.00    -0.200 F 
ATOM     13  F   LIG    1       -3.976   3.723  -3.135  0.00  0.00    -0.200 F 
BRANCH  11  14
ATOM     14  C   LIG    1       -5.198   4.995  -1.558  0.00  0.00    +0.081 C 
BRANCH  14  15
ATOM     15  C   LIG    1       -3.962   5.542  -0.818  0.00  0.00    +0.006 C 
BRANCH  15  17
ATOM     16  C   LIG    1       -3.030   7.444   0.616  0.00  0.00    +0.004 C 
ATOM     17  C   LIG    1       -4.231   6.906  -0.160  0.00  0.00    -0.003 C 
ENDBRANCH  15  17
ENDBRANCH  14  15
ENDBRANCH  11  14
ENDBRANCH   1  11
BRANCH   1  18
ATOM     18  O   LIG    1       -6.779   3.874  -3.847  0.00  0.00    -0.360 OA
ATOM     19  H   LIG    1       -7.258   3.348  -4.506  0.00  0.00    +0.213 HD
ENDBRANCH   1  18
BRANCH   7  20
ATOM     20  C   LIG    1       -6.809  -0.224  -0.883  0.00  0.00    +0.011 C 
BRANCH  20  21
ATOM     21  C   LIG    1       -6.939  -1.144   0.337  0.00  0.00    +0.001 C 
BRANCH  21  22
ATOM     22  C   LIG    1       -5.651  -1.302   1.145  0.00  0.00    +0.000 C 
BRANCH  22  23
ATOM     23  C   LIG    1       -5.865  -2.200   2.371  0.00  0.00    +0.000 C 
BRANCH  23  24
ATOM     24  C   LIG    1       -6.289  -3.634   2.022  0.00  0.00    +0.011 C 
BRANCH  24  25
ATOM     25  C   LIG    1       -6.459  -4.521   3.259  0.00  0.00    +0.120 C 
BRANCH  25  26
ATOM     26  C   LIG    1       -5.185  -4.710   4.029  0.00  0.00    +0.305 C 
ATOM     27  O   LIG    1       -4.542  -3.836   4.607  0.00  0.00    -0.251 OA
BRANCH  26  28
ATOM     28  O   LIG    1       -4.763  -5.975   4.062  0.00  0.00    -0.481 OA
ATOM     29  H   LIG    1       -3.928  -5.922   4.573  0.00  0.00    +0.295 HD
ENDBRANCH  26  28
ENDBRANCH  25  26
ENDBRANCH  24  25
ENDBRANCH  23  24
ENDBRANCH  22  23
ENDBRANCH  21  22
ENDBRANCH  20  21
ENDBRANCH   7  20
TORSDOF 13
