REMARK  Name = *****
REMARK                            x       y       z     vdW  Elec       q    Type
REMARK                         _______ _______ _______ _____ _____    ______ ____
ROOT
ATOM      1  C   LIG    1        5.230  -0.206   2.540  0.00  0.00    +0.039 A 
ATOM      2  C   LIG    1        5.279  -1.312   3.414  0.00  0.00    +0.056 A 
ATOM      3  C   LIG    1        4.800  -2.650   2.953  0.00  0.00    +0.196 C 
ATOM      4  C   LIG    1        5.418  -3.840   3.564  0.00  0.00    +0.036 A 
ATOM      5  C   LIG    1        5.983  -3.722   4.822  0.00  0.00    +0.051 A 
ATOM      6  C   LIG    1        5.934  -2.435   5.530  0.00  0.00    +0.198 C 
ATOM      7  O   LIG    1        5.967  -2.398   6.748  0.00  0.00    -0.286 OA
ATOM      8  C   LIG    1        6.594  -4.832   5.372  0.00  0.00    +0.123 A 
ATOM      9  N   LIG    1        6.678  -6.024   4.728  0.00  0.00    -0.263 NA
ATOM     10  C   LIG    1        6.103  -6.112   3.506  0.00  0.00    +0.111 A 
ATOM     11  C   LIG    1        5.454  -5.058   2.888  0.00  0.00    +0.032 A 
ATOM     12  O   LIG    1        3.954  -2.784   2.082  0.00  0.00    -0.286 OA
ATOM     13  C   LIG    1        5.857  -1.206   4.697  0.00  0.00    +0.056 A 
ATOM     14  C   LIG    1        6.397   0.013   5.164  0.00  0.00    +0.039 A 
ATOM     15  C   LIG    1        6.356   1.096   4.278  0.00  0.00    +0.025 A 
ATOM     16  C   LIG    1        5.774   0.992   3.009  0.00  0.00    +0.025 A 
ENDROOT
BRANCH   1  17
ATOM     17  N   LIG    1        4.838  -0.359   1.215  0.00  0.00    -0.342 N 
ATOM     18  H   LIG    1        4.133  -1.091   1.072  0.00  0.00    +0.146 HD
BRANCH  17  19
ATOM     19  C   LIG    1        4.903   0.702   0.219  0.00  0.00    +0.116 C 
BRANCH  19  20
ATOM     20  C   LIG    1        4.378   0.190  -1.134  0.00  0.00    +0.096 C 
BRANCH  20  21
ATOM     21  N   LIG    1        4.449   1.201  -2.191  0.00  0.00    -0.329 NA
ATOM     22  H   LIG    1        5.420   1.478  -2.335  0.00  0.00    +0.118 HD
ATOM     23  H   LIG    1        4.144   0.780  -3.068  0.00  0.00    +0.118 HD
ENDBRANCH  20  21
ENDBRANCH  19  20
ENDBRANCH  17  19
ENDBRANCH   1  17
BRANCH  14  24
ATOM     24  N   LIG    1        7.108   0.094   6.373  0.00  0.00    -0.342 N 
ATOM     25  H   LIG    1        6.840  -0.661   7.013  0.00  0.00    +0.146 HD
BRANCH  24  26
ATOM     26  C   LIG    1        7.268   1.396   7.040  0.00  0.00    +0.116 C 
BRANCH  26  27
ATOM     27  C   LIG    1        7.413   1.226   8.567  0.00  0.00    +0.096 C 
BRANCH  27  28
ATOM     28  N   LIG    1        8.585   0.435   8.947  0.00  0.00    -0.329 NA
ATOM     29  H   LIG    1        8.561   0.250   9.948  0.00  0.00    +0.118 HD
ATOM     30  H   LIG    1        8.539  -0.471   8.479  0.00  0.00    +0.118 HD
ENDBRANCH  27  28
ENDBRANCH  26  27
ENDBRANCH  24  26
ENDBRANCH  14  24
TORSDOF 8
