REMARK  Name = *****
REMARK                            x       y       z     vdW  Elec       q    Type
REMARK                         _______ _______ _______ _____ _____    ______ ____
ROOT
ATOM      1  C   LIG    1        2.586   1.091  -0.229  0.00  0.00    +0.004 A 
ATOM      2  S   LIG    1        3.837   1.480   0.884  0.00  0.00    -0.089 S 
ATOM      3  C   LIG    1        3.590   3.172   0.724  0.00  0.00    +0.060 A 
ATOM      4  C   LIG    1        2.553   3.427  -0.157  0.00  0.00    +0.020 A 
ATOM      5  C   LIG    1        1.993   2.239  -0.719  0.00  0.00    +0.013 A 
ENDROOT
BRANCH   1   7
ATOM      6  C   LIG    1        0.836  -0.733  -0.170  0.00  0.00    +0.025 C 
ATOM      7  C   LIG    1        2.274  -0.364  -0.529  0.00  0.00    +0.131 C 
BRANCH   7   8
ATOM      8  C   LIG    1        2.574  -0.691  -1.992  0.00  0.00    +0.312 C 
ATOM      9  O   LIG    1        1.774  -1.163  -2.783  0.00  0.00    -0.250 OA
BRANCH   8  10
ATOM     10  O   LIG    1        3.867  -0.462  -2.339  0.00  0.00    -0.480 OA
ATOM     11  H   LIG    1        4.408  -0.089  -1.619  0.00  0.00    +0.295 HD
ENDBRANCH   8  10
ENDBRANCH   7   8
ENDBRANCH   1   7
BRANCH   3  12
ATOM     12  C   LIG    1        4.411   4.095   1.510  0.00  0.00    +0.200 C 
ATOM     13  O   LIG    1        4.938   3.792   2.579  0.00  0.00    -0.286 OA
BRANCH  12  14
ATOM     14  C   LIG    1        4.630   5.500   1.022  0.00  0.00    +0.023 A 
ATOM     15  C   LIG    1        4.688   5.804  -0.345  0.00  0.00    +0.012 A 
ATOM     16  C   LIG    1        4.866   7.123  -0.769  0.00  0.00    +0.001 A 
ATOM     17  C   LIG    1        5.042   8.141   0.166  0.00  0.00    +0.000 A 
ATOM     18  C   LIG    1        5.035   7.843   1.527  0.00  0.00    +0.001 A 
ATOM     19  C   LIG    1        4.826   6.529   1.957  0.00  0.00    +0.012 A 
ENDBRANCH  12  14
ENDBRANCH   3  12
TORSDOF 5
