REMARK  Name = *****
REMARK                            x       y       z     vdW  Elec       q    Type
REMARK                         _______ _______ _______ _____ _____    ______ ____
ROOT
ATOM      1  C   LIG    1        6.605   1.141  -0.439  0.00  0.00    +0.350 C 
ATOM      2  O   LIG    1        6.663   1.818  -1.460  0.00  0.00    -0.247 OA
ENDROOT
BRANCH   1   3
ATOM      3  O   LIG    1        5.668   0.161  -0.268  0.00  0.00    -0.458 OA
BRANCH   3  11
ATOM      4  C   LIG    1        0.352  -0.355  -0.116  0.00  0.00    +0.193 C 
ATOM      5  N   LIG    1        1.871  -0.204  -0.274  0.00  0.00    +0.247 N 
ATOM      6  C   LIG    1        2.450  -1.383  -1.101  0.00  0.00    +0.102 C 
ATOM      7  C   LIG    1        2.005  -1.120  -2.529  0.00  0.00    +0.201 C 
ATOM      8  C   LIG    1        1.842   0.372  -2.643  0.00  0.00    +0.201 C 
ATOM      9  O   LIG    1        2.841  -0.335  -3.377  0.00  0.00    -0.357 OA
ATOM     10  C   LIG    1        3.977  -1.357  -0.983  0.00  0.00    +0.102 C 
ATOM     11  C   LIG    1        4.628   0.022  -1.262  0.00  0.00    +0.187 C 
ATOM     12  C   LIG    1        3.693   1.255  -1.185  0.00  0.00    +0.102 C 
ATOM     13  C   LIG    1        2.198   0.935  -1.277  0.00  0.00    +0.102 C 
ATOM     14  C   LIG    1        2.423  -0.043   1.138  0.00  0.00    +0.193 C 
ENDBRANCH   3  11
ENDBRANCH   1   3
BRANCH   1  15
ATOM     15  C   LIG    1        7.602   1.202   0.766  0.00  0.00    +0.226 C 
BRANCH  15  16
ATOM     16  C   LIG    1        6.964   0.567   2.007  0.00  0.00    +0.037 A 
ATOM     17  S   LIG    1        5.976   1.476   3.089  0.00  0.00    -0.098 S 
ATOM     18  C   LIG    1        5.635   0.111   4.056  0.00  0.00    +0.045 A 
ATOM     19  C   LIG    1        6.217  -1.031   3.560  0.00  0.00    +0.008 A 
ATOM     20  C   LIG    1        6.986  -0.768   2.390  0.00  0.00    +0.015 A 
ENDBRANCH  15  16
BRANCH  15  21
ATOM     21  C   LIG    1        8.170   2.602   0.984  0.00  0.00    +0.037 A 
ATOM     22  S   LIG    1        7.223   4.020   0.699  0.00  0.00    -0.098 S 
ATOM     23  C   LIG    1        8.530   5.060   1.040  0.00  0.00    +0.045 A 
ATOM     24  C   LIG    1        9.641   4.370   1.459  0.00  0.00    +0.008 A 
ATOM     25  C   LIG    1        9.428   2.959   1.452  0.00  0.00    +0.015 A 
ENDBRANCH  15  21
BRANCH  15  26
ATOM     26  O   LIG    1        8.717   0.362   0.418  0.00  0.00    -0.369 OA
ATOM     27  H   LIG    1        9.146   0.784  -0.348  0.00  0.00    +0.212 HD
ENDBRANCH  15  26
ENDBRANCH   1  15
TORSDOF 6
