REMARK  Name = *****
REMARK                            x       y       z     vdW  Elec       q    Type
REMARK                         _______ _______ _______ _____ _____    ______ ____
ROOT
ATOM      1  C   LIG    1        4.822  -0.592   2.704  0.00  0.00    +0.010 C 
ENDROOT
BRANCH   1   2
ATOM      2  C   LIG    1        4.118  -0.309   1.364  0.00  0.00    +0.051 C 
BRANCH   2   3
ATOM      3  C   LIG    1        2.658  -0.780   1.381  0.00  0.00    +0.133 C 
BRANCH   3   5
ATOM      4  C   LIG    1        1.882   0.970  -0.283  0.00  0.00    +0.192 C 
ATOM      5  N   LIG    1        1.919  -0.520   0.060  0.00  0.00    +0.241 N 
ATOM      6  C   LIG    1        0.449  -1.038   0.181  0.00  0.00    +0.133 C 
ATOM      7  C   LIG    1        0.319  -2.137  -0.859  0.00  0.00    +0.056 C 
ATOM      8  C   LIG    1        1.315  -1.754  -1.929  0.00  0.00    +0.056 C 
ATOM      9  C   LIG    1        2.517  -1.318  -1.118  0.00  0.00    +0.133 C 
ENDBRANCH   3   5
ENDBRANCH   2   3
ENDBRANCH   1   2
BRANCH   1  10
ATOM     10  C   LIG    1        6.290  -0.134   2.671  0.00  0.00    +0.051 C 
BRANCH  10  11
ATOM     11  C   LIG    1        7.011  -0.398   4.003  0.00  0.00    +0.133 C 
BRANCH  11  12
ATOM     12  N   LIG    1        8.480   0.063   3.995  0.00  0.00    +0.241 N 
ATOM     13  C   LIG    1        8.609   1.585   3.751  0.00  0.00    +0.133 C 
ATOM     14  C   LIG    1        9.545   2.087   4.831  0.00  0.00    +0.056 C 
ATOM     15  C   LIG    1        9.191   1.221   6.018  0.00  0.00    +0.056 C 
ATOM     16  C   LIG    1        9.104  -0.163   5.409  0.00  0.00    +0.133 C 
ATOM     17  C   LIG    1        9.309  -0.720   2.981  0.00  0.00    +0.192 C 
ENDBRANCH  11  12
ENDBRANCH  10  11
ENDBRANCH   1  10
TORSDOF 6
