REMARK  Name = *****
REMARK                            x       y       z     vdW  Elec       q    Type
REMARK                         _______ _______ _______ _____ _____    ______ ____
ROOT
ATOM      1  C   LIG    1        7.256  -3.439  -0.915  0.00  0.00    +0.148 A 
ATOM      2  O   LIG    1        7.325  -4.801  -0.887  0.00  0.00    -0.454 OA
ATOM      3  C   LIG    1        8.589  -5.165  -1.258  0.00  0.00    +0.136 A 
ATOM      4  C   LIG    1        9.322  -4.032  -1.552  0.00  0.00    +0.050 A 
ATOM      5  C   LIG    1        8.468  -2.924  -1.326  0.00  0.00    +0.051 A 
ENDROOT
BRANCH   3   6
ATOM      6  C   LIG    1        8.871  -6.599  -1.249  0.00  0.00    +0.018 A 
ATOM      7  C   LIG    1       10.146  -7.083  -1.587  0.00  0.00    +0.018 A 
ATOM      8  C   LIG    1       10.422  -8.455  -1.574  0.00  0.00    +0.085 A 
ATOM      9  C   LIG    1        9.415  -9.360  -1.217  0.00  0.00    +0.273 A 
ATOM     10  C   LIG    1        8.140  -8.900  -0.875  0.00  0.00    +0.085 A 
ATOM     11  C   LIG    1        7.877  -7.527  -0.892  0.00  0.00    +0.018 A 
BRANCH   9  12
ATOM     12  N   LIG    1        9.697 -10.800  -1.205  0.00  0.00    +0.080 N 
ATOM     13  O   LIG    1       10.839 -11.165  -1.515  0.00  0.00    -0.576 OA
ATOM     14  O   LIG    1        8.775 -11.565  -0.886  0.00  0.00    +0.041 OA
ENDBRANCH   9  12
ENDBRANCH   3   6
BRANCH   1  16
ATOM     15  N   LIG    1        5.907  -1.529  -0.528  0.00  0.00    -0.180 NA
ATOM     16  C   LIG    1        6.019  -2.820  -0.529  0.00  0.00    +0.176 C 
BRANCH  15  23
ATOM     17  O   LIG    1        2.292   1.451   0.171  0.00  0.00    -0.274 OA
ATOM     18  C   LIG    1        3.041   0.487   0.233  0.00  0.00    +0.240 C 
ATOM     19  N   LIG    1        2.832  -0.610   1.005  0.00  0.00    -0.237 N 
ATOM     20  H   LIG    1        2.052  -0.736   1.626  0.00  0.00    +0.159 HD
ATOM     21  C   LIG    1        3.847  -1.508   0.862  0.00  0.00    +0.328 C 
ATOM     22  O   LIG    1        3.937  -2.549   1.488  0.00  0.00    -0.250 OA
ATOM     23  N   LIG    1        4.723  -0.994  -0.108  0.00  0.00    -0.168 N 
ATOM     24  C   LIG    1        4.349   0.337  -0.516  0.00  0.00    +0.232 C 
ENDBRANCH  15  23
ENDBRANCH   1  16
TORSDOF 4
