REMARK  Name = *****
REMARK                            x       y       z     vdW  Elec       q    Type
REMARK                         _______ _______ _______ _____ _____    ______ ____
ROOT
ATOM      1  C   LIG    1        7.587  -0.590   0.607  0.00  0.00    +0.160 A 
ATOM      2  C   LIG    1        8.236   0.609   0.944  0.00  0.00    +0.164 A 
ATOM      3  F   LIG    1        7.790   1.795   0.501  0.00  0.00    -0.202 F 
ATOM      4  C   LIG    1        9.374   0.601   1.735  0.00  0.00    +0.057 A 
ATOM      5  C   LIG    1        9.866  -0.622   2.173  0.00  0.00    +0.068 A 
ATOM      6  C   LIG    1       11.102  -0.681   2.980  0.00  0.00    +0.205 A 
ATOM      7  C   LIG    1       11.650  -2.005   3.336  0.00  0.00    +0.122 A 
ATOM      8  C   LIG    1       10.953  -3.078   2.934  0.00  0.00    +0.106 A 
ATOM      9  N   LIG    1        9.753  -3.044   2.250  0.00  0.00    -0.328 N 
ATOM     10  O   LIG    1       11.699   0.341   3.309  0.00  0.00    -0.286 OA
ATOM     11  C   LIG    1        9.212  -1.802   1.807  0.00  0.00    +0.147 A 
ATOM     12  N   LIG    1        8.092  -1.775   1.036  0.00  0.00    -0.211 NA
ENDROOT
BRANCH   1  17
ATOM     13  N   LIG    1        3.159   0.500  -1.038  0.00  0.00    -0.092 NA
ATOM     14  C   LIG    1        4.275  -0.117  -0.793  0.00  0.00    +0.081 C 
ATOM     15  C   LIG    1        4.489  -1.563  -1.175  0.00  0.00    +0.069 C 
ATOM     16  C   LIG    1        5.745  -1.892  -0.350  0.00  0.00    +0.117 C 
ATOM     17  N   LIG    1        6.459  -0.622  -0.202  0.00  0.00    -0.307 N 
ATOM     18  C   LIG    1        5.509   0.490  -0.162  0.00  0.00    +0.161 C 
BRANCH  13  20
ATOM     19  C   LIG    1        1.989   2.465  -0.866  0.00  0.00    +0.313 C 
ATOM     20  O   LIG    1        3.226   1.823  -0.581  0.00  0.00    -0.397 OA
ENDBRANCH  13  20
BRANCH  15  21
ATOM     21  C   LIG    1        3.323  -2.482  -0.820  0.00  0.00    +0.088 C 
BRANCH  21  22
ATOM     22  N   LIG    1        2.123  -2.235  -1.621  0.00  0.00    -0.329 NA
ATOM     23  H   LIG    1        1.860  -1.249  -1.500  0.00  0.00    +0.118 HD
ATOM     24  H   LIG    1        2.339  -2.321  -2.613  0.00  0.00    +0.118 HD
ENDBRANCH  21  22
ENDBRANCH  15  21
ENDBRANCH   1  17
BRANCH   9  25
ATOM     25  C   LIG    1        9.165  -4.304   1.765  0.00  0.00    +0.089 C 
ATOM     26  C   LIG    1        9.024  -5.526   2.639  0.00  0.00    +0.027 C 
ATOM     27  C   LIG    1        7.805  -4.760   2.229  0.00  0.00    +0.027 C 
ENDBRANCH   9  25
BRANCH   7  28
ATOM     28  C   LIG    1       12.920  -2.195   4.056  0.00  0.00    +0.342 C 
ATOM     29  O   LIG    1       13.229  -3.249   4.604  0.00  0.00    -0.245 OA
BRANCH  28  30
ATOM     30  O   LIG    1       13.748  -1.132   4.018  0.00  0.00    -0.477 OA
ATOM     31  H   LIG    1       13.339  -0.316   3.642  0.00  0.00    +0.295 HD
ENDBRANCH  28  30
ENDBRANCH   7  28
TORSDOF 7
