REMARK  Name = *****
REMARK                            x       y       z     vdW  Elec       q    Type
REMARK                         _______ _______ _______ _____ _____    ______ ____
ROOT
ATOM      1  C   LIG    1       11.052   1.223   6.403  0.00  0.00    +0.176 C 
ATOM      2  C   LIG    1       11.041   2.756   6.334  0.00  0.00    +0.239 C 
ATOM      3  O   LIG    1       10.022   3.403   6.583  0.00  0.00    -0.273 OA
ATOM      4  N   LIG    1       12.278   3.298   6.066  0.00  0.00    -0.279 N 
ATOM      5  H   LIG    1       13.073   2.667   6.122  0.00  0.00    +0.155 HD
ATOM      6  C   LIG    1       12.621   4.640   5.982  0.00  0.00    +0.110 C 
ATOM      7  C   LIG    1       11.747   5.662   5.841  0.00  0.00    +0.104 C 
ATOM      8  C   LIG    1       14.080   4.933   6.191  0.00  0.00    +0.260 C 
ATOM      9  O   LIG    1       14.864   5.224   5.298  0.00  0.00    -0.269 OA
ATOM     10  N   LIG    1       14.375   4.701   7.509  0.00  0.00    -0.296 N 
ATOM     11  H   LIG    1       13.613   4.455   8.162  0.00  0.00    +0.150 HD
ATOM     12  C   LIG    1       15.710   4.884   8.097  0.00  0.00    +0.194 C 
ATOM     13  C   LIG    1       15.410   5.245   9.559  0.00  0.00    +0.237 C 
ATOM     14  O   LIG    1       15.584   6.371  10.021  0.00  0.00    -0.274 OA
ATOM     15  N   LIG    1       14.807   4.228  10.262  0.00  0.00    -0.312 N 
ATOM     16  H   LIG    1       14.700   3.343   9.771  0.00  0.00    +0.149 HD
ATOM     17  C   LIG    1       14.168   4.406  11.553  0.00  0.00    +0.132 C 
ATOM     18  CA  LIG    1       13.568   3.090  12.083  0.00  0.00    +0.155 C 
ATOM     19  C   LIG    1       12.482   2.600  11.105  0.00  0.00    +0.232 C 
ATOM     20  O   LIG    1       11.818   3.354  10.400  0.00  0.00    -0.274 OA
ATOM     21  N   LIG    1       12.272   1.241  11.108  0.00  0.00    -0.301 N 
ATOM     22  H   LIG    1       12.977   0.697  11.603  0.00  0.00    +0.150 HD
ATOM     23  CA  LIG    1       11.311   0.585  10.216  0.00  0.00    +0.184 C 
ATOM     24  C   LIG    1       11.746   0.790   8.735  0.00  0.00    +0.236 C 
ATOM     25  O   LIG    1       12.939   0.809   8.412  0.00  0.00    -0.274 OA
ATOM     26  N   LIG    1       10.737   0.874   7.794  0.00  0.00    -0.301 N 
ATOM     27  H   LIG    1        9.859   1.270   8.132  0.00  0.00    +0.150 HD
ENDROOT
BRANCH   7  28
ATOM     28  N   LIG    1       12.102   6.990   5.841  0.00  0.00    -0.274 N 
ATOM     29  H   LIG    1       13.081   7.250   5.946  0.00  0.00    +0.156 HD
ATOM     30  C   LIG    1       11.307   8.092   5.705  0.00  0.00    +0.301 C 
ATOM     31  O   LIG    1       11.780   9.227   5.726  0.00  0.00    -0.253 OA
ATOM     32  N   LIG    1        9.978   7.909   5.564  0.00  0.00    -0.313 N 
ATOM     33  H   LIG    1        9.453   8.760   5.407  0.00  0.00    +0.146 HD
ATOM     34  H   LIG    1        9.624   7.086   5.101  0.00  0.00    +0.146 HD
ENDBRANCH   7  28
BRANCH  12  35
ATOM     35  C   LIG    1       16.608   3.643   7.858  0.00  0.00    +0.168 C 
ATOM     36  N   LIG    1       15.957   2.401   8.288  0.00  0.00    -0.234 N 
ATOM     37  H   LIG    1       15.645   1.808   7.524  0.00  0.00    +0.245 HD
ATOM     38  C   LIG    1       16.434   1.695   9.337  0.00  0.00    +0.362 C 
ATOM     39  N   LIG    1       17.328   2.052  10.182  0.00  0.00    -0.117 NA
ATOM     40  C   LIG    1       17.995   3.339   9.948  0.00  0.00    +0.246 C 
ATOM     41  C   LIG    1       18.001   3.730   8.476  0.00  0.00    +0.081 C 
BRANCH  38  42
ATOM     42  N   LIG    1       15.767   0.533   9.475  0.00  0.00    -0.252 N 
ATOM     43  H   LIG    1       14.779   0.558   9.223  0.00  0.00    +0.241 HD
ATOM     44  H   LIG    1       15.938   0.089  10.371  0.00  0.00    +0.241 HD
ENDBRANCH  38  42
ENDBRANCH  12  35
BRANCH  18  45
ATOM     45  N   LIG    1       14.587   2.023  12.285  0.00  0.00    -0.319 NA
ATOM     46  H1  LIG    1       15.163   2.294  13.088  0.00  0.00    +0.119 HD
ATOM     47  H2  LIG    1       15.265   2.081  11.514  0.00  0.00    +0.119 HD
ENDBRANCH  18  45
BRANCH   1  48
ATOM     48  C   LIG    1       10.026   0.678   5.401  0.00  0.00    +0.136 C 
BRANCH  48  50
ATOM     49  C   LIG    1        9.923   0.182   2.985  0.00  0.00    +0.215 C 
ATOM     50  N   LIG    1       10.390   0.966   4.018  0.00  0.00    -0.313 N 
ATOM     51  H   LIG    1       10.480   1.949   3.732  0.00  0.00    +0.149 HD
ATOM     52  O   LIG    1        9.290  -0.854   3.153  0.00  0.00    -0.276 OA
BRANCH  49  53
ATOM     53  C   LIG    1       10.334   0.677   1.607  0.00  0.00    +0.114 C 
BRANCH  53  54
ATOM     54  C   LIG    1        9.729   2.032   1.211  0.00  0.00    +0.059 C 
BRANCH  54  55
ATOM     55  N   LIG    1       10.165   3.101   2.138  0.00  0.00    -0.327 NA
ATOM     56  H   LIG    1        9.542   3.904   2.011  0.00  0.00    +0.118 HD
ATOM     57  H   LIG    1       11.084   3.446   1.849  0.00  0.00    +0.118 HD
ENDBRANCH  54  55
BRANCH  54  58
ATOM     58  C   LIG    1       10.114   2.440  -0.232  0.00  0.00    +0.020 C 
BRANCH  58  59
ATOM     59  C   LIG    1        9.686   1.462  -1.337  0.00  0.00    +0.016 C 
BRANCH  59  60
ATOM     60  C   LIG    1        8.172   1.267  -1.396  0.00  0.00    +0.077 C 
BRANCH  60  61
ATOM     61  N   LIG    1        7.817   0.326  -2.448  0.00  0.00    -0.330 NA
ATOM     62  H   LIG    1        6.831   0.082  -2.362  0.00  0.00    +0.118 HD
ATOM     63  H   LIG    1        7.921   0.769  -3.360  0.00  0.00    +0.118 HD
ENDBRANCH  60  61
ENDBRANCH  59  60
ENDBRANCH  58  59
ENDBRANCH  54  58
ENDBRANCH  53  54
ENDBRANCH  49  53
ENDBRANCH  48  50
ENDBRANCH   1  48
BRANCH  23  64
ATOM     64  C   LIG    1        9.849   0.918  10.561  0.00  0.00    +0.187 C 
BRANCH  64  65
ATOM     65  O   LIG    1        9.452   2.245  10.238  0.00  0.00    -0.393 OA
ATOM     66  H   LIG    1       10.177   2.859  10.493  0.00  0.00    +0.209 HD
ENDBRANCH  64  65
ENDBRANCH  23  64
TORSDOF 15
