REMARK  Name = *****
REMARK                            x       y       z     vdW  Elec       q    Type
REMARK                         _______ _______ _______ _____ _____    ______ ____
ROOT
ATOM      1  N   LIG    1        4.947  -1.753   0.418  0.00  0.00    -0.284 N 
ATOM      2  H   LIG    1        4.084  -1.752   0.939  0.00  0.00    +0.155 HD
ATOM      3  C   LIG    1        5.246  -0.534  -0.212  0.00  0.00    +0.231 C 
ATOM      4  O   LIG    1        6.019  -0.416  -1.144  0.00  0.00    -0.274 OA
ENDROOT
BRANCH   1  11
ATOM      5  C   LIG    1        6.378  -7.127  -1.126  0.00  0.00    +0.045 C 
ATOM      6  C   LIG    1        5.951  -5.729  -0.766  0.00  0.00    -0.036 A 
ATOM      7  C   LIG    1        4.621  -5.293  -0.778  0.00  0.00    +0.025 A 
ATOM      8 BR   LIG    1        3.256  -6.549  -1.270  0.00  0.00    -0.050 Br
ATOM      9  C   LIG    1        4.283  -3.952  -0.444  0.00  0.00    -0.015 A 
ATOM     10  C   LIG    1        2.834  -3.527  -0.566  0.00  0.00    +0.046 C 
ATOM     11  C   LIG    1        5.318  -3.026  -0.110  0.00  0.00    +0.040 A 
ATOM     12  C   LIG    1        6.664  -3.454  -0.148  0.00  0.00    -0.029 A 
ATOM     13  C   LIG    1        7.870  -2.623   0.207  0.00  0.00    +0.045 C 
ATOM     14  C   LIG    1        6.945  -4.802  -0.451  0.00  0.00    +0.009 A 
ENDBRANCH   1  11
BRANCH   3  15
ATOM     15  C   LIG    1        4.432   0.672   0.395  0.00  0.00    +0.181 C 
BRANCH  15  16
ATOM     16  N   LIG    1        4.144   1.825  -0.553  0.00  0.00    -0.274 NA
BRANCH  16  17
ATOM     17  C   LIG    1        5.426   2.510  -0.910  0.00  0.00    +0.206 C 
BRANCH  17  18
ATOM     18  C   LIG    1        5.320   3.771  -1.768  0.00  0.00    +0.319 C 
ATOM     19  O   LIG    1        6.314   4.365  -2.178  0.00  0.00    -0.250 OA
BRANCH  18  20
ATOM     20  O   LIG    1        4.086   4.214  -2.061  0.00  0.00    -0.480 OA
ATOM     21  H   LIG    1        3.410   3.732  -1.536  0.00  0.00    +0.295 HD
ENDBRANCH  18  20
ENDBRANCH  17  18
ENDBRANCH  16  17
BRANCH  16  22
ATOM     22  C   LIG    1        3.388   1.321  -1.732  0.00  0.00    +0.206 C 
BRANCH  22  23
ATOM     23  C   LIG    1        2.004   0.859  -1.367  0.00  0.00    +0.319 C 
ATOM     24  O   LIG    1        1.324   0.069  -2.019  0.00  0.00    -0.250 OA
BRANCH  23  25
ATOM     25  O   LIG    1        1.412   1.466  -0.307  0.00  0.00    -0.480 OA
ATOM     26  H   LIG    1        0.511   1.085  -0.259  0.00  0.00    +0.295 HD
ENDBRANCH  23  25
ENDBRANCH  22  23
ENDBRANCH  16  22
ENDBRANCH  15  16
ENDBRANCH   3  15
TORSDOF 9
