REMARK  Name = *****
REMARK                            x       y       z     vdW  Elec       q    Type
REMARK                         _______ _______ _______ _____ _____    ______ ____
ROOT
ATOM      1  C   LIG    1        6.705  -1.382  -0.662  0.00  0.00    -0.025 A 
ATOM      2  C   LIG    1        7.812  -2.018  -1.237  0.00  0.00    +0.008 A 
ATOM      3  C   LIG    1        8.963  -1.285  -1.567  0.00  0.00    +0.008 A 
ATOM      4  C   LIG    1        9.020   0.094  -1.331  0.00  0.00    -0.025 A 
ATOM      5  C   LIG    1        7.920   0.725  -0.742  0.00  0.00    +0.008 A 
ATOM      6  C   LIG    1        6.772  -0.009  -0.410  0.00  0.00    +0.008 A 
ENDROOT
BRANCH   1  12
ATOM      7  C   LIG    1        3.391  -5.888   1.957  0.00  0.00    +0.012 C 
ATOM      8  C   LIG    1        4.471  -4.856   1.578  0.00  0.00    -0.014 C 
ATOM      9  C   LIG    1        5.120  -4.063   2.766  0.00  0.00    +0.061 C 
ATOM     10  C   LIG    1        5.838  -2.936   1.998  0.00  0.00    +0.168 C 
ATOM     11  C   LIG    1        5.087  -2.728   0.714  0.00  0.00    -0.000 C 
ATOM     12  C   LIG    1        5.455  -2.110  -0.416  0.00  0.00    +0.015 C 
ATOM     13  O   LIG    1        6.744  -2.238   2.415  0.00  0.00    -0.292 OA
ATOM     14  C   LIG    1        3.920  -3.292   3.376  0.00  0.00    +0.018 C 
ATOM     15  C   LIG    1        3.056  -2.957   2.132  0.00  0.00    +0.010 C 
ATOM     16  C   LIG    1        3.848  -3.574   0.951  0.00  0.00    +0.029 C 
ATOM     17  C   LIG    1        5.445  -5.561   0.606  0.00  0.00    +0.012 C 
BRANCH   9  18
ATOM     18  C   LIG    1        6.085  -4.737   3.730  0.00  0.00    +0.213 C 
BRANCH  18  19
ATOM     19  S   LIG    1        5.396  -5.995   4.793  0.00  0.00    +0.081 S 
ATOM     20  O   LIG    1        5.247  -7.237   4.083  0.00  0.00    -0.147 OA
ATOM     21  O   LIG    1        4.345  -5.446   5.627  0.00  0.00    -0.147 OA
BRANCH  19  22
ATOM     22  O   LIG    1        6.655  -6.174   5.785  0.00  0.00    -0.254 OA
ATOM     23  H   LIG    1        6.310  -6.210   6.704  0.00  0.00    +0.244 HD
ENDBRANCH  19  22
ENDBRANCH  18  19
ENDBRANCH   9  18
ENDBRANCH   1  12
BRANCH   4  24
ATOM     24  C   LIG    1       10.201   0.871  -1.720  0.00  0.00    +0.015 C 
ATOM     25  C   LIG    1       11.224   1.130  -0.899  0.00  0.00    -0.000 C 
ATOM     26  C   LIG    1       11.508   0.734   0.531  0.00  0.00    +0.029 C 
ATOM     27  C   LIG    1       13.020   0.346   0.463  0.00  0.00    -0.014 C 
ATOM     28  C   LIG    1       13.275  -0.854  -0.480  0.00  0.00    +0.012 C 
ATOM     29  C   LIG    1       13.561  -0.041   1.850  0.00  0.00    +0.012 C 
ATOM     30  C   LIG    1       13.451   1.749  -0.087  0.00  0.00    +0.061 C 
ATOM     31  C   LIG    1       12.815   2.753   0.913  0.00  0.00    +0.018 C 
ATOM     32  C   LIG    1       11.518   2.036   1.365  0.00  0.00    +0.010 C 
ATOM     33  C   LIG    1       12.488   1.851  -1.282  0.00  0.00    +0.168 C 
ATOM     34  O   LIG    1       12.675   2.447  -2.327  0.00  0.00    -0.292 OA
BRANCH  30  35
ATOM     35  C   LIG    1       14.881   2.040  -0.518  0.00  0.00    +0.213 C 
BRANCH  35  36
ATOM     36  S   LIG    1       16.128   1.950   0.759  0.00  0.00    +0.081 S 
ATOM     37  O   LIG    1       16.501   0.577   1.006  0.00  0.00    -0.147 OA
ATOM     38  O   LIG    1       15.844   2.877   1.827  0.00  0.00    -0.147 OA
BRANCH  36  39
ATOM     39  O   LIG    1       17.347   2.620  -0.057  0.00  0.00    -0.254 OA
ATOM     40  H   LIG    1       17.774   3.277   0.535  0.00  0.00    +0.244 HD
ENDBRANCH  36  39
ENDBRANCH  35  36
ENDBRANCH  30  35
ENDBRANCH   4  24
TORSDOF 8
