REMARK  Name = *****
REMARK                            x       y       z     vdW  Elec       q    Type
REMARK                         _______ _______ _______ _____ _____    ______ ____
ROOT
ATOM      1  C   LIG    1        9.235  -2.938  -4.043  0.00  0.00    +0.044 C 
ATOM      2  C   LIG    1        9.206  -4.378  -4.610  0.00  0.00    +0.122 C 
ATOM      3  C   LIG    1        8.529  -4.231  -5.976  0.00  0.00    +0.036 C 
ATOM      4  C   LIG    1        7.527  -3.075  -5.801  0.00  0.00    -0.001 C 
ATOM      5  C   LIG    1        7.688  -1.923  -6.796  0.00  0.00    +0.034 C 
ATOM      6  C   LIG    1        7.592  -0.657  -5.973  0.00  0.00    -0.073 C 
ATOM      7  C   LIG    1        7.655   0.569  -6.526  0.00  0.00    -0.027 C 
ATOM      8  C   LIG    1        7.473  -0.989  -4.510  0.00  0.00    +0.035 C 
ATOM      9  C   LIG    1        7.801  -2.476  -4.413  0.00  0.00    +0.006 C 
ENDROOT
BRANCH   1  11
ATOM     10  C   LIG    1       11.681  -2.341  -4.345  0.00  0.00    +0.000 C 
ATOM     11  C   LIG    1       10.380  -2.096  -4.591  0.00  0.00    -0.022 C 
BRANCH  10  12
ATOM     12  C   LIG    1       12.845  -1.491  -4.820  0.00  0.00    +0.141 C 
BRANCH  12  13
ATOM     13  C   LIG    1       14.042  -1.505  -3.829  0.00  0.00    +0.030 C 
ATOM     14  C   LIG    1       13.610  -1.006  -2.443  0.00  0.00    +0.011 C 
BRANCH  13  15
ATOM     15  C   LIG    1       15.231  -0.644  -4.327  0.00  0.00    +0.095 C 
BRANCH  15  18
ATOM     16  C   LIG    1       18.369  -0.920  -1.646  0.00  0.00    +0.106 C 
ATOM     17  C   LIG    1       17.309  -0.807  -2.631  0.00  0.00    -0.106 C 
ATOM     18  C   LIG    1       16.392  -0.735  -3.427  0.00  0.00    -0.102 C 
ENDBRANCH  15  18
ENDBRANCH  13  15
ENDBRANCH  12  13
BRANCH  12  19
ATOM     19  O   LIG    1       13.274  -1.998  -6.082  0.00  0.00    -0.388 OA
ATOM     20  H   LIG    1       13.158  -2.963  -6.076  0.00  0.00    +0.210 HD
ENDBRANCH  12  19
ENDBRANCH  10  12
ENDBRANCH   1  11
BRANCH   2  21
ATOM     21  O   LIG    1        8.401  -5.208  -3.765  0.00  0.00    -0.391 OA
ATOM     22  H   LIG    1        8.210  -6.031  -4.247  0.00  0.00    +0.210 HD
ENDBRANCH   2  21
BRANCH   7  23
ATOM     23  C   LIG    1        7.527   1.911  -5.843  0.00  0.00    +0.028 C 
BRANCH  23  24
ATOM     24  C   LIG    1        8.870   2.490  -5.386  0.00  0.00    +0.015 C 
BRANCH  24  25
ATOM     25  C   LIG    1        8.741   3.855  -4.691  0.00  0.00    +0.121 C 
BRANCH  25  26
ATOM     26  C   LIG    1       10.100   4.362  -4.260  0.00  0.00    +0.307 C 
ATOM     27  O   LIG    1       11.076   3.648  -4.078  0.00  0.00    -0.251 OA
BRANCH  26  28
ATOM     28  O   LIG    1       10.080   5.710  -4.069  0.00  0.00    -0.457 OA
BRANCH  28  29
ATOM     29  C   LIG    1       11.308   6.276  -3.597  0.00  0.00    +0.311 C 
BRANCH  29  30
ATOM     30  C   LIG    1       11.455   6.179  -2.070  0.00  0.00    +0.200 C 
ATOM     31  O   LIG    1       10.941   7.007  -1.319  0.00  0.00    -0.288 OA
BRANCH  30  32
ATOM     32  C   LIG    1       12.188   5.012  -1.495  0.00  0.00    +0.021 A 
ATOM     33  C   LIG    1       11.785   4.428  -0.287  0.00  0.00    +0.011 A 
ATOM     34  C   LIG    1       12.401   3.246   0.150  0.00  0.00    +0.001 A 
ATOM     35  C   LIG    1       13.446   2.679  -0.584  0.00  0.00    +0.000 A 
ATOM     36  C   LIG    1       13.886   3.296  -1.749  0.00  0.00    +0.001 A 
ATOM     37  C   LIG    1       13.259   4.454  -2.199  0.00  0.00    +0.011 A 
ENDBRANCH  30  32
ENDBRANCH  29  30
ENDBRANCH  28  29
ENDBRANCH  26  28
ENDBRANCH  25  26
ENDBRANCH  24  25
ENDBRANCH  23  24
ENDBRANCH   7  23
TORSDOF 15
