REMARK  Name = *****
REMARK                            x       y       z     vdW  Elec       q    Type
REMARK                         _______ _______ _______ _____ _____    ______ ____
ROOT
ATOM      1  C   LIG    1       -2.162   7.963  -0.526  0.00  0.00    +0.012 C 
ATOM      2  C   LIG    1       -2.999   6.681  -0.402  0.00  0.00    +0.013 C 
ATOM      3  C   LIG    1       -2.216   5.380  -0.344  0.00  0.00    -0.053 C 
ATOM      4  C   LIG    1       -3.069   4.167   0.048  0.00  0.00    +0.013 C 
ATOM      5  C   LIG    1       -3.460   4.327   1.534  0.00  0.00    +0.020 C 
ATOM      6  C   LIG    1       -2.252   2.873   0.013  0.00  0.00    -0.012 C 
ATOM      7  C   LIG    1       -0.949   2.791  -0.282  0.00  0.00    +0.047 C 
ATOM      8  C   LIG    1       -0.179   4.000  -0.612  0.00  0.00    +0.179 C 
ATOM      9  O   LIG    1        1.020   3.938  -0.872  0.00  0.00    -0.288 OA
ATOM     10  C   LIG    1       -4.250   4.020  -0.991  0.00  0.00    +0.035 C 
ATOM     11  C   LIG    1       -4.833   5.316  -1.640  0.00  0.00    +0.000 C 
ATOM     12  C   LIG    1       -6.331   5.581  -1.389  0.00  0.00    +0.002 C 
ATOM     13  C   LIG    1       -7.263   4.405  -1.828  0.00  0.00    +0.009 C 
ATOM     14  C   LIG    1       -7.571   4.490  -3.346  0.00  0.00    +0.015 C 
ATOM     15  C   LIG    1       -6.545   3.038  -1.589  0.00  0.00    +0.042 C 
ATOM     16  C   LIG    1       -8.553   4.756  -1.015  0.00  0.00    +0.132 C 
ATOM     17  C   LIG    1       -8.040   5.181   0.355  0.00  0.00    +0.043 C 
ATOM     18  C   LIG    1       -6.729   5.924   0.060  0.00  0.00    +0.007 C 
ATOM     19  C   LIG    1       -5.357   3.002  -0.625  0.00  0.00    +0.120 C 
ATOM     20  C   LIG    1       -0.904   5.287  -0.633  0.00  0.00    +0.051 C 
ATOM     21  C   LIG    1       -3.974   6.594  -1.572  0.00  0.00    +0.012 C 
ENDROOT
BRANCH  16  22
ATOM     22  O   LIG    1       -9.101   5.987  -1.587  0.00  0.00    -0.380 OA
ATOM     23  H   LIG    1       -9.982   6.114  -1.177  0.00  0.00    +0.211 HD
ENDBRANCH  16  22
BRANCH  16  24
ATOM     24  C   LIG    1       -9.799   3.844  -0.945  0.00  0.00    +0.190 C 
ATOM     25  O   LIG    1      -10.928   4.361  -0.907  0.00  0.00    -0.292 OA
BRANCH  24  26
ATOM     26  C   LIG    1       -9.687   2.340  -0.822  0.00  0.00    +0.233 C 
BRANCH  26  27
ATOM     27  O   LIG    1       -9.176   1.938   0.434  0.00  0.00    -0.387 OA
ATOM     28  H   LIG    1       -9.900   2.073   1.076  0.00  0.00    +0.210 HD
ENDBRANCH  26  27
ENDBRANCH  24  26
ENDBRANCH  16  24
BRANCH  19  29
ATOM     29  O   LIG    1       -5.838   3.142   0.698  0.00  0.00    -0.391 OA
ATOM     30  H   LIG    1       -6.454   2.406   0.877  0.00  0.00    +0.210 HD
ENDBRANCH  19  29
TORSDOF 5
