REMARK  Name = *****
REMARK                            x       y       z     vdW  Elec       q    Type
REMARK                         _______ _______ _______ _____ _____    ______ ____
ROOT
ATOM      1  C   LIG    1        4.248 -16.605  -6.478  0.00  0.00    +0.150 C 
ATOM      2  C   LIG    1        3.966 -18.088  -7.019  0.00  0.00    +0.060 C 
ATOM      3  C   LIG    1        4.974 -18.362  -8.172  0.00  0.00    +0.014 C 
ATOM      4  C   LIG    1        2.530 -18.535  -7.510  0.00  0.00    +0.187 C 
ATOM      5  C   LIG    1        2.503 -20.080  -8.001  0.00  0.00    +0.056 C 
ATOM      6  C   LIG    1        1.367 -20.300  -8.992  0.00  0.00    +0.014 C 
ATOM      7  C   LIG    1        2.636 -21.101  -6.808  0.00  0.00    +0.126 C 
ATOM      8  C   LIG    1        1.789 -22.420  -6.530  0.00  0.00    +0.044 C 
ATOM      9  C   LIG    1        0.448 -22.615  -7.233  0.00  0.00    +0.013 C 
ATOM     10  C   LIG    1        1.594 -22.580  -4.966  0.00  0.00    +0.126 C 
ATOM     11  C   LIG    1        2.198 -23.826  -4.207  0.00  0.00    +0.037 C 
ATOM     12  C   LIG    1        2.882 -24.892  -5.050  0.00  0.00    +0.014 C 
ATOM     13  C   LIG    1        3.078 -23.259  -3.096  0.00  0.00    -0.021 C 
ATOM     14  C   LIG    1        4.260 -22.664  -3.363  0.00  0.00    -0.003 C 
ATOM     15  C   LIG    1        4.394 -21.294  -2.898  0.00  0.00    +0.008 C 
ATOM     16  C   LIG    1        5.213 -20.311  -3.327  0.00  0.00    +0.011 C 
ATOM     17  C   LIG    1        4.529 -18.974  -3.293  0.00  0.00    +0.049 C 
ATOM     18  C   LIG    1        6.521 -20.533  -4.037  0.00  0.00    +0.244 C 
ATOM     19  O   LIG    1        6.783 -21.638  -4.527  0.00  0.00    -0.270 OA
ATOM     20  N   LIG    1        7.492 -19.587  -4.255  0.00  0.00    -0.278 N 
ATOM     21  H   LIG    1        8.126 -19.964  -4.946  0.00  0.00    +0.155 HD
ATOM     22  C   LIG    1        7.719 -18.244  -3.878  0.00  0.00    +0.089 A 
ATOM     23  C   LIG    1        8.522 -17.197  -5.130  0.00  0.00    +0.150 A 
ATOM     24  C   LIG    1        8.521 -15.375  -5.013  0.00  0.00    +0.071 A 
ATOM     25  C   LIG    1        7.848 -14.640  -3.457  0.00  0.00    +0.046 A 
ATOM     26  C   LIG    1        6.967 -15.695  -2.248  0.00  0.00    +0.136 A 
ATOM     27  C   LIG    1        8.824 -13.944  -2.849  0.00  0.00    +0.079 A 
ATOM     28  C   LIG    1        9.212 -15.057  -1.979  0.00  0.00    +0.251 C 
ATOM     29  C   LIG    1        9.041 -16.286  -2.976  0.00  0.00    +0.314 C 
ATOM     30  O   LIG    1       10.345 -15.482  -3.640  0.00  0.00    -0.444 OA
ATOM     31  C   LIG    1        9.806 -17.544  -2.433  0.00  0.00    +0.114 C 
ATOM     32  O   LIG    1        7.322 -16.395  -3.965  0.00  0.00    -0.453 OA
ATOM     33  C   LIG    1        6.081 -15.959  -4.650  0.00  0.00    +0.190 C 
ATOM     34  O   LIG    1        9.593 -15.013  -0.843  0.00  0.00    -0.284 OA
ATOM     35  C   LIG    1        9.957 -13.872  -3.661  0.00  0.00    +0.143 A 
ATOM     36  C   LIG    1        9.965 -13.613  -5.066  0.00  0.00    +0.034 A 
ATOM     37  C   LIG    1       10.938 -12.633  -5.628  0.00  0.00    +0.051 C 
ATOM     38  C   LIG    1        9.285 -14.543  -5.804  0.00  0.00    +0.135 A 
ATOM     39  C   LIG    1        7.003 -17.477  -2.418  0.00  0.00    +0.061 A 
ATOM     40  C   LIG    1        5.578 -16.644  -5.699  0.00  0.00    +0.042 C 
ENDROOT
BRANCH   1  42
ATOM     41  C   LIG    1        3.251 -14.701  -5.414  0.00  0.00    +0.194 C 
ATOM     42  O   LIG    1        3.185 -16.107  -5.668  0.00  0.00    -0.375 OA
ENDBRANCH   1  42
BRANCH   7  43
ATOM     43  O   LIG    1        4.022 -21.543  -6.834  0.00  0.00    -0.391 OA
ATOM     44  H   LIG    1        4.115 -22.223  -7.526  0.00  0.00    +0.210 HD
ENDBRANCH   7  43
BRANCH  10  45
ATOM     45  O   LIG    1        0.211 -22.433  -4.585  0.00  0.00    -0.391 OA
ATOM     46  H   LIG    1       -0.235 -23.286  -4.719  0.00  0.00    +0.210 HD
ENDBRANCH  10  45
BRANCH  26  47
ATOM     47  O   LIG    1        6.541 -15.104  -1.086  0.00  0.00    -0.505 OA
ATOM     48  H   LIG    1        6.287 -15.826  -0.467  0.00  0.00    +0.292 HD
ENDBRANCH  26  47
BRANCH  38  49
ATOM     49  O   LIG    1        9.608 -14.809  -7.087  0.00  0.00    -0.506 OA
ATOM     50  H   LIG    1        9.265 -15.701  -7.284  0.00  0.00    +0.292 HD
ENDBRANCH  38  49
BRANCH  23  51
ATOM     51  O   LIG    1        9.055 -17.725  -6.278  0.00  0.00    -0.504 OA
ATOM     52  H   LIG    1        9.074 -18.690  -6.191  0.00  0.00    +0.292 HD
ENDBRANCH  23  51
BRANCH  39  53
ATOM     53  C   LIG    1        6.674 -18.277  -1.233  0.00  0.00    +0.143 C 
ATOM     54  N   LIG    1        6.383 -17.693  -0.114  0.00  0.00    -0.192 NA
BRANCH  54  55
ATOM     55  N   LIG    1        6.046 -18.580   0.870  0.00  0.00    -0.253 N 
ATOM     56  C   LIG    1        4.616 -18.972   0.857  0.00  0.00    +0.141 C 
ATOM     57  C   LIG    1        4.177 -19.862   2.031  0.00  0.00    +0.104 C 
ATOM     58  N   LIG    1        4.503 -19.314   3.357  0.00  0.00    -0.302 NA
ATOM     59  C   LIG    1        3.740 -18.095   3.640  0.00  0.00    +0.105 C 
ATOM     60  C   LIG    1        5.954 -19.055   3.389  0.00  0.00    +0.104 C 
ATOM     61  C   LIG    1        6.482 -18.178   2.230  0.00  0.00    +0.141 C 
ENDBRANCH  54  55
ENDBRANCH  39  53
BRANCH   4  62
ATOM     62  O   LIG    1        1.531 -18.419  -6.467  0.00  0.00    -0.461 OA
BRANCH  62  63
ATOM     63  C   LIG    1        0.320 -17.879  -6.806  0.00  0.00    +0.304 C 
ATOM     64  O   LIG    1        0.083 -17.228  -7.809  0.00  0.00    -0.251 OA
ATOM     65  C   LIG    1       -0.729 -18.312  -5.817  0.00  0.00    +0.136 C 
ENDBRANCH  62  63
ENDBRANCH   4  62
TORSDOF 10
