REMARK  Name = *****
REMARK                            x       y       z     vdW  Elec       q    Type
REMARK                         _______ _______ _______ _____ _____    ______ ____
ROOT
ATOM      1  C   LIG    1        9.032  -5.133   3.524  0.00  0.00    -0.024 A 
ATOM      2  C   LIG    1        9.230  -6.280   4.310  0.00  0.00    +0.044 A 
ATOM      3 CL   LIG    1        8.466  -6.484   5.847  0.00  0.00    -0.083 Cl
ATOM      4  C   LIG    1       10.066  -7.305   3.869  0.00  0.00    +0.020 A 
ATOM      5  C   LIG    1       10.704  -7.214   2.629  0.00  0.00    +0.008 A 
ATOM      6  C   LIG    1       10.531  -6.092   1.806  0.00  0.00    -0.016 A 
ATOM      7  C   LIG    1        9.720  -5.053   2.295  0.00  0.00    +0.011 A 
ENDROOT
BRANCH   6   8
ATOM      8  C   LIG    1       11.299  -5.892   0.500  0.00  0.00    +0.180 C 
ATOM      9  C   LIG    1       11.927  -7.132  -0.178  0.00  0.00    +0.179 C 
ATOM     10  C   LIG    1       10.933  -7.841  -1.101  0.00  0.00    +0.177 C 
ATOM     11  C   LIG    1       10.391  -6.855  -2.136  0.00  0.00    +0.176 C 
ATOM     12  C   LIG    1        9.853  -5.560  -1.501  0.00  0.00    +0.175 C 
ATOM     13  O   LIG    1       10.649  -5.009  -0.435  0.00  0.00    -0.361 OA
BRANCH   9  14
ATOM     14  O   LIG    1       13.068  -6.721  -0.967  0.00  0.00    -0.386 OA
ATOM     15  H   LIG    1       13.729  -6.361  -0.346  0.00  0.00    +0.210 HD
ENDBRANCH   9  14
BRANCH  10  16
ATOM     16  O   LIG    1        9.879  -8.445  -0.357  0.00  0.00    -0.387 OA
ATOM     17  H   LIG    1        9.377  -9.013  -0.971  0.00  0.00    +0.210 HD
ENDBRANCH  10  16
BRANCH  11  18
ATOM     18  O   LIG    1       11.426  -6.533  -3.079  0.00  0.00    -0.387 OA
ATOM     19  H   LIG    1       12.237  -6.344  -2.559  0.00  0.00    +0.210 HD
ENDBRANCH  11  18
BRANCH  12  20
ATOM     20  C   LIG    1        8.378  -5.678  -1.087  0.00  0.00    +0.190 C 
BRANCH  20  21
ATOM     21  O   LIG    1        7.826  -4.383  -0.834  0.00  0.00    -0.392 OA
ATOM     22  H   LIG    1        8.465  -3.915  -0.263  0.00  0.00    +0.209 HD
ENDBRANCH  20  21
ENDBRANCH  12  20
ENDBRANCH   6   8
BRANCH   1  23
ATOM     23  C   LIG    1        8.089  -4.033   3.981  0.00  0.00    +0.071 C 
BRANCH  23  27
ATOM     24  C   LIG    1        7.598  -0.752   1.187  0.00  0.00    +0.120 A 
ATOM     25  C   LIG    1        8.579  -0.684   2.185  0.00  0.00    +0.046 A 
ATOM     26  C   LIG    1        8.731  -1.732   3.103  0.00  0.00    +0.007 A 
ATOM     27  C   LIG    1        7.906  -2.858   3.040  0.00  0.00    -0.043 A 
ATOM     28  C   LIG    1        6.915  -2.910   2.045  0.00  0.00    +0.007 A 
ATOM     29  C   LIG    1        6.748  -1.849   1.149  0.00  0.00    +0.046 A 
BRANCH  24  30
ATOM     30  O   LIG    1        7.573   0.304   0.310  0.00  0.00    -0.492 OA
BRANCH  30  32
ATOM     31  C   LIG    1        7.496   1.040  -1.982  0.00  0.00    +0.048 C 
ATOM     32  C   LIG    1        6.986   0.029  -0.967  0.00  0.00    +0.226 C 
ENDBRANCH  30  32
ENDBRANCH  24  30
ENDBRANCH  23  27
ENDBRANCH   1  23
TORSDOF 10
