REMARK  Name = *****
REMARK                            x       y       z     vdW  Elec       q    Type
REMARK                         _______ _______ _______ _____ _____    ______ ____
ROOT
ATOM      1  C   LIG    1       -3.865  -3.679  -0.570  0.00  0.00    +0.061 C 
ATOM      2  C   LIG    1       -4.967  -3.095  -1.497  0.00  0.00    -0.019 C 
ATOM      3  C   LIG    1       -4.425  -2.774  -2.915  0.00  0.00    +0.012 C 
ATOM      4  C   LIG    1       -5.319  -1.765  -0.768  0.00  0.00    -0.001 C 
ATOM      5  C   LIG    1       -6.246  -1.937   0.467  0.00  0.00    -0.003 C 
ATOM      6  C   LIG    1       -7.497  -2.818   0.213  0.00  0.00    +0.002 C 
ATOM      7  C   LIG    1       -7.069  -4.152  -0.428  0.00  0.00    +0.005 C 
ATOM      8  C   LIG    1       -8.765  -2.113  -0.424  0.00  0.00    -0.007 C 
ATOM      9  C   LIG    1      -10.002  -2.995  -0.074  0.00  0.00    +0.016 C 
ATOM     10  C   LIG    1       -8.951  -0.690   0.122  0.00  0.00    -0.060 C 
ATOM     11  C   LIG    1      -10.091  -0.013  -0.132  0.00  0.00    +0.046 C 
ATOM     12  C   LIG    1      -10.226   0.147  -1.629  0.00  0.00    +0.156 C 
ATOM     13  O   LIG    1      -10.758   1.160  -2.078  0.00  0.00    -0.293 OA
ATOM     14  C   LIG    1       -9.848  -1.035  -2.514  0.00  0.00    +0.080 C 
ATOM     15  C   LIG    1       -7.699   0.139   0.290  0.00  0.00    +0.032 C 
ATOM     16  C   LIG    1       -8.720  -1.925  -1.960  0.00  0.00    +0.019 C 
ATOM     17  C   LIG    1       -6.663  -0.605   1.113  0.00  0.00    +0.008 C 
ATOM     18  C   LIG    1       -3.929  -1.230  -0.365  0.00  0.00    +0.005 C 
ATOM     19  C   LIG    1       -6.182  -4.022  -1.660  0.00  0.00    +0.008 C 
ATOM     20  C   LIG    1       -3.036  -2.455  -0.158  0.00  0.00    +0.012 C 
ENDROOT
BRANCH   1  22
ATOM     21  C   LIG    1       -1.792  -5.216  -0.320  0.00  0.00    +0.086 C 
ATOM     22  C   LIG    1       -3.006  -4.818  -1.124  0.00  0.00    +0.134 C 
ATOM     23  O   LIG    1       -3.322  -5.466  -2.122  0.00  0.00    -0.297 OA
ENDBRANCH   1  22
TORSDOF 1
