REMARK  Name = *****
REMARK                            x       y       z     vdW  Elec       q    Type
REMARK                         _______ _______ _______ _____ _____    ______ ____
ROOT
ATOM      1  C   LIG    1        6.439  -0.296  -3.007  0.00  0.00    +0.383 C 
ATOM      2  C   LIG    1        6.090  -1.148  -4.259  0.00  0.00    +0.284 C 
ATOM      3  O   LIG    1        4.959  -1.624  -4.428  0.00  0.00    -0.269 OA
ATOM      4  N   LIG    1        7.140  -1.434  -5.155  0.00  0.00    -0.269 N 
ATOM      5  C   LIG    1        6.864  -2.442  -6.172  0.00  0.00    +0.138 C 
ATOM      6  C   LIG    1        8.475  -0.929  -5.016  0.00  0.00    +0.045 A 
ATOM      7  C   LIG    1        8.775   0.314  -4.421  0.00  0.00    +0.023 A 
ATOM      8  C   LIG    1       10.105   0.696  -4.170  0.00  0.00    +0.032 A 
ATOM      9  C   LIG    1       11.150  -0.099  -4.621  0.00  0.00    +0.042 A 
ATOM     10  C   LIG    1       10.883  -1.277  -5.306  0.00  0.00    +0.022 A 
ATOM     11 CL   LIG    1       12.776   0.398  -4.374  0.00  0.00    -0.084 Cl
ATOM     12  C   LIG    1        7.716   1.325  -4.145  0.00  0.00    +0.079 C 
ATOM     13  C   LIG    1        9.559  -1.694  -5.488  0.00  0.00    +0.025 A 
ATOM     14  N   LIG    1        6.642   1.071  -3.481  0.00  0.00    -0.232 NA
ENDROOT
BRANCH  12  15
ATOM     15  C   LIG    1        7.878   2.716  -4.689  0.00  0.00    +0.001 A 
ATOM     16  C   LIG    1        7.238   3.780  -4.038  0.00  0.00    +0.010 A 
ATOM     17  C   LIG    1        7.347   5.079  -4.537  0.00  0.00    +0.001 A 
ATOM     18  C   LIG    1        8.091   5.324  -5.690  0.00  0.00    +0.000 A 
ATOM     19  C   LIG    1        8.715   4.270  -6.354  0.00  0.00    +0.001 A 
ATOM     20  C   LIG    1        8.603   2.967  -5.862  0.00  0.00    +0.010 A 
ENDBRANCH  12  15
BRANCH   1  21
ATOM     21  O   LIG    1        5.351  -0.453  -2.095  0.00  0.00    -0.416 OA
BRANCH  21  24
ATOM     22  C   LIG    1        3.298  -0.937  -0.467  0.00  0.00    +0.135 C 
ATOM     23  N   LIG    1        4.473  -0.196  -0.021  0.00  0.00    -0.274 N 
ATOM     24  C   LIG    1        5.600  -0.070  -0.815  0.00  0.00    +0.405 C 
ATOM     25  O   LIG    1        6.686   0.313  -0.406  0.00  0.00    -0.226 OA
ATOM     26  C   LIG    1        4.587   0.060   1.399  0.00  0.00    +0.135 C 
ENDBRANCH  21  24
ENDBRANCH   1  21
TORSDOF 3
