REMARK  Name = *****
REMARK                            x       y       z     vdW  Elec       q    Type
REMARK                         _______ _______ _______ _____ _____    ______ ____
ROOT
ATOM      1  C   UNK A  1        3.216   2.940  -0.198  0.00  0.00    +0.216 C 
ATOM      2  N   UNK A  1        2.621   4.184  -0.126  0.00  0.00    -0.302 N 
ATOM      3  H   UNK A  1        2.956   4.846   0.563  0.00  0.00    +0.149 HD
ATOM      4  O   UNK A  1        2.828   2.060  -0.960  0.00  0.00    -0.276 OA
ENDROOT
BRANCH   1   5
ATOM      5  C   UNK A  1        4.371   2.739   0.796  0.00  0.00    +0.129 C 
BRANCH   5   6
ATOM      6  C   UNK A  1        5.427   1.734   0.293  0.00  0.00    +0.190 C 
BRANCH   6   9
ATOM      7  C   UNK A  0        8.426   1.610   2.796  0.00  0.00    +0.109 C 
ATOM      8  C   UNK A  0        7.418   2.230   1.852  0.00  0.00    +0.211 C 
ATOM      9  N   UNK A  1        6.512   1.368   1.278  0.00  0.00    -0.302 N 
ATOM     10  H   UNK A  1        6.460   0.432   1.671  0.00  0.00    +0.149 HD
ATOM     11  O   UNK A  0        7.466   3.415   1.529  0.00  0.00    -0.276 OA
ENDBRANCH   6   9
BRANCH   6  12
ATOM     12  C   UNK A  1        5.974   2.190  -1.088  0.00  0.00    +0.326 C 
ATOM     13  O   UNK A  1        5.287   2.545  -2.036  0.00  0.00    -0.249 OA
BRANCH  12  14
ATOM     14  O   UNK A  1        7.317   2.154  -1.205  0.00  0.00    -0.479 OA
ATOM     15  H   UNK A  1        7.733   1.956  -0.348  0.00  0.00    +0.295 HD
ENDBRANCH  12  14
ENDBRANCH   6  12
ENDBRANCH   5   6
ENDBRANCH   1   5
BRANCH   2  16
ATOM     16  C   UNK A  1        1.511   4.590  -1.000  0.00  0.00    +0.182 C 
BRANCH  16  17
ATOM     17  C   UNK A  1        0.144   4.616  -0.283  0.00  0.00    +0.325 C 
ATOM     18  O   UNK A  1       -0.020   4.466   0.918  0.00  0.00    -0.249 OA
BRANCH  17  19
ATOM     19  O   UNK A  1       -0.897   4.861  -1.118  0.00  0.00    -0.479 OA
ATOM     20  H   UNK A  1       -0.658   5.006  -2.053  0.00  0.00    +0.295 HD
ENDBRANCH  17  19
ENDBRANCH  16  17
BRANCH  16  21
ATOM     21  C   UNK A  1        1.843   5.913  -1.716  0.00  0.00    +0.045 C 
BRANCH  21  22
ATOM     22  C   UNK A  1        1.988   7.161  -0.838  0.00  0.00    +0.123 C 
BRANCH  22  23
ATOM     23  C   UNK A  1        0.705   7.592  -0.169  0.00  0.00    +0.305 C 
ATOM     24  O   UNK A  1       -0.344   7.812  -0.717  0.00  0.00    -0.251 OA
BRANCH  23  25
ATOM     25  O   UNK A  1        0.853   7.689   1.171  0.00  0.00    -0.481 OA
ATOM     26  H   UNK A  1       -0.047   7.901   1.500  0.00  0.00    +0.295 HD
ENDBRANCH  23  25
ENDBRANCH  22  23
ENDBRANCH  21  22
ENDBRANCH  16  21
ENDBRANCH   2  16
TORSDOF 12
