REMARK  Name = *****
REMARK                            x       y       z     vdW  Elec       q    Type
REMARK                         _______ _______ _______ _____ _____    ______ ____
ROOT
ATOM      1  C   LIG    1        0.848   0.306  -0.092  0.00  0.00    +0.157 C 
ATOM      2  N   LIG    1        2.235   0.486   0.393  0.00  0.00    -0.206 N 
ATOM      3  S   LIG    1        2.446   1.914   1.303  0.00  0.00    +0.075 S 
ATOM      4  O   LIG    1        1.890   1.667   2.625  0.00  0.00    -0.150 OA
ATOM      5  O   LIG    1        1.959   3.013   0.499  0.00  0.00    -0.150 OA
ATOM      6  C   LIG    1        4.196   2.220   1.537  0.00  0.00    +0.115 A 
ATOM      7  C   LIG    1        5.245   1.499   0.917  0.00  0.00    +0.001 A 
ATOM      8  C   LIG    1        6.564   1.841   1.285  0.00  0.00    +0.009 A 
ATOM      9  C   LIG    1        6.830   2.875   2.191  0.00  0.00    +0.020 A 
ATOM     10  C   LIG    1        5.783   3.591   2.755  0.00  0.00    +0.043 A 
ATOM     11 CL   LIG    1        6.112   4.877   3.848  0.00  0.00    -0.084 Cl
ATOM     12  C   LIG    1        4.965   0.359  -0.067  0.00  0.00    +0.118 C 
ATOM     13  C   LIG    1        4.285  -0.773   0.690  0.00  0.00    -0.004 A 
ATOM     14  C   LIG    1        4.986  -1.863   1.235  0.00  0.00    +0.007 A 
ATOM     15  C   LIG    1        4.314  -2.851   1.951  0.00  0.00    +0.001 A 
ATOM     16  C   LIG    1        2.946  -2.736   2.178  0.00  0.00    +0.002 A 
ATOM     17  C   LIG    1        2.243  -1.641   1.676  0.00  0.00    +0.025 A 
ATOM     18  C   LIG    1        4.471   3.267   2.440  0.00  0.00    +0.049 A 
ATOM     19  C   LIG    1        2.902  -0.679   0.907  0.00  0.00    +0.056 A 
ENDROOT
BRANCH  12  20
ATOM     20  N   LIG    1        6.137  -0.065  -0.873  0.00  0.00    -0.306 NA
ATOM     21  H   LIG    1        6.846  -0.463  -0.266  0.00  0.00    +0.123 HD
BRANCH  20  22
ATOM     22  C   LIG    1        5.769  -1.037  -1.913  0.00  0.00    +0.082 C 
BRANCH  22  23
ATOM     23  C   LIG    1        6.993  -1.454  -2.736  0.00  0.00    +0.015 C 
BRANCH  23  24
ATOM     24  C   LIG    1        6.612  -2.490  -3.807  0.00  0.00    +0.001 C 
BRANCH  24  25
ATOM     25  C   LIG    1        7.821  -2.926  -4.646  0.00  0.00    +0.001 C 
BRANCH  25  26
ATOM     26  C   LIG    1        7.439  -3.959  -5.716  0.00  0.00    +0.011 C 
BRANCH  26  27
ATOM     27  C   LIG    1        8.636  -4.382  -6.569  0.00  0.00    +0.120 C 
BRANCH  27  28
ATOM     28  C   LIG    1        8.240  -5.407  -7.603  0.00  0.00    +0.305 C 
ATOM     29  O   LIG    1        7.737  -6.495  -7.390  0.00  0.00    -0.251 OA
BRANCH  28  30
ATOM     30  O   LIG    1        8.511  -5.008  -8.861  0.00  0.00    -0.481 OA
ATOM     31  H   LIG    1        8.219  -5.756  -9.423  0.00  0.00    +0.295 HD
ENDBRANCH  28  30
ENDBRANCH  27  28
ENDBRANCH  26  27
ENDBRANCH  25  26
ENDBRANCH  24  25
ENDBRANCH  23  24
ENDBRANCH  22  23
ENDBRANCH  20  22
ENDBRANCH  12  20
TORSDOF 9
