REMARK  Name = *****
REMARK                            x       y       z     vdW  Elec       q    Type
REMARK                         _______ _______ _______ _____ _____    ______ ____
ROOT
ATOM      1  O   LIG    1        1.407  -0.462   0.394  0.00  0.00    -0.273 OA
ATOM      2  C   LIG    1        2.606  -0.482   0.106  0.00  0.00    +0.241 C 
ATOM      3  N   LIG    1        3.391   0.676   0.030  0.00  0.00    -0.269 N 
ATOM      4  C   LIG    1        4.775   0.656  -0.334  0.00  0.00    +0.046 A 
ATOM      5  C   LIG    1        5.668  -0.351   0.091  0.00  0.00    +0.023 A 
ATOM      6  C   LIG    1        7.006  -0.351  -0.343  0.00  0.00    +0.032 A 
ATOM      7  C   LIG    1        7.470   0.666  -1.170  0.00  0.00    +0.042 A 
ATOM      8  C   LIG    1        6.614   1.677  -1.583  0.00  0.00    +0.022 A 
ATOM      9 CL   LIG    1        9.112   0.673  -1.680  0.00  0.00    -0.084 Cl
ATOM     10  C   LIG    1        5.253  -1.445   1.020  0.00  0.00    +0.075 C 
ATOM     11  N   LIG    1        4.186  -2.154   0.851  0.00  0.00    -0.273 NA
ATOM     12  C   LIG    1        5.279   1.673  -1.166  0.00  0.00    +0.025 A 
ATOM     13  C   LIG    1        3.292  -1.797  -0.246  0.00  0.00    +0.238 C 
ENDROOT
BRANCH  10  14
ATOM     14  C   LIG    1        6.106  -1.766   2.213  0.00  0.00    +0.001 A 
ATOM     15  C   LIG    1        6.086  -3.071   2.726  0.00  0.00    +0.010 A 
ATOM     16  C   LIG    1        6.847  -3.401   3.848  0.00  0.00    +0.001 A 
ATOM     17  C   LIG    1        7.627  -2.429   4.470  0.00  0.00    +0.000 A 
ATOM     18  C   LIG    1        7.639  -1.123   3.978  0.00  0.00    +0.001 A 
ATOM     19  C   LIG    1        6.874  -0.787   2.857  0.00  0.00    +0.010 A 
ENDBRANCH  10  14
BRANCH   3  20
ATOM     20  C   LIG    1        2.739   1.955   0.331  0.00  0.00    +0.117 C 
BRANCH  20  21
ATOM     21  C   LIG    1        3.379   2.624   1.519  0.00  0.00    +0.007 C 
ATOM     22  C   LIG    1        4.216   3.873   1.368  0.00  0.00    +0.005 C 
ATOM     23  C   LIG    1        2.852   3.958   1.991  0.00  0.00    +0.005 C 
ENDBRANCH  20  21
ENDBRANCH   3  20
TORSDOF 3
