REMARK  Name = *****
REMARK                            x       y       z     vdW  Elec       q    Type
REMARK                         _______ _______ _______ _____ _____    ______ ____
ROOT
ATOM      1  C   LIG    1        3.202   0.460   1.158  0.00  0.00    +0.072 C 
ATOM      2  C   LIG    1        4.500  -0.258   1.600  0.00  0.00    +0.230 C 
ATOM      3  O   LIG    1        4.532  -1.343   2.176  0.00  0.00    -0.274 OA
ATOM      4  N   LIG    1        5.686   0.373   1.295  0.00  0.00    -0.256 N 
ATOM      5  H   LIG    1        6.521  -0.138   1.544  0.00  0.00    +0.158 HD
ATOM      6  C   LIG    1        5.877   1.714   1.099  0.00  0.00    +0.219 C 
ATOM      7  O   LIG    1        7.008   2.197   1.097  0.00  0.00    -0.275 OA
ATOM      8  C   LIG    1        4.646   2.553   0.880  0.00  0.00    +0.097 C 
ATOM      9  C   LIG    1        3.432   1.943   1.572  0.00  0.00    +0.030 C 
ENDROOT
BRANCH   1  10
ATOM     10  C   LIG    1        2.934   0.289  -0.351  0.00  0.00    -0.032 A 
ATOM     11  C   LIG    1        3.395  -0.841  -1.048  0.00  0.00    +0.006 A 
ATOM     12  C   LIG    1        3.165  -0.993  -2.421  0.00  0.00    +0.023 A 
ATOM     13  C   LIG    1        2.425  -0.051  -3.132  0.00  0.00    +0.025 A 
ATOM     14  C   LIG    1        1.987   1.087  -2.460  0.00  0.00    +0.023 A 
ATOM     15  C   LIG    1        2.204   1.240  -1.084  0.00  0.00    +0.006 A 
BRANCH  13  16
ATOM     16  N   LIG    1        2.325  -0.134  -4.525  0.00  0.00    -0.358 N 
ATOM     17  H   LIG    1        2.368  -1.083  -4.883  0.00  0.00    +0.142 HD
ATOM     18  H   LIG    1        1.545   0.387  -4.913  0.00  0.00    +0.142 HD
ENDBRANCH  13  16
ENDBRANCH   1  10
BRANCH   1  20
ATOM     19  C   LIG    1        1.504  -1.480   1.704  0.00  0.00    +0.005 C 
ATOM     20  C   LIG    1        1.977  -0.053   1.975  0.00  0.00    +0.017 C 
ENDBRANCH   1  20
TORSDOF 3
