REMARK  Name = *****
REMARK                            x       y       z     vdW  Elec       q    Type
REMARK                         _______ _______ _______ _____ _____    ______ ____
ROOT
ATOM      1  C   LIG    1        3.152  -0.288   1.514  0.00  0.00    +0.206 A 
ATOM      2  C   LIG    1        3.738   0.482   2.528  0.00  0.00    +0.184 A 
ATOM      3  C   LIG    1        4.338  -0.092   3.653  0.00  0.00    +0.022 A 
ATOM      4  C   LIG    1        4.931   0.776   4.661  0.00  0.00    +0.019 C 
ATOM      5  C   LIG    1        4.892   2.102   4.501  0.00  0.00    +0.092 C 
ATOM      6  C   LIG    1        4.266   2.738   3.331  0.00  0.00    +0.337 C 
ATOM      7  O   LIG    1        4.262   3.957   3.208  0.00  0.00    -0.245 OA
ATOM      8  C   LIG    1        4.358  -1.488   3.804  0.00  0.00    +0.023 A 
ATOM      9  C   LIG    1        3.760  -2.290   2.812  0.00  0.00    +0.025 A 
ATOM     10  C   LIG    1        3.572  -3.684   2.618  0.00  0.00    +0.050 A 
ATOM     11  C   LIG    1        2.896  -3.824   1.428  0.00  0.00    +0.196 A 
ATOM     12  O   LIG    1        2.655  -2.611   0.870  0.00  0.00    -0.459 OA
ATOM     13  O   LIG    1        3.701   1.891   2.391  0.00  0.00    -0.418 OA
ATOM     14  C   LIG    1        3.176  -1.670   1.710  0.00  0.00    +0.180 A 
ENDROOT
BRANCH   1  16
ATOM     15  C   LIG    1        3.461   0.825  -0.484  0.00  0.00    +0.277 C 
ATOM     16  O   LIG    1        2.521   0.257   0.427  0.00  0.00    -0.488 OA
ENDBRANCH   1  16
TORSDOF 1
