REMARK  Name = *****
REMARK                            x       y       z     vdW  Elec       q    Type
REMARK                         _______ _______ _______ _____ _____    ______ ____
ROOT
ATOM      1  C   LIG    1        6.940   0.632  -0.238  0.00  0.00    +0.218 C 
ATOM      2  C   LIG    1        5.587   0.008   0.116  0.00  0.00    +0.058 C 
ENDROOT
BRANCH   1   3
ATOM      3  O   LIG    1        7.023   1.901   0.456  0.00  0.00    -0.456 OA
BRANCH   3   5
ATOM      4  C   LIG    1        6.223   4.037   1.006  0.00  0.00    +0.136 C 
ATOM      5  C   LIG    1        6.343   2.971  -0.027  0.00  0.00    +0.304 C 
ATOM      6  O   LIG    1        5.884   3.051  -1.163  0.00  0.00    -0.251 OA
ENDBRANCH   3   5
ENDBRANCH   1   3
BRANCH   1   7
ATOM      7  C   LIG    1        7.212   0.643  -1.770  0.00  0.00    +0.177 C 
BRANCH   7   8
ATOM      8  N   LIG    1        8.648   1.096  -2.192  0.00  0.00    +0.239 N 
ATOM      9  C   LIG    1        8.704   1.096  -3.725  0.00  0.00    +0.192 C 
ATOM     10  C   LIG    1        9.701   0.136  -1.665  0.00  0.00    +0.192 C 
ATOM     11  C   LIG    1        8.987   2.510  -1.740  0.00  0.00    +0.192 C 
ENDBRANCH   7   8
ENDBRANCH   1   7
TORSDOF 4
