REMARK  Name = *****
REMARK                            x       y       z     vdW  Elec       q    Type
REMARK                         _______ _______ _______ _____ _____    ______ ____
ROOT
ATOM      1  C   LIG    1        3.139  -2.403  -5.778  0.00  0.00    +0.190 C 
ENDROOT
BRANCH   1   2
ATOM      2  C   LIG    1        4.664  -2.582  -5.787  0.00  0.00    -0.005 A 
ATOM      3  C   LIG    1        5.271  -3.651  -5.103  0.00  0.00    +0.007 A 
ATOM      4  C   LIG    1        6.661  -3.812  -5.100  0.00  0.00    +0.000 A 
ATOM      5  C   LIG    1        7.473  -2.911  -5.782  0.00  0.00    +0.000 A 
ATOM      6  C   LIG    1        6.894  -1.854  -6.475  0.00  0.00    +0.000 A 
ATOM      7  C   LIG    1        5.507  -1.691  -6.481  0.00  0.00    +0.007 A 
ENDBRANCH   1   2
BRANCH   1   8
ATOM      8  C   LIG    1        2.394  -3.589  -6.447  0.00  0.00    +0.036 C 
ATOM      9  C   LIG    1        0.868  -3.409  -6.514  0.00  0.00    +0.007 C 
ATOM     10  C   LIG    1        0.444  -4.427  -7.558  0.00  0.00    +0.000 C 
ATOM     11  C   LIG    1        1.505  -4.286  -8.637  0.00  0.00    +0.000 C 
ATOM     12  C   LIG    1        2.782  -3.852  -7.916  0.00  0.00    +0.007 C 
ENDBRANCH   1   8
BRANCH   1  13
ATOM     13  C   LIG    1        2.638  -2.180  -4.321  0.00  0.00    +0.344 C 
ATOM     14  O   LIG    1        2.486  -1.076  -3.807  0.00  0.00    -0.247 OA
BRANCH  13  15
ATOM     15  O   LIG    1        2.380  -3.355  -3.663  0.00  0.00    -0.454 OA
BRANCH  15  19
ATOM     16  C   LIG    1        0.119  -5.946  -2.561  0.00  0.00    +0.192 C 
ATOM     17  N   LIG    1        0.560  -5.067  -1.394  0.00  0.00    +0.242 N 
ATOM     18  C   LIG    1        1.995  -4.556  -1.595  0.00  0.00    +0.178 C 
ATOM     19  C   LIG    1        1.876  -3.209  -2.324  0.00  0.00    +0.226 C 
ATOM     20  C   LIG    1        0.387  -2.870  -2.348  0.00  0.00    +0.101 C 
ATOM     21  C   LIG    1       -0.258  -3.782  -1.325  0.00  0.00    +0.136 C 
ATOM     22  C   LIG    1        0.437  -5.864  -0.106  0.00  0.00    +0.192 C 
ENDBRANCH  15  19
ENDBRANCH  13  15
ENDBRANCH   1  13
BRANCH   1  23
ATOM     23  O   LIG    1        2.788  -1.211  -6.507  0.00  0.00    -0.373 OA
ATOM     24  H   LIG    1        3.064  -0.454  -5.955  0.00  0.00    +0.211 HD
ENDBRANCH   1  23
TORSDOF 6
