REMARK  Name = *****
REMARK                            x       y       z     vdW  Elec       q    Type
REMARK                         _______ _______ _______ _____ _____    ______ ____
ROOT
ATOM      1  C   LIG    1        2.639   2.879   2.073  0.00  0.00    +0.140 C 
ATOM      2  C   LIG    1        2.800   2.664   0.509  0.00  0.00    +0.045 C 
ATOM      3  C   LIG    1        4.306   2.598   0.143  0.00  0.00    +0.013 C 
ATOM      4  C   LIG    1        1.948   3.461  -0.576  0.00  0.00    +0.130 C 
ATOM      5  C   LIG    1        2.434   4.947  -0.573  0.00  0.00    +0.018 C 
ATOM      6  C   LIG    1        3.187   5.144  -1.897  0.00  0.00    +0.010 C 
ATOM      7  C   LIG    1        1.277   5.889  -0.342  0.00  0.00    +0.051 C 
ATOM      8  C   LIG    1        1.355   7.245   0.292  0.00  0.00    +0.151 C 
ATOM      9  O   LIG    1        2.612   7.743   0.740  0.00  0.00    -0.360 OA
ATOM     10  C   LIG    1        2.140   8.279  -0.500  0.00  0.00    +0.204 C 
ATOM     11  C   LIG    1        0.036   7.716   0.856  0.00  0.00    +0.173 C 
ATOM     12  O   LIG    1       -0.960   7.415   0.190  0.00  0.00    -0.294 OA
ATOM     13  C   LIG    1       -0.157   8.566   2.088  0.00  0.00    +0.096 C 
ATOM     14  C   LIG    1        1.073   9.271   2.656  0.00  0.00    +0.019 C 
ATOM     15  C   LIG    1       -1.076   7.953   3.191  0.00  0.00    +0.193 C 
ATOM     16  C   LIG    1       -0.416   7.098   4.309  0.00  0.00    +0.068 C 
ATOM     17  C   LIG    1       -1.265   7.295   5.599  0.00  0.00    +0.015 C 
ATOM     18  C   LIG    1       -0.117   5.566   4.110  0.00  0.00    +0.180 C 
ATOM     19  C   LIG    1       -1.325   4.627   4.049  0.00  0.00    +0.052 C 
ATOM     20  O   LIG    1        0.761   5.152   3.023  0.00  0.00    -0.461 OA
ATOM     21  C   LIG    1        2.079   5.331   3.260  0.00  0.00    +0.313 C 
ATOM     22  O   LIG    1        2.489   6.296   3.905  0.00  0.00    -0.250 OA
ATOM     23  C   LIG    1        3.031   4.187   2.873  0.00  0.00    +0.124 C 
ATOM     24  C   LIG    1        4.400   4.808   2.524  0.00  0.00    +0.022 C 
ENDROOT
BRANCH   1  25
ATOM     25  O   LIG    1        1.441   2.285   2.613  0.00  0.00    -0.347 OA
BRANCH  25  31
ATOM     26  C   LIG    1        2.519  -0.076   4.068  0.00  0.00    +0.166 C 
ATOM     27  C   LIG    1        1.212  -0.503   4.808  0.00  0.00    +0.234 C 
ATOM     28  C   LIG    1        0.034   0.345   4.237  0.00  0.00    +0.161 C 
ATOM     29  C   LIG    1       -1.346  -0.220   4.505  0.00  0.00    +0.042 C 
ATOM     30  O   LIG    1       -0.018   0.461   2.821  0.00  0.00    -0.344 OA
ATOM     31  C   LIG    1        1.163   0.932   2.225  0.00  0.00    +0.254 C 
ATOM     32  C   LIG    1        2.215  -0.106   2.563  0.00  0.00    +0.096 C 
BRANCH  26  34
ATOM     33  C   LIG    1        4.846  -0.493   3.759  0.00  0.00    +0.194 C 
ATOM     34  O   LIG    1        3.620  -0.958   4.331  0.00  0.00    -0.376 OA
ENDBRANCH  26  34
BRANCH  27  35
ATOM     35  O   LIG    1        1.184  -0.386   6.258  0.00  0.00    -0.456 OA
BRANCH  35  36
ATOM     36  C   LIG    1        1.565   0.789   6.832  0.00  0.00    +0.304 C 
ATOM     37  O   LIG    1        2.538   1.391   6.583  0.00  0.00    -0.251 OA
ATOM     38  C   LIG    1        0.499   1.264   7.809  0.00  0.00    +0.136 C 
ENDBRANCH  35  36
ENDBRANCH  27  35
ENDBRANCH  25  31
ENDBRANCH   1  25
BRANCH   4  39
ATOM     39  O   LIG    1        0.512   3.194  -0.540  0.00  0.00    -0.344 OA
BRANCH  39  40
ATOM     40  C   LIG    1       -0.415   3.607  -1.626  0.00  0.00    +0.293 C 
ATOM     41  C   LIG    1       -0.150   3.026  -3.079  0.00  0.00    +0.249 C 
ATOM     42  C   LIG    1       -1.211   2.001  -3.635  0.00  0.00    +0.104 C 
ATOM     43  C   LIG    1       -2.293   1.667  -2.610  0.00  0.00    +0.054 C 
ATOM     44  C   LIG    1       -2.762   3.007  -2.066  0.00  0.00    +0.120 C 
ATOM     45  C   LIG    1       -4.140   2.890  -1.406  0.00  0.00    +0.038 C 
ATOM     46  O   LIG    1       -1.777   3.456  -1.133  0.00  0.00    -0.345 OA
BRANCH  42  47
ATOM     47  N   LIG    1       -0.662   0.848  -4.391  0.00  0.00    -0.302 NA
ATOM     48  C   LIG    1       -0.039  -0.191  -3.583  0.00  0.00    +0.105 C 
ATOM     49  C   LIG    1       -1.646   0.247  -5.298  0.00  0.00    +0.105 C 
ENDBRANCH  42  47
BRANCH  41  50
ATOM     50  O   LIG    1       -0.224   4.223  -3.953  0.00  0.00    -0.455 OA
BRANCH  50  51
ATOM     51  C   LIG    1        0.398   4.206  -5.154  0.00  0.00    +0.304 C 
ATOM     52  O   LIG    1        0.964   3.240  -5.660  0.00  0.00    -0.251 OA
ATOM     53  C   LIG    1        0.308   5.553  -5.820  0.00  0.00    +0.136 C 
ENDBRANCH  50  51
ENDBRANCH  41  50
ENDBRANCH  39  40
ENDBRANCH   4  39
BRANCH  15  54
ATOM     54  O   LIG    1       -2.279   7.287   2.738  0.00  0.00    -0.460 OA
BRANCH  54  55
ATOM     55  C   LIG    1       -3.453   7.731   3.274  0.00  0.00    +0.304 C 
ATOM     56  O   LIG    1       -3.637   8.836   3.782  0.00  0.00    -0.251 OA
ATOM     57  C   LIG    1       -4.511   6.662   3.284  0.00  0.00    +0.136 C 
ENDBRANCH  54  55
ENDBRANCH  15  54
TORSDOF 12
