REMARK  Name = *****
REMARK                            x       y       z     vdW  Elec       q    Type
REMARK                         _______ _______ _______ _____ _____    ______ ____
ROOT
ATOM      1  C   LIG    1       -1.310  -2.779  -0.108  0.00  0.00    +0.170 C 
ENDROOT
BRANCH   1   2
ATOM      2  C   LIG    1       -2.810  -2.683  -0.371  0.00  0.00    +0.001 A 
ATOM      3  C   LIG    1       -3.436  -3.360  -1.437  0.00  0.00    +0.048 A 
ATOM      4 CL   LIG    1       -2.566  -4.443  -2.467  0.00  0.00    -0.083 Cl
ATOM      5  C   LIG    1       -4.793  -3.165  -1.718  0.00  0.00    +0.040 A 
ATOM      6  C   LIG    1       -5.540  -2.287  -0.940  0.00  0.00    +0.042 A 
ATOM      7 CL   LIG    1       -7.199  -2.017  -1.304  0.00  0.00    -0.084 Cl
ATOM      8  C   LIG    1       -4.950  -1.616   0.124  0.00  0.00    +0.020 A 
ATOM      9  C   LIG    1       -3.598  -1.814   0.405  0.00  0.00    +0.009 A 
ENDBRANCH   1   2
BRANCH   1  10
ATOM     10  O   LIG    1       -0.940  -2.544   1.263  0.00  0.00    -0.365 OA
BRANCH  10  11
ATOM     11  C   LIG    1       -1.268  -3.597   2.165  0.00  0.00    +0.198 C 
BRANCH  11  14
ATOM     12 CL   LIG    1       -2.839  -1.893   4.534  0.00  0.00    -0.075 Cl
ATOM     13  C   LIG    1       -1.291  -2.647   4.551  0.00  0.00    +0.083 A 
ATOM     14  C   LIG    1       -0.679  -3.327   3.519  0.00  0.00    +0.004 A 
ATOM     15  C   LIG    1        0.633  -3.753   3.935  0.00  0.00    +0.015 A 
ATOM     16  C   LIG    1        0.903  -3.450   5.254  0.00  0.00    +0.047 A 
ATOM     17  S   LIG    1       -0.386  -2.595   5.983  0.00  0.00    -0.085 S 
ENDBRANCH  11  14
ENDBRANCH  10  11
ENDBRANCH   1  10
BRANCH   1  18
ATOM     18  C   LIG    1       -0.531  -1.767  -0.986  0.00  0.00    +0.159 C 
BRANCH  18  19
ATOM     19  N   LIG    1       -0.888  -0.371  -0.781  0.00  0.00    -0.334 N 
ATOM     20  C   LIG    1       -1.383   0.477  -1.730  0.00  0.00    +0.199 A 
ATOM     21  N   LIG    1       -1.630   1.671  -1.225  0.00  0.00    -0.244 NA
ATOM     22  C   LIG    1       -1.263   1.588   0.090  0.00  0.00    +0.130 A 
ATOM     23  C   LIG    1       -0.775   0.336   0.385  0.00  0.00    +0.107 A 
ENDBRANCH  18  19
ENDBRANCH   1  18
TORSDOF 6
