REMARK  Name = *****
REMARK                            x       y       z     vdW  Elec       q    Type
REMARK                         _______ _______ _______ _____ _____    ______ ____
ROOT
ATOM      1  N   LIG    1       -0.762  -5.447   3.748  0.00  0.00    -0.311 NA
ATOM      2  H   LIG    1        0.110  -5.334   3.231  0.00  0.00    +0.122 HD
ENDROOT
BRANCH   1   3
ATOM      3  C   LIG    1       -1.459  -6.642   3.247  0.00  0.00    +0.115 C 
BRANCH   3   4
ATOM      4  C   LIG    1       -0.612  -7.918   3.440  0.00  0.00    +0.169 C 
BRANCH   4   5
ATOM      5  C   LIG    1       -1.345  -9.183   2.943  0.00  0.00    +0.203 C 
ATOM      6  O   LIG    1       -2.539  -9.343   3.724  0.00  0.00    -0.486 OA
ATOM      7  C   LIG    1       -3.442 -10.252   3.254  0.00  0.00    +0.124 A 
ATOM      8  C   LIG    1       -3.392 -10.797   1.964  0.00  0.00    -0.003 A 
ATOM      9  C   LIG    1       -4.373 -11.715   1.575  0.00  0.00    +0.045 A 
ATOM     10  C   LIG    1       -5.395 -12.062   2.457  0.00  0.00    +0.124 A 
ATOM     11  C   LIG    1       -5.455 -11.506   3.731  0.00  0.00    +0.042 A 
ATOM     12  F   LIG    1       -6.330 -12.935   2.073  0.00  0.00    -0.205 F 
ATOM     13  C   LIG    1       -2.297 -10.425   1.012  0.00  0.00    +0.042 C 
ATOM     14  C   LIG    1       -4.477 -10.598   4.127  0.00  0.00    +0.049 A 
ATOM     15  C   LIG    1       -1.651  -9.122   1.443  0.00  0.00    +0.052 C 
ENDBRANCH   4   5
BRANCH   4  16
ATOM     16  O   LIG    1        0.640  -7.788   2.750  0.00  0.00    -0.387 OA
ATOM     17  H   LIG    1        1.248  -7.360   3.380  0.00  0.00    +0.210 HD
ENDBRANCH   4  16
ENDBRANCH   3   4
ENDBRANCH   1   3
BRANCH   1  18
ATOM     18  C   LIG    1       -1.601  -4.250   3.560  0.00  0.00    +0.115 C 
BRANCH  18  19
ATOM     19  C   LIG    1       -0.905  -2.967   4.072  0.00  0.00    +0.169 C 
BRANCH  19  20
ATOM     20  C   LIG    1       -1.792  -1.721   3.851  0.00  0.00    +0.203 C 
ATOM     21  O   LIG    1       -3.021  -1.920   4.579  0.00  0.00    -0.486 OA
ATOM     22  C   LIG    1       -3.822  -0.817   4.687  0.00  0.00    +0.124 A 
ATOM     23  C   LIG    1       -3.379   0.488   4.435  0.00  0.00    -0.003 A 
ATOM     24  C   LIG    1       -4.280   1.551   4.575  0.00  0.00    +0.045 A 
ATOM     25  C   LIG    1       -5.586   1.306   4.988  0.00  0.00    +0.124 A 
ATOM     26  C   LIG    1       -6.019   0.013   5.262  0.00  0.00    +0.042 A 
ATOM     27  F   LIG    1       -6.437   2.329   5.127  0.00  0.00    -0.205 F 
ATOM     28  C   LIG    1       -1.967   0.748   3.999  0.00  0.00    +0.042 C 
ATOM     29  C   LIG    1       -5.132  -1.051   5.113  0.00  0.00    +0.049 A 
ATOM     30  C   LIG    1       -1.085  -0.449   4.321  0.00  0.00    +0.052 C 
ENDBRANCH  19  20
BRANCH  19  31
ATOM     31  O   LIG    1       -0.598  -3.091   5.468  0.00  0.00    -0.387 OA
ATOM     32  H   LIG    1       -1.455  -3.191   5.923  0.00  0.00    +0.210 HD
ENDBRANCH  19  31
ENDBRANCH  18  19
ENDBRANCH   1  18
TORSDOF 8
