REMARK  Name = *****
REMARK                            x       y       z     vdW  Elec       q    Type
REMARK                         _______ _______ _______ _____ _____    ______ ____
ROOT
ATOM      1  C   LIG    1        4.719  -0.609  -0.960  0.00  0.00    +0.100 A 
ATOM      2  C   LIG    1        5.625   0.180  -1.679  0.00  0.00    +0.131 A 
ATOM      3  C   LIG    1        6.997   0.082  -1.427  0.00  0.00    +0.046 A 
ATOM      4  C   LIG    1        7.470  -0.814  -0.465  0.00  0.00    +0.004 A 
ATOM      5  C   LIG    1        6.577  -1.617   0.241  0.00  0.00    +0.001 A 
ATOM      6  C   LIG    1        5.207  -1.518  -0.007  0.00  0.00    +0.019 A 
ENDROOT
BRANCH   1   7
ATOM      7  C   LIG    1        3.248  -0.569  -1.152  0.00  0.00    +0.343 C 
ATOM      8  O   LIG    1        2.531  -1.544  -0.982  0.00  0.00    -0.245 OA
BRANCH   7  10
ATOM      9  C   LIG    1        1.412   0.820  -1.562  0.00  0.00    +0.280 C 
ATOM     10  O   LIG    1        2.825   0.692  -1.412  0.00  0.00    -0.464 OA
ENDBRANCH   7  10
ENDBRANCH   1   7
BRANCH   2  11
ATOM     11  O   LIG    1        5.195   1.028  -2.661  0.00  0.00    -0.506 OA
ATOM     12  H   LIG    1        5.945   1.547  -2.994  0.00  0.00    +0.292 HD
ENDBRANCH   2  11
TORSDOF 3
