REMARK  Name = *****
REMARK                            x       y       z     vdW  Elec       q    Type
REMARK                         _______ _______ _______ _____ _____    ______ ____
ROOT
ATOM      1  C   LIG    1        1.116   0.659  -0.155  0.00  0.00    +0.276 C 
ATOM      2  N   LIG    1        2.549   0.563   0.094  0.00  0.00    -0.224 N 
ATOM      3  C   LIG    1        3.183  -0.666   0.267  0.00  0.00    +0.307 C 
ATOM      4  N   LIG    1        4.459  -0.852   0.128  0.00  0.00    -0.083 NA
ATOM      5  C   LIG    1        5.303   0.267  -0.278  0.00  0.00    +0.294 C 
ATOM      6  C   LIG    1        4.743   1.595   0.181  0.00  0.00    +0.093 C 
ATOM      7  C   LIG    1        3.330   1.712  -0.349  0.00  0.00    +0.229 C 
ENDROOT
BRANCH   3   8
ATOM      8  C   LIG    1        2.395  -1.869   0.701  0.00  0.00    +0.100 C 
ATOM      9  C   LIG    1        2.780  -3.105   0.345  0.00  0.00    +0.023 C 
BRANCH   9  10
ATOM     10  C   LIG    1        2.057  -4.271   0.735  0.00  0.00    +0.012 A 
ATOM     11  S   LIG    1        2.400  -5.769  -0.052  0.00  0.00    -0.097 S 
ATOM     12  C   LIG    1        1.237  -6.615   0.867  0.00  0.00    +0.045 A 
ATOM     13  C   LIG    1        0.599  -5.797   1.768  0.00  0.00    +0.008 A 
ATOM     14  C   LIG    1        1.071  -4.454   1.693  0.00  0.00    +0.015 A 
ENDBRANCH   9  10
ENDBRANCH   3   8
TORSDOF 2
