REMARK  Name = *****
REMARK                            x       y       z     vdW  Elec       q    Type
REMARK                         _______ _______ _______ _____ _____    ______ ____
ROOT
ATOM      1  C   LIG    1        4.430   4.335   2.616  0.00  0.00    -0.011 C 
ATOM      2  C   LIG    1        4.862   4.277   3.977  0.00  0.00    -0.018 C 
ATOM      3  C   LIG    1        4.496   3.091   4.848  0.00  0.00    +0.046 C 
ATOM      4  C   LIG    1        5.530   5.394   4.559  0.00  0.00    +0.057 C 
ATOM      5  C   LIG    1        5.475   6.632   3.890  0.00  0.00    +0.046 C 
ATOM      6  C   LIG    1        5.973   7.860   4.546  0.00  0.00    +0.203 C 
ATOM      7  C   LIG    1        6.523   7.754   5.912  0.00  0.00    +0.122 C 
ATOM      8  C   LIG    1        6.645   6.516   6.411  0.00  0.00    +0.105 C 
ATOM      9  O   LIG    1        5.921   8.955   3.988  0.00  0.00    -0.286 OA
ATOM     10  C   LIG    1        4.951   6.736   2.610  0.00  0.00    +0.014 C 
ATOM     11  N   LIG    1        6.256   5.333   5.791  0.00  0.00    -0.342 NA
ATOM     12  C   LIG    1        4.501   5.590   1.969  0.00  0.00    +0.009 C 
ENDROOT
BRANCH   1  17
ATOM     13  C   LIG    1        2.945   0.987   0.352  0.00  0.00    +0.121 A 
ATOM     14  C   LIG    1        2.500   2.272   0.038  0.00  0.00    -0.010 A 
ATOM     15  C   LIG    1        1.524   2.532  -1.070  0.00  0.00    +0.047 C 
ATOM     16  C   LIG    1        2.972   3.349   0.804  0.00  0.00    +0.016 A 
ATOM     17  C   LIG    1        3.900   3.176   1.840  0.00  0.00    +0.001 A 
ATOM     18  C   LIG    1        4.313   1.859   2.013  0.00  0.00    +0.121 A 
ATOM     19  N   LIG    1        3.843   0.782   1.333  0.00  0.00    -0.240 NA
BRANCH  13  21
ATOM     20  C   LIG    1        2.928  -1.401   0.077  0.00  0.00    +0.127 C 
ATOM     21  N   LIG    1        2.417  -0.110  -0.348  0.00  0.00    -0.332 N 
ATOM     22  H   LIG    1        2.553   0.042  -1.342  0.00  0.00    +0.147 HD
ENDBRANCH  13  21
ENDBRANCH   1  17
BRANCH  11  23
ATOM     23  C   LIG    1        7.060   4.133   6.152  0.00  0.00    +0.087 C 
ATOM     24  C   LIG    1        7.655   3.167   5.151  0.00  0.00    +0.027 C 
ATOM     25  C   LIG    1        8.552   4.103   5.889  0.00  0.00    +0.027 C 
ENDBRANCH  11  23
BRANCH   7  26
ATOM     26  C   LIG    1        6.973   8.920   6.684  0.00  0.00    +0.342 C 
ATOM     27  O   LIG    1        7.452   8.833   7.814  0.00  0.00    -0.245 OA
BRANCH  26  28
ATOM     28  O   LIG    1        6.814  10.113   6.069  0.00  0.00    -0.477 OA
ATOM     29  H   LIG    1        6.440  10.046   5.159  0.00  0.00    +0.295 HD
ENDBRANCH  26  28
ENDBRANCH   7  26
TORSDOF 5
