REMARK  Name = *****
REMARK                            x       y       z     vdW  Elec       q    Type
REMARK                         _______ _______ _______ _____ _____    ______ ____
ROOT
ATOM      1  C   LIG    1       -7.630   2.868  -3.359  0.00  0.00    +0.112 C 
ATOM      2  C   LIG    1       -7.597   1.569  -4.206  0.00  0.00    +0.111 C 
ATOM      3  N   LIG    1       -7.939   1.726  -5.640  0.00  0.00    -0.296 NA
ATOM      4  C   LIG    1       -6.877   2.422  -6.365  0.00  0.00    +0.105 C 
ATOM      5  C   LIG    1       -9.291   2.347  -5.801  0.00  0.00    +0.091 C 
ATOM      6  C   LIG    1       -9.590   3.505  -4.795  0.00  0.00    -0.024 C 
ATOM      7  C   LIG    1      -10.736   4.400  -5.087  0.00  0.00    -0.011 C 
ATOM      8  C   LIG    1      -11.186   4.363  -6.414  0.00  0.00    +0.010 C 
ATOM      9  C   LIG    1      -12.199   5.196  -6.864  0.00  0.00    +0.047 C 
ATOM     10  N   LIG    1      -12.351   4.933  -8.208  0.00  0.00    -0.360 NA
ATOM     11  H   LIG    1      -13.003   5.408  -8.817  0.00  0.00    +0.165 HD
ATOM     12  C   LIG    1      -11.476   3.947  -8.602  0.00  0.00    +0.087 C 
ATOM     13  C   LIG    1      -12.847   6.092  -6.013  0.00  0.00    +0.026 C 
ATOM     14  C   LIG    1      -12.432   6.106  -4.675  0.00  0.00    +0.003 C 
ATOM     15  C   LIG    1      -10.749   3.572  -7.496  0.00  0.00    -0.020 C 
ATOM     16  C   LIG    1      -11.396   5.280  -4.217  0.00  0.00    +0.009 C 
ATOM     17  C   LIG    1       -9.640   2.600  -7.321  0.00  0.00    +0.060 C 
ATOM     18  C   LIG    1       -8.834   3.705  -3.696  0.00  0.00    +0.002 C 
ENDROOT
BRANCH   1  21
ATOM     19  N   LIG    1       -4.370   4.647  -3.386  0.00  0.00    -0.286 N 
ATOM     20  C   LIG    1       -5.282   3.658  -2.992  0.00  0.00    +0.303 C 
ATOM     21  N   LIG    1       -6.506   3.752  -3.602  0.00  0.00    -0.292 N 
ATOM     22  H   LIG    1       -6.666   4.465  -4.286  0.00  0.00    +0.151 HD
ATOM     23  O   LIG    1       -5.035   2.796  -2.161  0.00  0.00    -0.253 OA
BRANCH  19  25
ATOM     24  C   LIG    1       -5.389   6.868  -3.916  0.00  0.00    +0.024 C 
ATOM     25  C   LIG    1       -4.629   5.649  -4.416  0.00  0.00    +0.106 C 
ENDBRANCH  19  25
BRANCH  19  26
ATOM     26  C   LIG    1       -3.090   4.757  -2.670  0.00  0.00    +0.106 C 
ATOM     27  C   LIG    1       -3.199   5.601  -1.408  0.00  0.00    +0.024 C 
ENDBRANCH  19  26
ENDBRANCH   1  21
TORSDOF 3
