REMARK  Name = *****
REMARK                            x       y       z     vdW  Elec       q    Type
REMARK                         _______ _______ _______ _____ _____    ______ ____
ROOT
ATOM      1  C   LIG    1        6.242   3.328   3.244  0.00  0.00    +0.065 C 
ATOM      2  C   LIG    1        7.133   3.083   4.476  0.00  0.00    +0.096 C 
ATOM      3  C   LIG    1        7.694   4.384   5.059  0.00  0.00    +0.065 C 
ATOM      4  C   LIG    1        7.072   5.555   4.795  0.00  0.00    +0.016 C 
ATOM      5  C   LIG    1        7.460   6.897   5.358  0.00  0.00    +0.061 C 
ATOM      6  N   LIG    1        5.989   5.578   3.927  0.00  0.00    -0.321 N 
ATOM      7  H   LIG    1        5.669   6.506   3.653  0.00  0.00    +0.152 HD
ATOM      8  C   LIG    1        5.705   4.555   3.030  0.00  0.00    +0.016 C 
ATOM      9  C   LIG    1        4.858   4.986   1.855  0.00  0.00    +0.061 C 
ENDROOT
BRANCH   2  10
ATOM     10  C   LIG    1        6.391   2.272   5.556  0.00  0.00    -0.029 A 
ATOM     11  C   LIG    1        5.310   2.828   6.264  0.00  0.00    +0.088 A 
ATOM     12  C   LIG    1        4.702   2.112   7.306  0.00  0.00    +0.273 A 
ATOM     13  C   LIG    1        5.140   0.826   7.640  0.00  0.00    +0.084 A 
ATOM     14  C   LIG    1        6.196   0.259   6.928  0.00  0.00    +0.007 A 
ATOM     15  C   LIG    1        6.815   0.974   5.896  0.00  0.00    +0.005 A 
BRANCH  12  16
ATOM     16  N   LIG    1        3.615   2.732   8.073  0.00  0.00    +0.080 N 
ATOM     17  O   LIG    1        3.258   3.875   7.750  0.00  0.00    -0.576 OA
ATOM     18  O   LIG    1        3.120   2.081   9.004  0.00  0.00    +0.041 OA
ENDBRANCH  12  16
ENDBRANCH   2  10
BRANCH   1  19
ATOM     19  C   LIG    1        6.171   2.152   2.341  0.00  0.00    +0.338 C 
ATOM     20  O   LIG    1        6.907   1.183   2.469  0.00  0.00    -0.245 OA
BRANCH  19  21
ATOM     21  O   LIG    1        5.215   2.271   1.395  0.00  0.00    -0.459 OA
BRANCH  21  22
ATOM     22  C   LIG    1        5.018   1.136   0.541  0.00  0.00    +0.260 C 
BRANCH  22  23
ATOM     23  C   LIG    1        6.233   0.827  -0.340  0.00  0.00    +0.200 C 
BRANCH  23  25
ATOM     24  C   LIG    1        5.745  -1.477  -0.675  0.00  0.00    +0.194 C 
ATOM     25  O   LIG    1        5.984  -0.214  -1.284  0.00  0.00    -0.380 OA
ENDBRANCH  23  25
ENDBRANCH  22  23
ENDBRANCH  21  22
ENDBRANCH  19  21
ENDBRANCH   1  19
BRANCH   3  26
ATOM     26  C   LIG    1        8.990   4.321   5.795  0.00  0.00    +0.338 C 
ATOM     27  O   LIG    1        9.737   5.261   5.933  0.00  0.00    -0.245 OA
BRANCH  26  28
ATOM     28  O   LIG    1        9.247   3.044   6.231  0.00  0.00    -0.459 OA
BRANCH  28  29
ATOM     29  C   LIG    1       10.521   2.839   6.867  0.00  0.00    +0.171 C 
ATOM     30  C   LIG    1       10.881   1.364   6.728  0.00  0.00    +0.051 C 
ATOM     31  C   LIG    1       10.433   3.228   8.338  0.00  0.00    +0.051 C 
ENDBRANCH  28  29
ENDBRANCH  26  28
ENDBRANCH   3  26
TORSDOF 10
