REMARK  Name = *****
REMARK                            x       y       z     vdW  Elec       q    Type
REMARK                         _______ _______ _______ _____ _____    ______ ____
ROOT
ATOM      1  C   LIG    1        8.963   0.674  -1.047  0.00  0.00    -0.021 C 
ATOM      2  C   LIG    1       10.005  -0.388  -1.334  0.00  0.00    +0.104 C 
ATOM      3  S   LIG    1       11.520  -0.200  -0.361  0.00  0.00    -0.131 S 
ATOM      4  C   LIG    1       11.738   1.546  -0.796  0.00  0.00    +0.169 C 
ATOM      5  N   LIG    1       10.557   2.311  -0.379  0.00  0.00    -0.249 N 
ATOM      6  C   LIG    1       11.135   2.810   0.737  0.00  0.00    +0.244 C 
ATOM      7  O   LIG    1       10.641   3.315   1.720  0.00  0.00    -0.273 OA
ATOM      8  CA  LIG    1       12.546   2.406   0.226  0.00  0.00    +0.191 C 
ATOM      9  CA  LIG    1        9.251   1.921  -0.570  0.00  0.00    +0.123 C 
ENDROOT
BRANCH   8  10
ATOM     10  N   LIG    1       13.441   1.702   1.197  0.00  0.00    -0.300 N 
ATOM     11  H   LIG    1       13.033   1.095   1.905  0.00  0.00    +0.150 HD
ATOM     12  C   LIG    1       14.812   1.818   1.104  0.00  0.00    +0.235 C 
ATOM     13  O   LIG    1       15.349   2.478   0.217  0.00  0.00    -0.274 OA
BRANCH  12  14
ATOM     14  C   LIG    1       15.620   1.056   2.124  0.00  0.00    +0.242 C 
BRANCH  14  15
ATOM     15  N   LIG    1       15.978  -0.260   1.659  0.00  0.00    -0.223 N 
ATOM     16  N   LIG    1       16.166  -1.255   2.542  0.00  0.00    -0.044 NA
ATOM     17  N   LIG    1       16.461  -2.317   1.804  0.00  0.00    -0.023 NA
ATOM     18  N   LIG    1       16.470  -2.000   0.467  0.00  0.00    -0.117 NA
ATOM     19  C   LIG    1       16.186  -0.720   0.399  0.00  0.00    +0.245 A 
ENDBRANCH  14  15
ENDBRANCH  12  14
ENDBRANCH   8  10
BRANCH   9  20
ATOM     20  C   LIG    1        8.152   2.940  -0.338  0.00  0.00    +0.351 C 
ATOM     21  O   LIG    1        7.065   2.897  -0.887  0.00  0.00    -0.244 OA
BRANCH  20  22
ATOM     22  OXT LIG    1        8.473   3.986   0.449  0.00  0.00    -0.476 OA
ATOM     23  HXT LIG    1        9.226   3.848   1.064  0.00  0.00    +0.295 HD
ENDBRANCH  20  22
ENDBRANCH   9  20
BRANCH   1  24
ATOM     24  C   LIG    1        7.556   0.180  -1.347  0.00  0.00    +0.110 C 
BRANCH  24  25
ATOM     25  S   LIG    1        6.650  -0.127   0.193  0.00  0.00    -0.092 S 
BRANCH  25  29
ATOM     26  C   LIG    1        1.559  -1.996  -0.812  0.00  0.00    +0.075 C 
ATOM     27  C   LIG    1        2.914  -1.398  -0.889  0.00  0.00    +0.100 A 
ATOM     28  S   LIG    1        3.994  -1.536   0.437  0.00  0.00    -0.044 S 
ATOM     29  C   LIG    1        5.095  -0.581  -0.458  0.00  0.00    +0.159 A 
ATOM     30  N   LIG    1        4.674  -0.251  -1.660  0.00  0.00    -0.135 NA
ATOM     31  N   LIG    1        3.396  -0.722  -1.911  0.00  0.00    -0.146 NA
ENDBRANCH  25  29
ENDBRANCH  24  25
ENDBRANCH   1  24
TORSDOF 8
