REMARK  Name = *****
REMARK                            x       y       z     vdW  Elec       q    Type
REMARK                         _______ _______ _______ _____ _____    ______ ____
ROOT
ATOM      1  C   LIG    1        4.460   1.283  -1.207  0.00  0.00    +0.006 A 
ATOM      2  C   LIG    1        5.455   1.555  -0.232  0.00  0.00    +0.040 A 
ATOM      3  C   LIG    1        6.806   1.457  -0.583  0.00  0.00    +0.024 A 
ATOM      4  C   LIG    1        7.201   1.252  -1.900  0.00  0.00    +0.003 A 
ATOM      5  C   LIG    1        6.238   1.167  -2.893  0.00  0.00    +0.020 A 
ATOM      6  C   LIG    1        4.883   1.168  -2.553  0.00  0.00    +0.047 A 
ATOM      7 CL   LIG    1        3.774   1.048  -3.880  0.00  0.00    -0.083 Cl
ENDROOT
BRANCH   2   8
ATOM      8  N   LIG    1        5.093   1.939   1.077  0.00  0.00    -0.281 N 
ATOM      9  H   LIG    1        4.101   1.865   1.299  0.00  0.00    +0.155 HD
ATOM     10  C   LIG    1        5.911   2.643   1.980  0.00  0.00    +0.248 C 
ATOM     11  O   LIG    1        7.056   3.036   1.780  0.00  0.00    -0.270 OA
BRANCH  10  12
ATOM     12  C   LIG    1        5.246   2.985   3.283  0.00  0.00    +0.037 A 
ATOM     13  C   LIG    1        4.233   2.201   3.821  0.00  0.00    +0.013 A 
ATOM     14  C   LIG    1        3.657   2.537   5.047  0.00  0.00    +0.001 A 
ATOM     15  C   LIG    1        4.113   3.651   5.752  0.00  0.00    +0.000 A 
ATOM     16  C   LIG    1        5.137   4.439   5.230  0.00  0.00    +0.001 A 
ATOM     17  C   LIG    1        5.707   4.113   3.995  0.00  0.00    +0.013 A 
ENDBRANCH  10  12
ENDBRANCH   2   8
BRANCH   1  18
ATOM     18  C   LIG    1        2.987   1.144  -0.858  0.00  0.00    +0.123 C 
BRANCH  18  20
ATOM     19  C   LIG    1        1.181   0.060   0.268  0.00  0.00    +0.105 C 
ATOM     20  N   LIG    1        2.641   0.038   0.081  0.00  0.00    -0.293 NA
BRANCH  20  21
ATOM     21  C   LIG    1        3.074  -1.293  -0.461  0.00  0.00    +0.180 C 
BRANCH  21  22
ATOM     22  C   LIG    1        2.713  -2.482   0.472  0.00  0.00    +0.230 C 
ATOM     23  N   LIG    1        1.883  -3.500   0.008  0.00  0.00    -0.296 N 
ATOM     24  C   LIG    1        1.312  -4.462   0.964  0.00  0.00    +0.136 C 
ATOM     25  C   LIG    1       -0.214  -4.273   1.036  0.00  0.00    +0.178 C 
ATOM     26  O   LIG    1       -0.822  -4.354  -0.269  0.00  0.00    -0.377 OA
ATOM     27  C   LIG    1       -0.251  -3.395  -1.175  0.00  0.00    +0.178 C 
ATOM     28  C   LIG    1        1.258  -3.623  -1.312  0.00  0.00    +0.136 C 
ATOM     29  O   LIG    1        3.158  -2.515   1.625  0.00  0.00    -0.274 OA
ENDBRANCH  21  22
ENDBRANCH  20  21
ENDBRANCH  18  20
ENDBRANCH   1  18
TORSDOF 6
