REMARK  Name = *****
REMARK                            x       y       z     vdW  Elec       q    Type
REMARK                         _______ _______ _______ _____ _____    ______ ____
ROOT
ATOM      1  C   LIG    1       -3.363   3.808  -5.377  0.00  0.00    +0.183 C 
ATOM      2  C   LIG    1       -4.040   5.298  -5.332  0.00  0.00    +0.021 C 
ATOM      3  C   LIG    1       -5.573   5.124  -5.598  0.00  0.00    +0.016 C 
ATOM      4  C   LIG    1       -3.478   6.077  -6.569  0.00  0.00    +0.003 C 
ATOM      5  C   LIG    1       -2.641   7.353  -6.314  0.00  0.00    -0.000 C 
ATOM      6  C   LIG    1       -3.119   8.233  -5.140  0.00  0.00    +0.035 C 
ATOM      7  C   LIG    1       -3.180   7.387  -3.860  0.00  0.00    +0.120 C 
ATOM      8  C   LIG    1       -4.347   9.197  -5.382  0.00  0.00    +0.013 C 
ATOM      9  C   LIG    1       -4.231  10.356  -4.343  0.00  0.00    +0.020 C 
ATOM     10  C   LIG    1       -4.345   9.796  -6.809  0.00  0.00    -0.056 C 
ATOM     11  C   LIG    1       -5.388  10.587  -7.163  0.00  0.00    +0.051 C 
ATOM     12  C   LIG    1       -6.670   9.790  -7.088  0.00  0.00    +0.179 C 
ATOM     13  O   LIG    1       -7.598   9.981  -7.861  0.00  0.00    -0.288 OA
ATOM     14  C   LIG    1       -6.784   8.833  -5.951  0.00  0.00    +0.047 C 
ATOM     15  C   LIG    1       -3.767   8.959  -7.932  0.00  0.00    +0.032 C 
ATOM     16  C   LIG    1       -5.727   8.588  -5.155  0.00  0.00    -0.012 C 
ATOM     17  C   LIG    1       -2.482   8.233  -7.564  0.00  0.00    +0.008 C 
ATOM     18  C   LIG    1       -2.711   5.037  -7.411  0.00  0.00    +0.009 C 
ATOM     19  C   LIG    1       -3.911   6.028  -3.947  0.00  0.00    +0.043 C 
ATOM     20  C   LIG    1       -3.092   3.654  -6.886  0.00  0.00    +0.057 C 
ENDROOT
BRANCH   1  21
ATOM     21  C   LIG    1       -2.002   3.826  -4.649  0.00  0.00    +0.214 C 
ATOM     22  O   LIG    1       -1.474   4.932  -4.508  0.00  0.00    -0.289 OA
BRANCH  21  23
ATOM     23  C   LIG    1       -1.277   2.537  -4.219  0.00  0.00    +0.310 C 
BRANCH  23  24
ATOM     24  O   LIG    1       -0.064   2.811  -3.480  0.00  0.00    -0.457 OA
BRANCH  24  25
ATOM     25  C   LIG    1        1.111   2.750  -4.176  0.00  0.00    +0.307 C 
ATOM     26  O   LIG    1        1.425   1.859  -4.953  0.00  0.00    -0.251 OA
BRANCH  25  27
ATOM     27  C   LIG    1        1.942   3.991  -3.912  0.00  0.00    +0.117 C 
ATOM     28  C   LIG    1        1.100   5.207  -4.213  0.00  0.00    +0.015 C 
ENDBRANCH  25  27
ENDBRANCH  24  25
ENDBRANCH  23  24
ENDBRANCH  21  23
ENDBRANCH   1  21
BRANCH   7  29
ATOM     29  O   LIG    1       -1.838   7.200  -3.396  0.00  0.00    -0.391 OA
ATOM     30  H   LIG    1       -1.437   6.486  -3.936  0.00  0.00    +0.210 HD
ENDBRANCH   7  29
BRANCH   1  31
ATOM     31  O   LIG    1       -4.365   2.890  -4.884  0.00  0.00    -0.419 OA
BRANCH  31  32
ATOM     32  C   LIG    1       -4.379   1.580  -5.309  0.00  0.00    +0.511 C 
ATOM     33  O   LIG    1       -3.417   0.916  -5.536  0.00  0.00    -0.203 OA
BRANCH  32  34
ATOM     34  O   LIG    1       -5.686   1.276  -5.545  0.00  0.00    -0.434 OA
BRANCH  34  36
ATOM     35  C   LIG    1       -6.787  -0.921  -5.804  0.00  0.00    +0.048 C 
ATOM     36  C   LIG    1       -5.976   0.179  -6.476  0.00  0.00    +0.232 C 
ENDBRANCH  34  36
ENDBRANCH  32  34
ENDBRANCH  31  32
ENDBRANCH   1  31
TORSDOF 10
