REMARK  Name = *****
REMARK                            x       y       z     vdW  Elec       q    Type
REMARK                         _______ _______ _______ _____ _____    ______ ____
ROOT
ATOM      1  C   LIG    1        0.960  -0.150  -0.131  0.00  0.00    +0.048 C 
ATOM      2  C   LIG    1        2.444  -0.036   0.021  0.00  0.00    -0.008 A 
ATOM      3  C   LIG    1        3.241  -1.311   0.075  0.00  0.00    +0.143 A 
ATOM      4  N   LIG    1        4.621  -1.194   0.217  0.00  0.00    -0.267 N 
ATOM      5  C   LIG    1        5.432  -2.333   0.244  0.00  0.00    +0.269 C 
ATOM      6  C   LIG    1        4.722  -3.643   0.205  0.00  0.00    +0.105 C 
ATOM      7  C   LIG    1        3.390  -3.583   0.061  0.00  0.00    +0.130 C 
ATOM      8  O   LIG    1        6.663  -2.276   0.264  0.00  0.00    -0.267 OA
ATOM      9  C   LIG    1        5.226   0.056   0.297  0.00  0.00    +0.096 A 
ATOM     10  C   LIG    1        4.518   1.190   0.251  0.00  0.00    +0.019 A 
ATOM     11  N   LIG    1        2.629  -2.452  -0.012  0.00  0.00    -0.236 NA
ATOM     12  C   LIG    1        3.089   1.138   0.110  0.00  0.00    +0.008 A 
ENDROOT
BRANCH   6  13
ATOM     13  C   LIG    1        5.441  -4.874   0.297  0.00  0.00    +0.211 A 
ATOM     14  N   LIG    1        5.006  -6.085  -0.105  0.00  0.00    -0.133 NA
ATOM     15  N   LIG    1        6.046  -6.846   0.265  0.00  0.00    -0.176 N 
ATOM     16  H   LIG    1        6.074  -7.848   0.097  0.00  0.00    +0.214 HD
ATOM     17  N   LIG    1        7.046  -6.212   0.882  0.00  0.00    -0.049 NA
ATOM     18  N   LIG    1        6.667  -4.943   0.913  0.00  0.00    -0.108 NA
ENDBRANCH   6  13
TORSDOF 1
