REMARK  Name = *****
REMARK                            x       y       z     vdW  Elec       q    Type
REMARK                         _______ _______ _______ _____ _____    ______ ____
ROOT
ATOM      1  C   LIG    1        2.229   0.742   0.529  0.00  0.00    +0.351 C 
ATOM      2  O   LIG    1        1.736   1.533  -0.272  0.00  0.00    -0.246 OA
ENDROOT
BRANCH   1   4
ATOM      3  C   LIG    1        1.264  -1.370  -0.300  0.00  0.00    +0.067 C 
ATOM      4  C   LIG    1        1.516  -0.558   0.977  0.00  0.00    +0.201 C 
ATOM      5  C   LIG    1        0.216  -0.050   1.627  0.00  0.00    +0.067 C 
BRANCH   4   6
ATOM      6  O   LIG    1        2.401  -1.280   1.848  0.00  0.00    -0.475 OA
BRANCH   6   7
ATOM      7  C   LIG    1        1.970  -2.147   2.805  0.00  0.00    +0.122 A 
ATOM      8  C   LIG    1        0.782  -2.874   2.792  0.00  0.00    +0.047 A 
ATOM      9  C   LIG    1        0.443  -3.694   3.875  0.00  0.00    +0.023 A 
ATOM     10  C   LIG    1        1.312  -3.815   4.957  0.00  0.00    +0.041 A 
ATOM     11 CL   LIG    1        0.881  -4.803   6.297  0.00  0.00    -0.084 Cl
ATOM     12  C   LIG    1        2.529  -3.141   4.955  0.00  0.00    +0.023 A 
ATOM     13  C   LIG    1        2.857  -2.319   3.874  0.00  0.00    +0.047 A 
ENDBRANCH   6   7
ENDBRANCH   4   6
ENDBRANCH   1   4
BRANCH   1  14
ATOM     14  O   LIG    1        3.428   0.934   1.146  0.00  0.00    -0.459 OA
BRANCH  14  15
ATOM     15  C   LIG    1        4.078   2.186   0.888  0.00  0.00    +0.273 C 
BRANCH  15  16
ATOM     16  C   LIG    1        4.309   2.908   2.209  0.00  0.00    +0.273 C 
BRANCH  16  17
ATOM     17  O   LIG    1        4.911   4.187   1.946  0.00  0.00    -0.458 OA
BRANCH  17  18
ATOM     18  C   LIG    1        4.170   5.274   2.224  0.00  0.00    +0.341 C 
ATOM     19  O   LIG    1        3.063   5.294   2.756  0.00  0.00    -0.245 OA
BRANCH  18  20
ATOM     20  C   LIG    1        4.825   6.475   1.697  0.00  0.00    +0.077 A 
ATOM     21  C   LIG    1        6.208   6.579   1.585  0.00  0.00    +0.125 A 
ATOM     22  N   LIG    1        6.842   7.679   1.111  0.00  0.00    -0.262 NA
ATOM     23  C   LIG    1        6.062   8.715   0.727  0.00  0.00    +0.111 A 
ATOM     24  C   LIG    1        4.675   8.701   0.794  0.00  0.00    +0.020 A 
ATOM     25  C   LIG    1        4.052   7.569   1.297  0.00  0.00    +0.018 A 
ENDBRANCH  18  20
ENDBRANCH  17  18
ENDBRANCH  16  17
ENDBRANCH  15  16
ENDBRANCH  14  15
ENDBRANCH   1  14
TORSDOF 9
