REMARK  Name = *****
REMARK                            x       y       z     vdW  Elec       q    Type
REMARK                         _______ _______ _______ _____ _____    ______ ____
ROOT
ATOM      1  C   LIG    1        7.899   1.593  -3.021  0.00  0.00    +0.152 C 
ENDROOT
BRANCH   1   2
ATOM      2  C   LIG    1        6.419   1.857  -2.572  0.00  0.00    +0.034 C 
BRANCH   2   3
ATOM      3  C   LIG    1        5.805   3.180  -3.061  0.00  0.00    +0.006 C 
BRANCH   3   4
ATOM      4  C   LIG    1        4.279   3.395  -2.772  0.00  0.00    -0.011 C 
BRANCH   4   5
ATOM      5  C   LIG    1        3.934   3.446  -1.265  0.00  0.00    -0.000 C 
ATOM      6  C   LIG    1        4.598   4.529  -0.425  0.00  0.00    +0.004 C 
ENDBRANCH   4   5
BRANCH   4   7
ATOM      7  C   LIG    1        3.785   4.614  -3.603  0.00  0.00    +0.003 C 
BRANCH   7   8
ATOM      8  C   LIG    1        2.330   5.085  -3.426  0.00  0.00    -0.000 C 
BRANCH   8  10
ATOM      9  C   LIG    1        1.216   3.568  -5.189  0.00  0.00    +0.004 C 
ATOM     10  C   LIG    1        1.230   4.070  -3.752  0.00  0.00    -0.003 C 
ENDBRANCH   8  10
ENDBRANCH   7   8
ENDBRANCH   4   7
ENDBRANCH   3   4
ENDBRANCH   2   3
ENDBRANCH   1   2
BRANCH   1  11
ATOM     11  O   LIG    1        8.344   0.333  -2.500  0.00  0.00    -0.212 OA
BRANCH  11  12
ATOM     12  S   LIG    1        7.657  -1.061  -2.990  0.00  0.00    +0.208 S 
ATOM     13  O   LIG    1        7.989  -1.315  -4.359  0.00  0.00    -0.118 OA
ATOM     14  O   LIG    1        6.273  -1.123  -2.525  0.00  0.00    -0.118 OA
BRANCH  12  15
ATOM     15  O   LIG    1        8.401  -2.184  -2.107  0.00  0.00    -0.231 OA
ATOM     16  H   LIG    1        7.825  -2.972  -2.102  0.00  0.00    +0.247 HD
ENDBRANCH  12  15
ENDBRANCH  11  12
ENDBRANCH   1  11
BRANCH   1  17
ATOM     17  C   LIG    1        8.847   2.711  -2.491  0.00  0.00    +0.037 C 
BRANCH  17  18
ATOM     18  C   LIG    1       10.354   2.729  -2.868  0.00  0.00    -0.015 C 
ATOM     19  C   LIG    1       10.599   2.867  -4.370  0.00  0.00    +0.007 C 
ATOM     20  C   LIG    1       11.176   1.567  -2.319  0.00  0.00    +0.007 C 
ENDBRANCH  17  18
ENDBRANCH   1  17
TORSDOF 12
