REMARK  Name = *****
REMARK                            x       y       z     vdW  Elec       q    Type
REMARK                         _______ _______ _______ _____ _____    ______ ____
ROOT
ATOM      1  C   LIG    1        0.816  -0.137  -0.344  0.00  0.00    +0.132 C 
ATOM      2  N   LIG    1        2.266  -0.071  -0.392  0.00  0.00    -0.294 N 
ATOM      3  C   LIG    1        2.861   1.184  -0.291  0.00  0.00    +0.237 C 
ATOM      4  O   LIG    1        2.200   2.223  -0.295  0.00  0.00    -0.274 OA
ATOM      5  C   LIG    1        4.394   1.183  -0.486  0.00  0.00    +0.167 C 
ATOM      6  C   LIG    1        4.923   2.542   0.031  0.00  0.00    +0.069 C 
ATOM      7  C   LIG    1        6.404   2.557   0.002  0.00  0.00    -0.015 C 
ATOM      8  C   LIG    1        7.124   1.384  -0.009  0.00  0.00    +0.046 C 
ATOM      9  C   LIG    1        6.590  -0.019  -0.004  0.00  0.00    +0.154 C 
ATOM     10  N   LIG    1        8.455   1.711  -0.010  0.00  0.00    -0.356 NA
ATOM     11  H   LIG    1        9.222   1.052   0.014  0.00  0.00    +0.166 HD
ATOM     12  C   LIG    1        8.604   3.081   0.012  0.00  0.00    +0.047 C 
ATOM     13  C   LIG    1        9.767   3.860   0.040  0.00  0.00    +0.026 C 
ATOM     14  C   LIG    1        9.615   5.249   0.064  0.00  0.00    +0.002 C 
ATOM     15  C   LIG    1        8.351   5.834   0.059  0.00  0.00    +0.001 C 
ATOM     16  C   LIG    1        7.197   5.041   0.034  0.00  0.00    +0.010 C 
ATOM     17  C   LIG    1        7.323   3.639   0.012  0.00  0.00    +0.003 C 
ATOM     18  N   LIG    1        5.109   0.006   0.082  0.00  0.00    -0.276 N 
ATOM     19  C   LIG    1        4.483  -1.233  -0.119  0.00  0.00    +0.234 C 
ATOM     20  O   LIG    1        5.086  -2.294  -0.268  0.00  0.00    -0.274 OA
ATOM     21  C   LIG    1        2.980  -1.214   0.150  0.00  0.00    +0.203 C 
ENDROOT
BRANCH   9  22
ATOM     22  C   LIG    1        7.231  -0.816   1.130  0.00  0.00    -0.018 C 
ATOM     23  C   LIG    1        8.207  -1.786   0.830  0.00  0.00    +0.055 C 
ATOM     24  C   LIG    1        8.815  -2.445   1.876  0.00  0.00    +0.167 C 
ATOM     25  O   LIG    1        9.786  -3.390   1.758  0.00  0.00    -0.453 OA
ATOM     26  C   LIG    1       10.027  -3.703   3.146  0.00  0.00    +0.466 C 
ATOM     27  O   LIG    1        9.213  -2.937   4.058  0.00  0.00    -0.453 OA
ATOM     28  C   LIG    1        8.490  -2.184   3.185  0.00  0.00    +0.166 C 
ATOM     29  C   LIG    1        7.539  -1.247   3.524  0.00  0.00    +0.050 C 
ATOM     30  C   LIG    1        6.908  -0.555   2.485  0.00  0.00    +0.010 C 
ENDBRANCH   9  22
TORSDOF 1
