REMARK  Name = *****
REMARK                            x       y       z     vdW  Elec       q    Type
REMARK                         _______ _______ _______ _____ _____    ______ ____
ROOT
ATOM      1  C   LIG    1        2.137   0.215   0.035  0.00  0.00    +0.028 A 
ATOM      2  C   LIG    1        2.840   1.170  -0.699  0.00  0.00    +0.046 A 
ATOM      3  C   LIG    1        4.236   1.114  -0.795  0.00  0.00    +0.086 A 
ATOM      4 CL   LIG    1        5.019   2.323  -1.758  0.00  0.00    -0.080 Cl
ATOM      5  C   LIG    1        4.973   0.130  -0.114  0.00  0.00    +0.178 A 
ATOM      6  C   LIG    1        4.256  -0.795   0.664  0.00  0.00    +0.086 A 
ATOM      7 CL   LIG    1        5.064  -2.042   1.556  0.00  0.00    -0.080 Cl
ATOM      8  C   LIG    1        2.859  -0.735   0.757  0.00  0.00    +0.046 A 
ENDROOT
BRANCH   5   9
ATOM      9  N   LIG    1        6.378   0.051  -0.228  0.00  0.00    -0.074 NA
ATOM     10  C   LIG    1        7.090   0.741   0.592  0.00  0.00    +0.370 C 
ATOM     11  N   LIG    1        6.721   1.601   1.597  0.00  0.00    -0.235 N 
ATOM     12  H   LIG    1        5.848   2.098   1.490  0.00  0.00    +0.244 HD
ATOM     13  C   LIG    1        7.865   2.296   2.164  0.00  0.00    +0.219 C 
ATOM     14  C   LIG    1        9.025   1.378   1.748  0.00  0.00    +0.219 C 
ATOM     15  N   LIG    1        8.459   0.714   0.592  0.00  0.00    -0.235 N 
ATOM     16  H   LIG    1        8.890  -0.110   0.196  0.00  0.00    +0.244 HD
ENDBRANCH   5   9
BRANCH   1  17
ATOM     17  N   LIG    1        0.758   0.352   0.230  0.00  0.00    -0.358 N 
ATOM     18  H   LIG    1        0.275   0.825  -0.529  0.00  0.00    +0.142 HD
ATOM     19  H   LIG    1        0.287  -0.508   0.499  0.00  0.00    +0.142 HD
ENDBRANCH   1  17
TORSDOF 2
