REMARK  Name = *****
REMARK                            x       y       z     vdW  Elec       q    Type
REMARK                         _______ _______ _______ _____ _____    ______ ____
ROOT
ATOM      1  C   LIG    1        7.499  -1.186  -2.930  0.00  0.00    +0.019 A 
ATOM      2  C   LIG    1        7.995  -2.382  -2.386  0.00  0.00    +0.035 A 
ATOM      3  C   LIG    1        8.165  -2.547  -0.998  0.00  0.00    +0.049 A 
ATOM      4  N   LIG    1        8.680  -3.744  -0.455  0.00  0.00    -0.297 N 
ATOM      5  C   LIG    1        9.501  -3.771   0.698  0.00  0.00    +0.048 A 
ATOM      6  C   LIG    1        9.346  -2.816   1.723  0.00  0.00    +0.034 A 
ATOM      7  S   LIG    1        8.129  -1.511   1.607  0.00  0.00    -0.086 S 
ATOM      8  C   LIG    1       10.146  -2.871   2.876  0.00  0.00    +0.017 A 
ATOM      9  C   LIG    1       11.143  -3.837   3.001  0.00  0.00    +0.001 A 
ATOM     10  C   LIG    1       11.369  -4.729   1.961  0.00  0.00    +0.002 A 
ATOM     11  C   LIG    1       10.560  -4.691   0.822  0.00  0.00    +0.024 A 
ATOM     12  C   LIG    1        7.888  -1.442  -0.165  0.00  0.00    +0.034 A 
ATOM     13  C   LIG    1        7.393  -0.248  -0.709  0.00  0.00    +0.017 A 
ATOM     14  C   LIG    1        7.196  -0.120  -2.084  0.00  0.00    +0.012 A 
ENDROOT
BRANCH   1  15
ATOM     15  C   LIG    1        7.350  -1.084  -4.412  0.00  0.00    +0.163 C 
ATOM     16  O   LIG    1        8.074  -1.754  -5.134  0.00  0.00    -0.292 OA
BRANCH  15  18
ATOM     17  C   LIG    1        5.311  -0.927  -5.865  0.00  0.00    +0.012 C 
ATOM     18  C   LIG    1        6.282  -0.162  -4.983  0.00  0.00    +0.076 C 
ENDBRANCH  15  18
ENDBRANCH   1  15
BRANCH   4  19
ATOM     19  C   LIG    1        8.269  -5.045  -1.040  0.00  0.00    +0.129 C 
BRANCH  19  20
ATOM     20  C   LIG    1        6.736  -5.381  -0.951  0.00  0.00    +0.071 C 
ATOM     21  C   LIG    1        6.197  -5.304   0.491  0.00  0.00    +0.026 C 
BRANCH  20  22
ATOM     22  N   LIG    1        6.350  -6.700  -1.552  0.00  0.00    -0.304 NA
ATOM     23  C   LIG    1        6.825  -7.864  -0.801  0.00  0.00    +0.105 C 
ATOM     24  C   LIG    1        6.737  -6.825  -2.958  0.00  0.00    +0.105 C 
ENDBRANCH  20  22
ENDBRANCH  19  20
ENDBRANCH   4  19
TORSDOF 5
