REMARK  Name = *****
REMARK                            x       y       z     vdW  Elec       q    Type
REMARK                         _______ _______ _______ _____ _____    ______ ____
ROOT
ATOM      1  C   LIG    1        1.552  -3.029  -5.126  0.00  0.00    +0.077 C 
ENDROOT
BRANCH   1   2
ATOM      2  C   LIG    1        1.119  -2.422  -6.450  0.00  0.00    -0.034 A 
ATOM      3  C   LIG    1        0.566  -3.221  -7.456  0.00  0.00    +0.012 A 
ATOM      4  C   LIG    1        0.026  -2.657  -8.627  0.00  0.00    -0.025 A 
ATOM      5  C   LIG    1        0.089  -1.272  -8.794  0.00  0.00    +0.008 A 
ATOM      6  C   LIG    1        0.706  -0.465  -7.837  0.00  0.00    +0.001 A 
ATOM      7  C   LIG    1        1.222  -1.034  -6.673  0.00  0.00    +0.005 A 
BRANCH   4   8
ATOM      8  C   LIG    1       -0.726  -3.536  -9.534  0.00  0.00    +0.010 C 
ATOM      9  C   LIG    1       -1.000  -3.460 -10.849  0.00  0.00    +0.028 C 
BRANCH   9  10
ATOM     10  C   LIG    1       -0.637  -2.484 -11.883  0.00  0.00    +0.065 A 
ATOM     11  N   LIG    1       -1.556  -1.516 -12.115  0.00  0.00    -0.247 NA
ATOM     12  C   LIG    1       -1.368  -0.678 -13.155  0.00  0.00    +0.073 A 
ATOM     13  C   LIG    1       -0.277  -0.799 -14.041  0.00  0.00    +0.001 A 
ATOM     14  C   LIG    1       -0.128   0.095 -15.121  0.00  0.00    +0.011 A 
ATOM     15  C   LIG    1       -1.040   1.132 -15.303  0.00  0.00    +0.021 A 
ATOM     16  C   LIG    1       -2.107   1.258 -14.420  0.00  0.00    +0.043 A 
ATOM     17 CL   LIG    1       -3.225   2.552 -14.617  0.00  0.00    -0.084 Cl
ATOM     18  C   LIG    1        0.644  -1.824 -13.794  0.00  0.00    +0.012 A 
ATOM     19  C   LIG    1       -2.273   0.352 -13.371  0.00  0.00    +0.048 A 
ATOM     20  C   LIG    1        0.475  -2.665 -12.692  0.00  0.00    +0.028 A 
ENDBRANCH   9  10
ENDBRANCH   4   8
ENDBRANCH   1   2
BRANCH   1  21
ATOM     21  C   LIG    1        0.438  -3.137  -3.999  0.00  0.00    +0.023 C 
BRANCH  21  22
ATOM     22  C   LIG    1       -0.305  -4.481  -3.758  0.00  0.00    +0.037 C 
BRANCH  22  24
ATOM     23  C   LIG    1       -1.702  -4.810  -1.426  0.00  0.00    -0.013 A 
ATOM     24  C   LIG    1       -1.550  -4.475  -2.818  0.00  0.00    -0.041 A 
ATOM     25  C   LIG    1       -2.743  -4.097  -3.502  0.00  0.00    +0.004 A 
ATOM     26  C   LIG    1       -3.978  -3.916  -2.867  0.00  0.00    +0.000 A 
ATOM     27  C   LIG    1       -4.066  -4.045  -1.503  0.00  0.00    +0.000 A 
ATOM     28  C   LIG    1       -2.948  -4.472  -0.811  0.00  0.00    +0.007 A 
BRANCH  23  30
ATOM     29  C   LIG    1       -1.524  -6.340   0.702  0.00  0.00    +0.046 C 
ATOM     30  C   LIG    1       -0.750  -5.518  -0.418  0.00  0.00    +0.086 C 
ATOM     31  C   LIG    1        0.174  -4.473   0.214  0.00  0.00    +0.046 C 
BRANCH  30  32
ATOM     32  O   LIG    1        0.077  -6.498  -1.047  0.00  0.00    -0.385 OA
ATOM     33  H   LIG    1        0.505  -6.993  -0.322  0.00  0.00    +0.211 HD
ENDBRANCH  30  32
ENDBRANCH  23  30
ENDBRANCH  22  24
ENDBRANCH  21  22
ENDBRANCH   1  21
BRANCH   1  34
ATOM     34  S   LIG    1        2.869  -4.363  -5.329  0.00  0.00    -0.152 S 
BRANCH  34  35
ATOM     35  C   LIG    1        4.131  -3.725  -6.580  0.00  0.00    +0.077 C 
BRANCH  35  36
ATOM     36  C   LIG    1        4.859  -2.413  -6.245  0.00  0.00    -0.010 C 
ATOM     37  C   LIG    1        4.338  -1.427  -5.236  0.00  0.00    +0.009 C 
ATOM     38  C   LIG    1        5.447  -2.346  -4.845  0.00  0.00    +0.009 C 
BRANCH  36  39
ATOM     39  C   LIG    1        5.720  -1.722  -7.338  0.00  0.00    +0.128 C 
BRANCH  39  40
ATOM     40  C   LIG    1        5.069  -1.302  -8.657  0.00  0.00    +0.305 C 
ATOM     41  O   LIG    1        5.634  -0.700  -9.505  0.00  0.00    -0.251 OA
BRANCH  40  42
ATOM     42  O   LIG    1        3.758  -1.654  -8.775  0.00  0.00    -0.481 OA
ATOM     43  H   LIG    1        3.327  -1.941  -7.966  0.00  0.00    +0.295 HD
ENDBRANCH  40  42
ENDBRANCH  39  40
ENDBRANCH  36  39
ENDBRANCH  35  36
ENDBRANCH  34  35
ENDBRANCH   1  34
TORSDOF 14
