REMARK  Name = *****
REMARK                            x       y       z     vdW  Elec       q    Type
REMARK                         _______ _______ _______ _____ _____    ______ ____
ROOT
ATOM      1  C   LIG    1        8.718   2.192  -3.237  0.00  0.00    +0.165 C 
ATOM      2  C   LIG    1        8.742   2.809  -1.856  0.00  0.00    +0.013 A 
ATOM      3  C   LIG    1        8.125   4.049  -1.659  0.00  0.00    +0.133 A 
ATOM      4  C   LIG    1        7.967   4.562  -0.373  0.00  0.00    +0.046 A 
ATOM      5  C   LIG    1        8.472   3.861   0.721  0.00  0.00    +0.004 A 
ATOM      6  C   LIG    1        9.156   2.661   0.526  0.00  0.00    +0.001 A 
ATOM      7  O   LIG    1        7.639   4.812  -2.695  0.00  0.00    -0.455 OA
ATOM      8  C   LIG    1        8.057   4.500  -3.968  0.00  0.00    +0.133 A 
ATOM      9  C   LIG    1        7.913   5.494  -4.937  0.00  0.00    +0.046 A 
ATOM     10  C   LIG    1        8.304   5.245  -6.252  0.00  0.00    +0.004 A 
ATOM     11  C   LIG    1        8.825   3.999  -6.601  0.00  0.00    +0.001 A 
ATOM     12  C   LIG    1        8.968   3.003  -5.633  0.00  0.00    +0.008 A 
ATOM     13  C   LIG    1        9.293   2.132  -0.758  0.00  0.00    +0.008 A 
ATOM     14  C   LIG    1        8.593   3.253  -4.305  0.00  0.00    +0.013 A 
ENDROOT
BRANCH   1  15
ATOM     15  C   LIG    1        7.585   1.188  -3.375  0.00  0.00    +0.319 C 
ATOM     16  O   LIG    1        7.640   0.182  -4.082  0.00  0.00    -0.250 OA
BRANCH  15  17
ATOM     17  O   LIG    1        6.459   1.564  -2.719  0.00  0.00    -0.459 OA
BRANCH  17  18
ATOM     18  C   LIG    1        5.276   0.782  -3.000  0.00  0.00    +0.282 C 
BRANCH  18  19
ATOM     19  C   LIG    1        5.261  -0.572  -2.269  0.00  0.00    +0.174 C 
BRANCH  19  20
ATOM     20  N   LIG    1        3.979  -1.435  -2.535  0.00  0.00    +0.243 N 
ATOM     21  C   LIG    1        4.092  -2.700  -1.675  0.00  0.00    +0.192 C 
BRANCH  20  23
ATOM     22  C   LIG    1        2.625  -0.200  -0.732  0.00  0.00    +0.060 C 
ATOM     23  C   LIG    1        2.683  -0.675  -2.183  0.00  0.00    +0.129 C 
ENDBRANCH  20  23
BRANCH  20  24
ATOM     24  C   LIG    1        4.016  -1.840  -4.037  0.00  0.00    +0.129 C 
ATOM     25  C   LIG    1        2.892  -2.755  -4.494  0.00  0.00    +0.060 C 
ENDBRANCH  20  24
ENDBRANCH  19  20
ENDBRANCH  18  19
ENDBRANCH  17  18
ENDBRANCH  15  17
ENDBRANCH   1  15
TORSDOF 7
