REMARK  Name = *****
REMARK                            x       y       z     vdW  Elec       q    Type
REMARK                         _______ _______ _______ _____ _____    ______ ____
ROOT
ATOM      1  C   LIG    1        7.589  -1.391   2.197  0.00  0.00    +0.234 C 
ATOM      2  N   LIG    1        7.221  -0.293   1.409  0.00  0.00    -0.284 N 
ATOM      3  H   LIG    1        6.316  -0.386   0.972  0.00  0.00    +0.155 HD
ATOM      4  O   LIG    1        8.386  -1.352   3.118  0.00  0.00    -0.274 OA
ENDROOT
BRANCH   2   5
ATOM      5  C   LIG    1        7.812   0.988   1.518  0.00  0.00    +0.039 A 
ATOM      6  C   LIG    1        6.981   2.128   1.642  0.00  0.00    -0.029 A 
ATOM      7  C   LIG    1        5.478   2.094   1.701  0.00  0.00    +0.045 C 
ATOM      8  C   LIG    1        7.574   3.402   1.727  0.00  0.00    +0.005 A 
ATOM      9  C   LIG    1        8.954   3.558   1.684  0.00  0.00    +0.001 A 
ATOM     10  C   LIG    1        9.765   2.442   1.526  0.00  0.00    +0.005 A 
ATOM     11  C   LIG    1        9.213   1.153   1.418  0.00  0.00    -0.029 A 
ATOM     12  C   LIG    1       10.159   0.030   1.075  0.00  0.00    +0.045 C 
ENDBRANCH   2   5
BRANCH   1  14
ATOM     13  N   LIG    1        6.234  -2.673   0.520  0.00  0.00    -0.291 NA
ATOM     14  C   LIG    1        6.736  -2.662   1.920  0.00  0.00    +0.143 C 
ATOM     15  C   LIG    1        7.436  -3.970   2.333  0.00  0.00    +0.028 C 
ATOM     16  C   LIG    1        8.516  -4.429   1.359  0.00  0.00    +0.003 C 
ATOM     17  C   LIG    1        8.053  -4.347  -0.090  0.00  0.00    +0.015 C 
ATOM     18  C   LIG    1        7.336  -3.030  -0.406  0.00  0.00    +0.085 C 
BRANCH  13  19
ATOM     19  C   LIG    1        5.041  -3.522   0.307  0.00  0.00    +0.085 C 
BRANCH  19  20
ATOM     20  C   LIG    1        3.841  -3.203   1.229  0.00  0.00    +0.015 C 
BRANCH  20  22
ATOM     21  C   LIG    1        1.455  -3.765   1.885  0.00  0.00    +0.004 C 
ATOM     22  C   LIG    1        2.617  -4.086   0.948  0.00  0.00    -0.002 C 
ENDBRANCH  20  22
ENDBRANCH  19  20
ENDBRANCH  13  19
ENDBRANCH   1  14
TORSDOF 5
