REMARK  Name = *****
REMARK                            x       y       z     vdW  Elec       q    Type
REMARK                         _______ _______ _______ _____ _____    ______ ____
ROOT
ATOM      1  C   LIG    1        1.567   3.654   0.801  0.00  0.00    +0.149 A 
ATOM      2  C   LIG    1        2.815   3.082   1.102  0.00  0.00    +0.147 A 
ATOM      3  N   LIG    1        3.200   2.118   2.010  0.00  0.00    -0.231 NA
ATOM      4  C   LIG    1        4.496   1.987   1.831  0.00  0.00    +0.203 A 
ATOM      5  N   LIG    1        4.972   2.831   0.861  0.00  0.00    -0.285 N 
ATOM      6  C   LIG    1        3.900   3.519   0.362  0.00  0.00    +0.169 A 
ATOM      7  N   LIG    1        3.894   4.428  -0.628  0.00  0.00    -0.198 NA
ATOM      8  C   LIG    1        2.641   4.889  -0.828  0.00  0.00    +0.226 A 
ATOM      9 CL   LIG    1        2.481   6.038  -2.088  0.00  0.00    -0.041 Cl
ATOM     10  N   LIG    1        1.496   4.561  -0.197  0.00  0.00    -0.201 NA
ENDROOT
BRANCH   5  11
ATOM     11  C   LIG    1        6.341   2.973   0.414  0.00  0.00    +0.259 C 
ATOM     12  C   LIG    1        6.920   4.366   0.609  0.00  0.00    +0.246 C 
ATOM     13  F   LIG    1        6.481   4.901   1.780  0.00  0.00    -0.238 F 
ATOM     14  C   LIG    1        8.402   4.081   0.715  0.00  0.00    +0.184 C 
ATOM     15  C   LIG    1        8.457   2.709   1.392  0.00  0.00    +0.178 C 
ATOM     16  O   LIG    1        7.184   2.063   1.160  0.00  0.00    -0.345 OA
BRANCH  14  17
ATOM     17  O   LIG    1        8.943   3.993  -0.612  0.00  0.00    -0.386 OA
ATOM     18  H   LIG    1        9.913   3.937  -0.535  0.00  0.00    +0.210 HD
ENDBRANCH  14  17
BRANCH  15  19
ATOM     19  C   LIG    1        8.714   2.755   2.902  0.00  0.00    +0.190 C 
BRANCH  19  20
ATOM     20  O   LIG    1        7.786   3.574   3.597  0.00  0.00    -0.392 OA
ATOM     21  H   LIG    1        6.886   3.311   3.333  0.00  0.00    +0.209 HD
ENDBRANCH  19  20
ENDBRANCH  15  19
ENDBRANCH   5  11
BRANCH   1  22
ATOM     22  N   LIG    1        0.399   3.313   1.470  0.00  0.00    -0.341 N 
ATOM     23  H   LIG    1        0.453   2.427   1.962  0.00  0.00    +0.144 HD
ATOM     24  H   LIG    1       -0.435   3.507   0.934  0.00  0.00    +0.144 HD
ENDBRANCH   1  22
TORSDOF 5
