REMARK  Name = *****
REMARK                            x       y       z     vdW  Elec       q    Type
REMARK                         _______ _______ _______ _____ _____    ______ ____
ROOT
ATOM      1  C   LIG    1       -6.804 -19.264  -5.341  0.00  0.00    +0.175 C 
ATOM      2  C   LIG    1       -5.335 -18.873  -5.307  0.00  0.00    +0.058 C 
ATOM      3  C   LIG    1       -5.243 -17.783  -4.228  0.00  0.00    +0.090 C 
ATOM      4  C   LIG    1       -6.363 -18.173  -3.201  0.00  0.00    +0.090 C 
ATOM      5  C   LIG    1       -7.395 -17.214  -2.559  0.00  0.00    +0.218 C 
ATOM      6  O   LIG    1       -8.507 -17.615  -2.205  0.00  0.00    -0.276 OA
ATOM      7  N   LIG    1       -6.950 -15.973  -2.173  0.00  0.00    -0.301 N 
ATOM      8  H   LIG    1       -6.252 -15.549  -2.784  0.00  0.00    +0.150 HD
ATOM      9  C   LIG    1       -7.806 -15.016  -1.469  0.00  0.00    +0.119 C 
ATOM     10  C   LIG    1       -8.202 -13.716  -2.198  0.00  0.00    +0.046 C 
ATOM     11  C   LIG    1       -7.852 -13.497  -3.618  0.00  0.00    -0.025 C 
ATOM     12  C   LIG    1       -7.247 -12.415  -4.139  0.00  0.00    -0.031 C 
ATOM     13  C   LIG    1       -6.847 -12.179  -5.580  0.00  0.00    +0.027 C 
ATOM     14  C   LIG    1       -6.557 -13.393  -6.478  0.00  0.00    +0.006 C 
ATOM     15  C   LIG    1       -5.061 -13.756  -6.568  0.00  0.00    +0.019 C 
ATOM     16  C   LIG    1       -4.843 -15.214  -6.993  0.00  0.00    +0.107 C 
ATOM     17  N   LIG    1       -4.404 -16.123  -5.926  0.00  0.00    -0.304 N 
ATOM     18  C   LIG    1       -3.111 -16.768  -6.118  0.00  0.00    +0.132 C 
ATOM     19  C   LIG    1       -9.241 -14.758  -1.911  0.00  0.00    +0.046 C 
ATOM     20  C   LIG    1       -5.301 -16.427  -4.912  0.00  0.00    +0.219 C 
ATOM     21  O   LIG    1       -6.141 -15.610  -4.555  0.00  0.00    -0.275 OA
ATOM     22  C   LIG    1       -7.108 -19.369  -3.856  0.00  0.00    +0.058 C 
ENDROOT
BRANCH   9  23
ATOM     23  C   LIG    1       -7.538 -14.905   0.030  0.00  0.00    +0.256 C 
ATOM     24  N   LIG    1       -8.298 -15.791   0.828  0.00  0.00    -0.188 N 
ATOM     25  H   LIG    1       -8.872 -16.497   0.392  0.00  0.00    +0.176 HD
ATOM     26  O   LIG    1       -6.765 -14.101   0.466  0.00  0.00    -0.272 OA
BRANCH  24  27
ATOM     27  S   LIG    1       -8.091 -15.974   2.463  0.00  0.00    +0.048 S 
ATOM     28  O   LIG    1       -6.674 -16.170   2.737  0.00  0.00    -0.155 OA
ATOM     29  O   LIG    1       -9.055 -16.971   2.859  0.00  0.00    -0.155 OA
BRANCH  27  30
ATOM     30  C   LIG    1       -8.558 -14.402   3.259  0.00  0.00    +0.151 C 
ATOM     31  C   LIG    1       -9.813 -14.438   4.098  0.00  0.00    +0.030 C 
ATOM     32  C   LIG    1       -8.467 -14.430   4.768  0.00  0.00    +0.030 C 
ENDBRANCH  27  30
ENDBRANCH  24  27
ENDBRANCH   9  23
BRANCH   1  33
ATOM     33  O   LIG    1       -7.615 -18.250  -5.962  0.00  0.00    -0.488 OA
BRANCH  33  39
ATOM     34  C   LIG    1      -10.980 -16.215  -9.218  0.00  0.00    +0.125 A 
ATOM     35  C   LIG    1      -11.451 -17.491  -8.856  0.00  0.00    +0.017 A 
ATOM     36  C   LIG    1      -12.720 -18.075  -9.448  0.00  0.00    +0.050 C 
ATOM     37  C   LIG    1      -10.704 -18.283  -7.968  0.00  0.00    +0.082 A 
ATOM     38  C   LIG    1       -9.521 -17.801  -7.370  0.00  0.00    +0.043 A 
ATOM     39  C   LIG    1       -8.821 -18.680  -6.495  0.00  0.00    +0.132 A 
ATOM     40  C   LIG    1       -9.336 -19.955  -6.249  0.00  0.00    +0.076 A 
ATOM     41  C   LIG    1      -10.444 -20.370  -6.951  0.00  0.00    +0.100 A 
ATOM     42  C   LIG    1       -9.099 -16.502  -7.707  0.00  0.00    +0.017 A 
ATOM     43  N   LIG    1      -11.121 -19.534  -7.761  0.00  0.00    -0.244 NA
ATOM     44  C   LIG    1       -9.816 -15.726  -8.620  0.00  0.00    +0.046 A 
BRANCH  41  45
ATOM     45  C   LIG    1      -10.905 -21.773  -6.947  0.00  0.00    +0.127 A 
ATOM     46  S   LIG    1      -12.254 -22.216  -7.935  0.00  0.00    -0.074 S 
ATOM     47  C   LIG    1      -12.103 -23.827  -7.422  0.00  0.00    +0.070 A 
ATOM     48  C   LIG    1      -11.041 -23.971  -6.552  0.00  0.00    +0.052 A 
ATOM     49  N   LIG    1      -10.350 -22.785  -6.293  0.00  0.00    -0.242 NA
BRANCH  48  50
ATOM     50  C   LIG    1      -10.611 -25.251  -5.873  0.00  0.00    +0.032 C 
ATOM     51  C   LIG    1       -9.509 -25.974  -6.652  0.00  0.00    +0.014 C 
ATOM     52  C   LIG    1      -11.789 -26.212  -5.656  0.00  0.00    +0.014 C 
ENDBRANCH  48  50
ENDBRANCH  41  45
BRANCH  34  54
ATOM     53  C   LIG    1      -10.874 -14.612 -10.947  0.00  0.00    +0.277 C 
ATOM     54  O   LIG    1      -11.682 -15.494 -10.157  0.00  0.00    -0.495 OA
ENDBRANCH  34  54
ENDBRANCH  33  39
ENDBRANCH   1  33
TORSDOF 8
