REMARK  Name = *****
REMARK                            x       y       z     vdW  Elec       q    Type
REMARK                         _______ _______ _______ _____ _____    ______ ____
ROOT
ATOM      1  C   LIG    1        6.135   8.584  -6.880  0.00  0.00    -0.009 C 
ATOM      2  C   LIG    1        5.023   7.987  -6.027  0.00  0.00    +0.108 C 
ATOM      3  S   LIG    1        5.535   6.530  -5.060  0.00  0.00    -0.131 S 
ATOM      4  C   LIG    1        6.261   5.718  -6.508  0.00  0.00    +0.169 C 
ATOM      5  N   LIG    1        7.332   6.548  -7.006  0.00  0.00    -0.249 N 
ATOM      6  C   LIG    1        8.307   5.617  -6.961  0.00  0.00    +0.244 C 
ATOM      7  O   LIG    1        9.488   5.653  -7.241  0.00  0.00    -0.273 OA
ATOM      8  CA  LIG    1        7.328   4.615  -6.243  0.00  0.00    +0.191 C 
ATOM      9  CA  LIG    1        7.219   7.879  -7.297  0.00  0.00    +0.126 C 
ENDROOT
BRANCH   8  10
ATOM     10  N   LIG    1        7.656   4.313  -4.826  0.00  0.00    -0.300 N 
ATOM     11  H   LIG    1        7.058   4.630  -4.067  0.00  0.00    +0.150 HD
ATOM     12  C   LIG    1        8.810   3.643  -4.460  0.00  0.00    +0.235 C 
ATOM     13  O   LIG    1        9.576   3.170  -5.295  0.00  0.00    -0.274 OA
BRANCH  12  14
ATOM     14  CA  LIG    1        9.051   3.548  -2.926  0.00  0.00    +0.168 C 
BRANCH  14  15
ATOM     15  C   LIG    1       10.323   4.231  -2.437  0.00  0.00    -0.022 A 
ATOM     16  C   LIG    1       11.016   3.710  -1.326  0.00  0.00    +0.009 A 
ATOM     17  C   LIG    1       12.142   4.360  -0.809  0.00  0.00    +0.045 A 
ATOM     18  C   LIG    1       12.584   5.539  -1.393  0.00  0.00    +0.117 A 
ATOM     19  C   LIG    1       11.927   6.070  -2.496  0.00  0.00    +0.045 A 
ATOM     20  C   LIG    1       10.799   5.421  -3.013  0.00  0.00    +0.009 A 
BRANCH  18  21
ATOM     21  O   LIG    1       13.671   6.156  -0.846  0.00  0.00    -0.507 OA
ATOM     22  H   LIG    1       13.846   6.972  -1.343  0.00  0.00    +0.292 HD
ENDBRANCH  18  21
ENDBRANCH  14  15
BRANCH  14  23
ATOM     23  N   LIG    1        7.873   4.085  -2.190  0.00  0.00    -0.316 NA
ATOM     24  H1  LIG    1        8.061   3.964  -1.193  0.00  0.00    +0.119 HD
ATOM     25  H2  LIG    1        7.857   5.097  -2.318  0.00  0.00    +0.119 HD
ENDBRANCH  14  23
ENDBRANCH  12  14
ENDBRANCH   8  10
BRANCH   1  28
ATOM     26  C   LIG    1        5.563  11.935  -8.736  0.00  0.00    +0.035 C 
ATOM     27  C   LIG    1        5.771  10.490  -8.414  0.00  0.00    -0.030 C 
ATOM     28  C   LIG    1        5.908   9.998  -7.172  0.00  0.00    +0.002 C 
ENDBRANCH   1  28
BRANCH   9  29
ATOM     29  C   LIG    1        8.338   8.534  -8.053  0.00  0.00    +0.352 C 
ATOM     30  O   LIG    1        8.743   9.677  -7.943  0.00  0.00    -0.244 OA
BRANCH  29  31
ATOM     31  OXT LIG    1        8.876   7.700  -8.963  0.00  0.00    -0.476 OA
ATOM     32  HXT LIG    1        9.675   8.167  -9.281  0.00  0.00    +0.295 HD
ENDBRANCH  29  31
ENDBRANCH   9  29
TORSDOF 8
