REMARK  Name = *****
REMARK                            x       y       z     vdW  Elec       q    Type
REMARK                         _______ _______ _______ _____ _____    ______ ____
ROOT
ATOM      1  C   LIG    1        2.034  -0.368  -0.444  0.00  0.00    +0.117 A 
ATOM      2  C   LIG    1        2.826  -1.509  -0.476  0.00  0.00    +0.049 A 
ATOM      3  C   LIG    1        4.221  -1.408  -0.339  0.00  0.00    -0.040 A 
ATOM      4  C   LIG    1        5.019  -2.692  -0.330  0.00  0.00    +0.036 C 
ATOM      5  C   LIG    1        6.529  -2.522  -0.175  0.00  0.00    +0.013 C 
ATOM      6  C   LIG    1        6.909  -1.349   0.745  0.00  0.00    +0.031 C 
ATOM      7  C   LIG    1        6.319  -0.043   0.115  0.00  0.00    +0.057 C 
ATOM      8  C   LIG    1        4.814  -0.140  -0.137  0.00  0.00    -0.036 A 
ATOM      9  C   LIG    1        3.995   1.002  -0.202  0.00  0.00    +0.008 A 
ATOM     10  C   LIG    1        2.609   0.888  -0.330  0.00  0.00    +0.045 A 
ENDROOT
BRANCH   6  11
ATOM     11  C   LIG    1        6.614  -1.677   2.212  0.00  0.00    -0.043 A 
ATOM     12  C   LIG    1        5.378  -1.439   2.833  0.00  0.00    +0.004 A 
ATOM     13  C   LIG    1        5.156  -1.776   4.169  0.00  0.00    +0.000 A 
ATOM     14  C   LIG    1        6.167  -2.366   4.919  0.00  0.00    +0.000 A 
ATOM     15  C   LIG    1        7.398  -2.625   4.325  0.00  0.00    +0.000 A 
ATOM     16  C   LIG    1        7.618  -2.288   2.983  0.00  0.00    +0.004 A 
ENDBRANCH   6  11
BRANCH   7  17
ATOM     17  C   LIG    1        6.875   1.209   0.797  0.00  0.00    -0.039 A 
ATOM     18  C   LIG    1        6.287   1.785   1.932  0.00  0.00    +0.008 A 
ATOM     19  C   LIG    1        6.842   2.917   2.533  0.00  0.00    +0.046 A 
ATOM     20  C   LIG    1        8.024   3.460   2.038  0.00  0.00    +0.121 A 
ATOM     21  C   LIG    1        8.617   2.920   0.902  0.00  0.00    +0.046 A 
ATOM     22  C   LIG    1        8.052   1.796   0.291  0.00  0.00    +0.008 A 
BRANCH  20  23
ATOM     23  O   LIG    1        8.612   4.558   2.601  0.00  0.00    -0.491 OA
BRANCH  23  24
ATOM     24  C   LIG    1        8.910   4.374   3.996  0.00  0.00    +0.244 C 
BRANCH  24  25
ATOM     25  C   LIG    1        8.223   5.475   4.822  0.00  0.00    +0.125 C 
BRANCH  25  26
ATOM     26  N   LIG    1        8.501   5.383   6.261  0.00  0.00    -0.299 NA
ATOM     27  C   LIG    1        9.920   5.529   6.591  0.00  0.00    +0.084 C 
ATOM     28  C   LIG    1        9.874   5.808   8.079  0.00  0.00    +0.017 C 
ATOM     29  C   LIG    1        8.701   6.761   8.204  0.00  0.00    +0.017 C 
ATOM     30  C   LIG    1        7.777   6.395   7.044  0.00  0.00    +0.084 C 
ENDBRANCH  25  26
ENDBRANCH  24  25
ENDBRANCH  23  24
ENDBRANCH  20  23
ENDBRANCH   7  17
BRANCH   1  31
ATOM     31  O   LIG    1        0.684  -0.530  -0.521  0.00  0.00    -0.507 OA
ATOM     32  H   LIG    1        0.263   0.338  -0.401  0.00  0.00    +0.292 HD
ENDBRANCH   1  31
TORSDOF 7
