REMARK  Name = *****
REMARK                            x       y       z     vdW  Elec       q    Type
REMARK                         _______ _______ _______ _____ _____    ______ ____
ROOT
ATOM      1  N   LIG    1        3.677   5.879  -9.231  0.00  0.00    -0.302 NA
ATOM      2  C   LIG    1        2.375   6.539  -9.097  0.00  0.00    +0.085 C 
ATOM      3  C   LIG    1        2.113   7.022  -7.675  0.00  0.00    +0.022 C 
ATOM      4  C   LIG    1        3.188   8.014  -7.179  0.00  0.00    +0.032 C 
ATOM      5  C   LIG    1        4.617   7.515  -7.539  0.00  0.00    +0.022 C 
ATOM      6  C   LIG    1        4.727   6.870  -8.931  0.00  0.00    +0.085 C 
ENDROOT
BRANCH   1   7
ATOM      7  C   LIG    1        3.841   4.653  -8.420  0.00  0.00    +0.084 C 
BRANCH   7   8
ATOM      8  C   LIG    1        2.772   3.561  -8.640  0.00  0.00    +0.018 C 
BRANCH   8   9
ATOM      9  C   LIG    1        3.046   2.340  -7.742  0.00  0.00    +0.037 C 
BRANCH   9  10
ATOM     10  C   LIG    1        1.977   1.231  -7.853  0.00  0.00    +0.144 C 
BRANCH  10  14
ATOM     11  C   LIG    1        2.616  -2.305  -5.334  0.00  0.00    -0.042 A 
ATOM     12  C   LIG    1        3.108  -1.046  -4.959  0.00  0.00    +0.004 A 
ATOM     13  C   LIG    1        2.912   0.085  -5.763  0.00  0.00    +0.006 A 
ATOM     14  C   LIG    1        2.241   0.007  -6.994  0.00  0.00    -0.019 A 
ATOM     15  C   LIG    1        1.767  -1.251  -7.383  0.00  0.00    +0.006 A 
ATOM     16  C   LIG    1        1.962  -2.382  -6.575  0.00  0.00    +0.004 A 
BRANCH  11  18
ATOM     17  C   LIG    1        4.154  -4.218  -4.850  0.00  0.00    +0.015 C 
ATOM     18  C   LIG    1        2.829  -3.546  -4.445  0.00  0.00    -0.013 C 
ATOM     19  C   LIG    1        2.897  -3.197  -2.940  0.00  0.00    +0.015 C 
ATOM     20  C   LIG    1        1.685  -4.577  -4.596  0.00  0.00    +0.015 C 
ENDBRANCH  11  18
ENDBRANCH  10  14
BRANCH  10  21
ATOM     21  O   LIG    1        0.713   1.779  -7.476  0.00  0.00    -0.387 OA
ATOM     22  H   LIG    1        0.659   1.735  -6.506  0.00  0.00    +0.210 HD
ENDBRANCH  10  21
ENDBRANCH   9  10
ENDBRANCH   8   9
ENDBRANCH   7   8
ENDBRANCH   1   7
BRANCH   4  23
ATOM     23  C   LIG    1        3.051   8.451  -5.655  0.00  0.00    +0.119 C 
BRANCH  23  24
ATOM     24  C   LIG    1        3.492   7.314  -4.694  0.00  0.00    -0.011 A 
ATOM     25  C   LIG    1        2.738   6.129  -4.563  0.00  0.00    +0.007 A 
ATOM     26  C   LIG    1        3.147   5.088  -3.726  0.00  0.00    +0.000 A 
ATOM     27  C   LIG    1        4.293   5.220  -2.957  0.00  0.00    +0.000 A 
ATOM     28  C   LIG    1        5.039   6.392  -3.037  0.00  0.00    +0.000 A 
ATOM     29  C   LIG    1        4.645   7.425  -3.895  0.00  0.00    +0.007 A 
ENDBRANCH  23  24
BRANCH  23  30
ATOM     30  C   LIG    1        1.687   9.074  -5.258  0.00  0.00    -0.011 A 
ATOM     31  C   LIG    1        0.842   9.697  -6.198  0.00  0.00    +0.007 A 
ATOM     32  C   LIG    1       -0.386  10.254  -5.822  0.00  0.00    +0.000 A 
ATOM     33  C   LIG    1       -0.788  10.237  -4.492  0.00  0.00    +0.000 A 
ATOM     34  C   LIG    1        0.055   9.684  -3.532  0.00  0.00    +0.000 A 
ATOM     35  C   LIG    1        1.279   9.126  -3.909  0.00  0.00    +0.007 A 
ENDBRANCH  23  30
BRANCH  23  36
ATOM     36  O   LIG    1        4.001   9.537  -5.513  0.00  0.00    -0.379 OA
ATOM     37  H   LIG    1        3.498  10.366  -5.448  0.00  0.00    +0.211 HD
ENDBRANCH  23  36
ENDBRANCH   4  23
TORSDOF 11
