REMARK  Name = *****
REMARK                            x       y       z     vdW  Elec       q    Type
REMARK                         _______ _______ _______ _____ _____    ______ ____
ROOT
ATOM      1  C   LIG    1       11.729  -3.389  -4.468  0.00  0.00    +0.214 C 
ATOM      2  N   LIG    1       12.232  -3.064  -5.696  0.00  0.00    -0.302 N 
ATOM      3  H   LIG    1       12.361  -2.075  -5.878  0.00  0.00    +0.149 HD
ATOM      4  O   LIG    1       11.659  -4.549  -4.040  0.00  0.00    -0.276 OA
ENDROOT
BRANCH   1   5
ATOM      5  C   LIG    1       11.239  -2.202  -3.670  0.00  0.00    +0.096 C 
BRANCH   5   6
ATOM      6  C   LIG    1        9.757  -1.927  -3.917  0.00  0.00    +0.009 C 
BRANCH   6   7
ATOM      7  C   LIG    1        9.278  -0.771  -3.038  0.00  0.00    +0.000 C 
BRANCH   7   8
ATOM      8  C   LIG    1        7.789  -0.471  -3.220  0.00  0.00    +0.000 C 
BRANCH   8   9
ATOM      9  C   LIG    1        7.312   0.708  -2.363  0.00  0.00    +0.000 C 
BRANCH   9  10
ATOM     10  C   LIG    1        7.469   0.483  -0.853  0.00  0.00    +0.000 C 
BRANCH  10  11
ATOM     11  C   LIG    1        6.981   1.702  -0.069  0.00  0.00    +0.004 C 
BRANCH  11  12
ATOM     12  C   LIG    1        7.143   1.542   1.445  0.00  0.00    +0.026 C 
BRANCH  12  14
ATOM     13  C   LIG    1        7.393   3.828   2.450  0.00  0.00    +0.004 C 
ATOM     14  C   LIG    1        6.631   2.769   2.147  0.00  0.00    -0.035 C 
ENDBRANCH  12  14
ENDBRANCH  11  12
ENDBRANCH  10  11
ENDBRANCH   9  10
ENDBRANCH   8   9
ENDBRANCH   7   8
ENDBRANCH   6   7
ENDBRANCH   5   6
ENDBRANCH   1   5
BRANCH   2  15
ATOM     15  C   LIG    1       12.937  -4.011  -6.574  0.00  0.00    +0.182 C 
BRANCH  15  16
ATOM     16  C   LIG    1       14.418  -3.601  -6.710  0.00  0.00    +0.327 C 
ATOM     17  O   LIG    1       14.830  -2.451  -6.634  0.00  0.00    -0.249 OA
BRANCH  16  18
ATOM     18  O   LIG    1       15.194  -4.716  -6.967  0.00  0.00    -0.467 OA
ATOM     19  C   LIG    1       16.584  -4.447  -7.145  0.00  0.00    +0.280 C 
ENDBRANCH  16  18
ENDBRANCH  15  16
BRANCH  15  20
ATOM     20  C   LIG    1       12.270  -4.139  -7.951  0.00  0.00    +0.036 C 
BRANCH  20  21
ATOM     21  C   LIG    1       12.251  -2.890  -8.872  0.00  0.00    -0.015 C 
ATOM     22  C   LIG    1       11.523  -1.687  -8.273  0.00  0.00    +0.007 C 
ATOM     23  C   LIG    1       11.582  -3.219 -10.213  0.00  0.00    +0.007 C 
ENDBRANCH  20  21
ENDBRANCH  15  20
ENDBRANCH   2  15
TORSDOF 14
