REMARK  Name = *****
REMARK                            x       y       z     vdW  Elec       q    Type
REMARK                         _______ _______ _______ _____ _____    ______ ____
ROOT
ATOM      1  C   LIG    1        2.432  -0.018   0.011  0.00  0.00    +0.156 A 
ATOM      2  C   LIG    1        3.151   1.187   0.008  0.00  0.00    +0.114 A 
ATOM      3  C   LIG    1        4.566   1.132   0.012  0.00  0.00    +0.017 A 
ATOM      4  C   LIG    1        5.246   2.374  -0.005  0.00  0.00    +0.012 A 
ATOM      5  C   LIG    1        4.549   3.576  -0.033  0.00  0.00    +0.020 A 
ATOM      6  C   LIG    1        3.177   3.519  -0.032  0.00  0.00    +0.111 A 
ATOM      7  C   LIG    1        5.202  -0.140   0.025  0.00  0.00    +0.024 A 
ATOM      8  I   LIG    1        7.301  -0.381   0.048  0.00  0.00    -0.043 I 
ATOM      9  C   LIG    1        4.461  -1.325   0.017  0.00  0.00    +0.033 A 
ATOM     10  N   LIG    1        2.483   2.365  -0.007  0.00  0.00    -0.251 NA
ATOM     11  C   LIG    1        3.075  -1.261   0.006  0.00  0.00    +0.058 A 
ATOM     12  I   LIG    1        1.996  -3.052  -0.031  0.00  0.00    -0.040 I 
ENDROOT
BRANCH   1  13
ATOM     13  O   LIG    1        1.054   0.047   0.010  0.00  0.00    -0.504 OA
ATOM     14  H   LIG    1        0.704  -0.859   0.006  0.00  0.00    +0.292 HD
ENDBRANCH   1  13
TORSDOF 1
