REMARK  Name = *****
REMARK                            x       y       z     vdW  Elec       q    Type
REMARK                         _______ _______ _______ _____ _____    ______ ____
ROOT
ATOM      1  C   LIG    1        6.382  -2.023  -2.432  0.00  0.00    +0.234 C 
ATOM      2  N   LIG    1        6.114  -2.525  -3.702  0.00  0.00    -0.283 N 
ATOM      3  H   LIG    1        5.446  -1.929  -4.189  0.00  0.00    +0.155 HD
ATOM      4  O   LIG    1        7.477  -2.048  -1.875  0.00  0.00    -0.274 OA
ENDROOT
BRANCH   2   5
ATOM      5  C   LIG    1        7.121  -3.112  -4.477  0.00  0.00    +0.058 A 
ATOM      6  C   LIG    1        7.442  -2.685  -5.761  0.00  0.00    +0.118 A 
ATOM      7  S   LIG    1        8.727  -3.599  -6.438  0.00  0.00    -0.088 S 
ATOM      8  C   LIG    1        8.809  -4.618  -5.080  0.00  0.00    +0.051 A 
ATOM      9  C   LIG    1        7.852  -4.318  -4.126  0.00  0.00    -0.021 A 
ATOM     10  C   LIG    1        7.593  -5.200  -2.948  0.00  0.00    +0.046 C 
BRANCH   6  11
ATOM     11  C   LIG    1        6.855  -1.614  -6.584  0.00  0.00    +0.347 C 
ATOM     12  O   LIG    1        6.768  -1.587  -7.792  0.00  0.00    -0.244 OA
BRANCH  11  13
ATOM     13  O   LIG    1        6.405  -0.658  -5.725  0.00  0.00    -0.464 OA
ATOM     14  C   LIG    1        5.591   0.349  -6.327  0.00  0.00    +0.280 C 
ENDBRANCH  11  13
ENDBRANCH   6  11
ENDBRANCH   2   5
BRANCH   1  15
ATOM     15  C   LIG    1        5.143  -1.384  -1.746  0.00  0.00    +0.138 C 
ATOM     16  C   LIG    1        4.114  -2.485  -1.495  0.00  0.00    +0.034 C 
BRANCH  15  17
ATOM     17  N   LIG    1        4.598  -0.279  -2.584  0.00  0.00    -0.306 NA
ATOM     18  H   LIG    1        5.353   0.404  -2.696  0.00  0.00    +0.123 HD
BRANCH  17  19
ATOM     19  C   LIG    1        3.474   0.409  -1.919  0.00  0.00    +0.081 C 
BRANCH  19  21
ATOM     20  C   LIG    1        3.889   2.663  -3.037  0.00  0.00    +0.005 C 
ATOM     21  C   LIG    1        2.898   1.541  -2.776  0.00  0.00    +0.012 C 
ENDBRANCH  19  21
ENDBRANCH  17  19
ENDBRANCH  15  17
ENDBRANCH   1  15
TORSDOF 7
