REMARK  Name = *****
REMARK                            x       y       z     vdW  Elec       q    Type
REMARK                         _______ _______ _______ _____ _____    ______ ____
ROOT
ATOM      1  O   LIG    1        5.339   1.948  -0.084  0.00  0.00    -0.458 OA
ENDROOT
BRANCH   1   3
ATOM      2  C   LIG    1        2.904   1.512   0.152  0.00  0.00    +0.032 C 
ATOM      3  C   LIG    1        4.334   0.923   0.072  0.00  0.00    +0.180 C 
ATOM      4  C   LIG    1        4.417  -0.033  -1.137  0.00  0.00    +0.048 C 
ATOM      5  C   LIG    1        3.957   0.562  -2.484  0.00  0.00    -0.011 C 
ATOM      6  C   LIG    1        5.045   1.396  -3.164  0.00  0.00    +0.007 C 
ATOM      7  C   LIG    1        2.640   1.341  -2.366  0.00  0.00    +0.004 C 
ATOM      8  C   LIG    1        2.570   2.264  -1.150  0.00  0.00    +0.007 C 
BRANCH   2  10
ATOM      9  C   LIG    1        3.235   3.720   1.499  0.00  0.00    +0.007 C 
ATOM     10  C   LIG    1        2.557   2.354   1.414  0.00  0.00    -0.011 C 
ATOM     11  C   LIG    1        2.802   1.593   2.722  0.00  0.00    +0.007 C 
ENDBRANCH   2  10
ENDBRANCH   1   3
BRANCH   1  12
ATOM     12  C   LIG    1        6.579   1.648   0.393  0.00  0.00    +0.341 C 
ATOM     13  O   LIG    1        6.847   0.732   1.167  0.00  0.00    -0.245 OA
BRANCH  12  14
ATOM     14  C   LIG    1        7.621   2.505  -0.241  0.00  0.00    +0.080 A 
ATOM     15  C   LIG    1        8.928   2.004  -0.448  0.00  0.00    +0.039 A 
ATOM     16  C   LIG    1        9.855   2.807  -1.131  0.00  0.00    +0.023 A 
ATOM     17  C   LIG    1        9.541   4.115  -1.501  0.00  0.00    +0.002 A 
ATOM     18  C   LIG    1        8.273   4.625  -1.236  0.00  0.00    +0.001 A 
ATOM     19  C   LIG    1        7.311   3.821  -0.619  0.00  0.00    +0.017 A 
BRANCH  15  20
ATOM     20  N   LIG    1        9.275   0.657  -0.217  0.00  0.00    -0.357 N 
ATOM     21  H   LIG    1        8.724   0.246   0.545  0.00  0.00    +0.142 HD
ATOM     22  H   LIG    1       10.270   0.500  -0.091  0.00  0.00    +0.142 HD
ENDBRANCH  15  20
ENDBRANCH  12  14
ENDBRANCH   1  12
TORSDOF 5
