REMARK  Name = *****
REMARK                            x       y       z     vdW  Elec       q    Type
REMARK                         _______ _______ _______ _____ _____    ______ ____
ROOT
ATOM      1  C   LIG    1        4.572   1.502   0.775  0.00  0.00    -0.040 A 
ATOM      2  C   LIG    1        5.647   0.661   0.448  0.00  0.00    +0.053 A 
ATOM      3  C   LIG    1        6.897   1.180   0.079  0.00  0.00    +0.162 A 
ATOM      4  C   LIG    1        7.069   2.568   0.048  0.00  0.00    +0.159 A 
ATOM      5  C   LIG    1        6.003   3.417   0.360  0.00  0.00    +0.049 A 
ATOM      6  C   LIG    1        4.761   2.887   0.718  0.00  0.00    +0.008 A 
ENDROOT
BRANCH   3   7
ATOM      7  O   LIG    1        7.843   0.218  -0.158  0.00  0.00    -0.491 OA
ATOM      8  C   LIG    1        8.896   0.560  -1.049  0.00  0.00    +0.277 C 
ENDBRANCH   3   7
BRANCH   4   9
ATOM      9  O   LIG    1        8.278   3.128  -0.256  0.00  0.00    -0.503 OA
ATOM     10  H   LIG    1        8.237   4.082  -0.083  0.00  0.00    +0.292 HD
ENDBRANCH   4   9
BRANCH   1  11
ATOM     11  C   LIG    1        3.233   0.924   1.171  0.00  0.00    +0.061 C 
BRANCH  11  13
ATOM     12  C   LIG    1        1.861  -0.498  -0.387  0.00  0.00    +0.004 C 
ATOM     13  C   LIG    1        2.323   0.697  -0.006  0.00  0.00    -0.030 C 
ENDBRANCH  11  13
ENDBRANCH   1  11
TORSDOF 4
