REMARK  Name = *****
REMARK                            x       y       z     vdW  Elec       q    Type
REMARK                         _______ _______ _______ _____ _____    ______ ____
ROOT
ATOM      1  C   LIG    1        3.249   0.923  -1.175  0.00  0.00    +0.003 C 
ATOM      2  C   LIG    1        2.105   1.228  -2.155  0.00  0.00    +0.005 C 
ATOM      3  C   LIG    1        0.998   2.086  -1.538  0.00  0.00    +0.015 C 
ATOM      4  C   LIG    1        1.518   3.355  -0.847  0.00  0.00    +0.098 C 
ATOM      5  C   LIG    1        2.625   3.002   0.150  0.00  0.00    +0.015 C 
ATOM      6  C   LIG    1        3.754   2.205  -0.495  0.00  0.00    +0.005 C 
ENDROOT
BRANCH   4   7
ATOM      7  C   LIG    1        1.962   4.414  -1.850  0.00  0.00    +0.308 C 
ATOM      8  O   LIG    1        1.974   4.271  -3.065  0.00  0.00    -0.251 OA
BRANCH   7   9
ATOM      9  O   LIG    1        2.309   5.588  -1.275  0.00  0.00    -0.480 OA
ATOM     10  H   LIG    1        2.224   5.601  -0.304  0.00  0.00    +0.295 HD
ENDBRANCH   7   9
ENDBRANCH   4   7
BRANCH   1  11
ATOM     11  C   LIG    1        4.393   0.201  -1.914  0.00  0.00    +0.081 C 
BRANCH  11  12
ATOM     12  N   LIG    1        5.462  -0.193  -1.002  0.00  0.00    -0.330 NA
ATOM     13  H   LIG    1        5.112  -0.886  -0.342  0.00  0.00    +0.118 HD
ATOM     14  H   LIG    1        6.206  -0.647  -1.530  0.00  0.00    +0.118 HD
ENDBRANCH  11  12
ENDBRANCH   1  11
TORSDOF 4
