REMARK  Name = *****
REMARK                            x       y       z     vdW  Elec       q    Type
REMARK                         _______ _______ _______ _____ _____    ______ ____
ROOT
ATOM      1  C   LIG    1        1.215  -0.164   0.025  0.00  0.00    +0.063 C 
ATOM      2  C   LIG    1        2.700  -0.054   0.030  0.00  0.00    +0.043 C 
ATOM      3  C   LIG    1        3.391   1.266  -0.042  0.00  0.00    +0.150 C 
ATOM      4  C   LIG    1        4.830   0.846  -0.003  0.00  0.00    +0.245 C 
ATOM      5  O   LIG    1        5.771   1.622  -0.041  0.00  0.00    -0.273 OA
ATOM      6  N   LIG    1        4.785  -0.555   0.083  0.00  0.00    -0.161 N 
ATOM      7  N   LIG    1        3.500  -1.070   0.101  0.00  0.00    -0.181 NA
ENDROOT
BRANCH   6   8
ATOM      8  C   LIG    1        5.877  -1.458   0.150  0.00  0.00    +0.060 A 
ATOM      9  C   LIG    1        5.645  -2.841   0.232  0.00  0.00    +0.025 A 
ATOM     10  C   LIG    1        6.704  -3.752   0.300  0.00  0.00    +0.002 A 
ATOM     11  C   LIG    1        8.017  -3.293   0.287  0.00  0.00    +0.000 A 
ATOM     12  C   LIG    1        8.268  -1.927   0.205  0.00  0.00    +0.002 A 
ATOM     13  C   LIG    1        7.207  -1.017   0.138  0.00  0.00    +0.025 A 
ENDBRANCH   6   8
TORSDOF 1
