REMARK  Name = *****
REMARK                            x       y       z     vdW  Elec       q    Type
REMARK                         _______ _______ _______ _____ _____    ______ ____
ROOT
ATOM      1  C   LIG    1        7.582   4.264   6.509  0.00  0.00    +0.011 C 
ATOM      2  C   LIG    1        6.719   5.220   6.131  0.00  0.00    -0.036 C 
ATOM      3  C   LIG    1        5.271   5.305   6.647  0.00  0.00    +0.213 C 
ATOM      4  C   LIG    1        4.435   4.108   7.208  0.00  0.00    +0.126 C 
ATOM      5  C   LIG    1        4.221   2.697   6.509  0.00  0.00    +0.185 C 
ATOM      6  C   LIG    1        2.765   2.309   6.953  0.00  0.00    +0.064 C 
ATOM      7  C   LIG    1        2.452   3.188   8.155  0.00  0.00    +0.031 C 
ATOM      8  C   LIG    1        0.990   3.084   8.553  0.00  0.00    +0.011 C 
ATOM      9  C   LIG    1        4.278   2.649   4.947  0.00  0.00    +0.203 C 
ATOM     10  O   LIG    1        3.260   2.726   4.250  0.00  0.00    -0.288 OA
ATOM     11  C   LIG    1        5.596   2.636   4.247  0.00  0.00    -0.008 C 
ATOM     12  C   LIG    1        6.647   1.630   4.588  0.00  0.00    +0.047 C 
ATOM     13  C   LIG    1        5.730   3.601   3.315  0.00  0.00    -0.016 C 
ATOM     14  C   LIG    1        7.009   4.099   2.804  0.00  0.00    +0.022 C 
ATOM     15  C   LIG    1        7.309   4.968   1.608  0.00  0.00    -0.025 C 
ATOM     16  C   LIG    1        8.719   4.943   1.071  0.00  0.00    +0.012 C 
ATOM     17  C   LIG    1        6.255   5.103   0.533  0.00  0.00    +0.012 C 
ATOM     18  C   LIG    1        7.043   5.611   2.958  0.00  0.00    +0.003 C 
ATOM     19  C   LIG    1        7.990   6.132   3.991  0.00  0.00    +0.009 C 
ATOM     20  C   LIG    1        3.009   4.542   7.689  0.00  0.00    +0.191 C 
ATOM     21  C   LIG    1        7.235   6.418   5.320  0.00  0.00    +0.034 C 
ENDROOT
BRANCH   3  22
ATOM     22  O   LIG    1        5.312   6.361   7.683  0.00  0.00    -0.457 OA
BRANCH  22  23
ATOM     23  C   LIG    1        6.011   6.138   8.844  0.00  0.00    +0.304 C 
ATOM     24  O   LIG    1        6.549   5.086   9.179  0.00  0.00    -0.251 OA
ATOM     25  C   LIG    1        5.979   7.334   9.736  0.00  0.00    +0.136 C 
ENDBRANCH  22  23
ENDBRANCH   3  22
BRANCH   5  26
ATOM     26  O   LIG    1        5.169   1.840   7.202  0.00  0.00    -0.450 OA
BRANCH  26  27
ATOM     27  C   LIG    1        5.060   0.488   7.169  0.00  0.00    +0.305 C 
ATOM     28  O   LIG    1        4.303  -0.150   6.456  0.00  0.00    -0.251 OA
ATOM     29  C   LIG    1        6.042  -0.119   8.125  0.00  0.00    +0.136 C 
ENDBRANCH  26  27
ENDBRANCH   5  26
BRANCH  20  30
ATOM     30  O   LIG    1        2.232   5.129   6.621  0.00  0.00    -0.457 OA
BRANCH  30  31
ATOM     31  C   LIG    1        1.166   5.873   7.040  0.00  0.00    +0.340 C 
ATOM     32  O   LIG    1        0.868   6.057   8.216  0.00  0.00    -0.245 OA
BRANCH  31  33
ATOM     33  C   LIG    1        0.388   6.509   5.944  0.00  0.00    +0.059 A 
ATOM     34  C   LIG    1       -0.638   7.400   6.314  0.00  0.00    +0.015 A 
ATOM     35  C   LIG    1       -1.370   8.097   5.351  0.00  0.00    +0.001 A 
ATOM     36  C   LIG    1       -1.093   7.901   4.002  0.00  0.00    +0.000 A 
ATOM     37  C   LIG    1       -0.102   6.989   3.619  0.00  0.00    +0.001 A 
ATOM     38  C   LIG    1        0.636   6.290   4.585  0.00  0.00    +0.015 A 
ENDBRANCH  31  33
ENDBRANCH  30  31
ENDBRANCH  20  30
TORSDOF 7
