REMARK  Name = *****
REMARK                            x       y       z     vdW  Elec       q    Type
REMARK                         _______ _______ _______ _____ _____    ______ ____
ROOT
ATOM      1  N   LIG    1        4.387   0.696   1.519  0.00  0.00    -0.297 NA
ATOM      2  C   LIG    1        4.800   0.360   2.921  0.00  0.00    +0.064 C 
ATOM      3  C   LIG    1        6.331   0.262   3.062  0.00  0.00    +0.013 C 
ATOM      4  C   LIG    1        7.014   1.637   2.889  0.00  0.00    +0.044 C 
ATOM      5  C   LIG    1        6.326   2.805   3.561  0.00  0.00    -0.002 A 
ATOM      6  C   LIG    1        5.014   2.660   4.054  0.00  0.00    -0.039 A 
ATOM      7  C   LIG    1        4.344   3.769   4.596  0.00  0.00    +0.004 A 
ATOM      8  C   LIG    1        4.948   5.026   4.613  0.00  0.00    +0.004 A 
ATOM      9  C   LIG    1        6.237   5.179   4.115  0.00  0.00    +0.045 A 
ATOM     10  C   LIG    1        6.918   4.079   3.598  0.00  0.00    +0.120 A 
ATOM     11  C   LIG    1        6.847  -0.840   2.131  0.00  0.00    +0.027 C 
ATOM     12  C   LIG    1        6.545  -0.568   0.662  0.00  0.00    +0.092 C 
ATOM     13  C   LIG    1        4.346   1.307   4.066  0.00  0.00    +0.054 C 
ATOM     14  C   LIG    1        5.035  -0.212   0.523  0.00  0.00    +0.105 C 
ENDROOT
BRANCH  10  15
ATOM     15  O   LIG    1        8.173   4.338   3.120  0.00  0.00    -0.506 OA
ATOM     16  H   LIG    1        8.567   3.519   2.780  0.00  0.00    +0.292 HD
ENDBRANCH  10  15
BRANCH  12  17
ATOM     17  N   LIG    1        7.418   0.465   0.070  0.00  0.00    -0.175 NA
ATOM     18  H   LIG    1        7.031   1.017  -0.706  0.00  0.00    +0.149 HD
BRANCH  17  19
ATOM     19  S   LIG    1        9.081   0.323   0.029  0.00  0.00    +0.097 S 
ATOM     20  O   LIG    1        9.572  -0.005   1.339  0.00  0.00    -0.141 OA
ATOM     21  O   LIG    1        9.553   1.475  -0.673  0.00  0.00    -0.141 OA
BRANCH  19  22
ATOM     22  N   LIG    1        9.271  -1.025  -1.017  0.00  0.00    -0.167 NA
BRANCH  22  23
ATOM     23  C   LIG    1       10.400  -1.928  -0.642  0.00  0.00    +0.107 C 
ATOM     24  C   LIG    1       11.750  -1.228  -0.623  0.00  0.00    +0.022 C 
ENDBRANCH  22  23
BRANCH  22  25
ATOM     25  C   LIG    1        9.169  -0.679  -2.473  0.00  0.00    +0.107 C 
ATOM     26  C   LIG    1        9.347  -1.865  -3.412  0.00  0.00    +0.022 C 
ENDBRANCH  22  25
ENDBRANCH  19  22
ENDBRANCH  17  19
ENDBRANCH  12  17
BRANCH   1  27
ATOM     27  C   LIG    1        2.905   0.587   1.371  0.00  0.00    +0.084 C 
BRANCH  27  29
ATOM     28  C   LIG    1        0.838   0.824  -0.081  0.00  0.00    +0.005 C 
ATOM     29  C   LIG    1        2.351   1.010  -0.005  0.00  0.00    +0.012 C 
ENDBRANCH  27  29
ENDBRANCH   1  27
TORSDOF 8
