REMARK  Name = *****
REMARK                            x       y       z     vdW  Elec       q    Type
REMARK                         _______ _______ _______ _____ _____    ______ ____
ROOT
ATOM      1  C   LIG    1        0.148  -0.926   0.989  0.00  0.00    -0.001 C 
ATOM      2  C   LIG    1        1.147  -0.632   0.124  0.00  0.00    -0.016 C 
ENDROOT
BRANCH   1   5
ATOM      3  C   LIG    1        1.368  -1.492   3.978  0.00  0.00    +0.045 C 
ATOM      4  C   LIG    1        0.433  -0.422   3.518  0.00  0.00    -0.036 A 
ATOM      5  C   LIG    1       -0.031  -0.191   2.220  0.00  0.00    +0.023 A 
ATOM      6  S   LIG    1       -1.055   1.210   2.194  0.00  0.00    -0.096 S 
ATOM      7  C   LIG    1       -0.909   1.468   3.870  0.00  0.00    +0.046 A 
ATOM      8  C   LIG    1       -0.115   0.519   4.460  0.00  0.00    +0.011 A 
ENDBRANCH   1   5
BRANCH   1   9
ATOM      9  C   LIG    1       -0.750  -1.980   0.570  0.00  0.00    +0.023 A 
ATOM     10  C   LIG    1       -1.943  -1.920  -0.154  0.00  0.00    -0.036 A 
ATOM     11  C   LIG    1       -2.591  -0.682  -0.687  0.00  0.00    +0.045 C 
ATOM     12  C   LIG    1       -2.523  -3.222  -0.336  0.00  0.00    +0.011 A 
ATOM     13  C   LIG    1       -1.758  -4.226   0.205  0.00  0.00    +0.046 A 
ATOM     14  S   LIG    1       -0.345  -3.621   0.939  0.00  0.00    -0.096 S 
ENDBRANCH   1   9
BRANCH   2  15
ATOM     15  C   LIG    1        2.269   0.371   0.241  0.00  0.00    +0.043 C 
BRANCH  15  16
ATOM     16  C   LIG    1        1.919   1.738  -0.371  0.00  0.00    +0.088 C 
BRANCH  16  17
ATOM     17  N   LIG    1        3.023   2.721  -0.298  0.00  0.00    -0.301 NA
ATOM     18  C   LIG    1        2.730   3.924  -1.107  0.00  0.00    +0.099 C 
ATOM     19  C   LIG    1        1.573   4.760  -0.545  0.00  0.00    +0.112 C 
ATOM     20  C   LIG    1        1.830   5.157   0.911  0.00  0.00    +0.017 C 
ATOM     21  C   LIG    1        2.257   3.957   1.758  0.00  0.00    +0.016 C 
ATOM     22  C   LIG    1        3.357   3.139   1.075  0.00  0.00    +0.084 C 
BRANCH  19  23
ATOM     23  C   LIG    1        1.333   5.958  -1.421  0.00  0.00    +0.309 C 
ATOM     24  O   LIG    1        0.317   6.165  -2.082  0.00  0.00    -0.251 OA
BRANCH  23  25
ATOM     25  O   LIG    1        2.345   6.838  -1.454  0.00  0.00    -0.480 OA
ATOM     26  H   LIG    1        2.031   7.542  -2.060  0.00  0.00    +0.295 HD
ENDBRANCH  23  25
ENDBRANCH  19  23
ENDBRANCH  16  17
ENDBRANCH  15  16
ENDBRANCH   2  15
TORSDOF 7
