REMARK  Name = *****
REMARK                            x       y       z     vdW  Elec       q    Type
REMARK                         _______ _______ _______ _____ _____    ______ ____
ROOT
ATOM      1  C   LIG    1        9.193  -5.389   0.350  0.00  0.00    +0.268 C 
ENDROOT
BRANCH   1   2
ATOM      2  P   LIG    1        8.954  -6.484  -1.085  0.00  0.00    +0.371 P 
ATOM      3  O   LIG    1        9.629  -7.819  -1.061  0.00  0.00    -0.255 OA
BRANCH   2   4
ATOM      4  O   LIG    1        9.394  -5.655  -2.388  0.00  0.00    -0.322 OA
ATOM      5  H   LIG    1        9.539  -6.219  -3.170  0.00  0.00    +0.220 HD
ENDBRANCH   2   4
BRANCH   2   6
ATOM      6  O   LIG    1        7.387  -6.633  -1.369  0.00  0.00    -0.322 OA
ATOM      7  H   LIG    1        7.165  -7.301  -2.043  0.00  0.00    +0.220 HD
ENDBRANCH   2   6
ENDBRANCH   1   2
BRANCH   1   8
ATOM      8  P   LIG    1        8.832  -6.184   1.954  0.00  0.00    +0.371 P 
ATOM      9  O   LIG    1        7.560  -6.923   2.156  0.00  0.00    -0.255 OA
BRANCH   8  10
ATOM     10  O   LIG    1        9.050  -5.072   3.098  0.00  0.00    -0.322 OA
ATOM     11  H   LIG    1        8.761  -5.362   3.980  0.00  0.00    +0.220 HD
ENDBRANCH   8  10
BRANCH   8  12
ATOM     12  O   LIG    1       10.123  -7.102   2.251  0.00  0.00    -0.322 OA
ATOM     13  H   LIG    1        9.988  -7.727   2.989  0.00  0.00    +0.220 HD
ENDBRANCH   8  12
ENDBRANCH   1   8
BRANCH   1  14
ATOM     14  O   LIG    1       10.635  -5.106   0.387  0.00  0.00    -0.367 OA
ATOM     15  H   LIG    1       11.055  -5.907   0.767  0.00  0.00    +0.212 HD
ENDBRANCH   1  14
BRANCH   1  16
ATOM     16  C   LIG    1        8.515  -4.018   0.215  0.00  0.00    +0.076 C 
BRANCH  16  17
ATOM     17  C   LIG    1        6.979  -4.055   0.210  0.00  0.00    +0.088 C 
BRANCH  17  18
ATOM     18  N   LIG    1        6.352  -2.721   0.086  0.00  0.00    -0.305 NA
ATOM     19  C   LIG    1        6.769  -1.831   1.175  0.00  0.00    +0.105 C 
BRANCH  18  20
ATOM     20  C   LIG    1        4.875  -2.816   0.072  0.00  0.00    +0.084 C 
BRANCH  20  21
ATOM     21  C   LIG    1        4.293  -3.458  -1.199  0.00  0.00    +0.015 C 
BRANCH  21  22
ATOM     22  C   LIG    1        2.760  -3.501  -1.137  0.00  0.00    +0.001 C 
BRANCH  22  24
ATOM     23  C   LIG    1        0.646  -4.263  -2.281  0.00  0.00    +0.004 C 
ATOM     24  C   LIG    1        2.163  -4.186  -2.367  0.00  0.00    -0.003 C 
ENDBRANCH  22  24
ENDBRANCH  21  22
ENDBRANCH  20  21
ENDBRANCH  18  20
ENDBRANCH  17  18
ENDBRANCH  16  17
ENDBRANCH   1  16
TORSDOF 14
