REMARK  Name = *****
REMARK                            x       y       z     vdW  Elec       q    Type
REMARK                         _______ _______ _______ _____ _____    ______ ____
ROOT
ATOM      1  C   LIG    1        4.353  -4.116   0.894  0.00  0.00    +0.131 C 
ATOM      2  C   LIG    1        4.788  -4.732   2.252  0.00  0.00    +0.280 C 
ATOM      3  C   LIG    1        3.636  -5.461   2.985  0.00  0.00    +0.262 C 
ATOM      4  O   LIG    1        3.535  -6.689   2.912  0.00  0.00    -0.271 OA
ATOM      5  N   LIG    1        2.768  -4.689   3.770  0.00  0.00    -0.266 N 
ATOM      6  C   LIG    1        2.530  -3.296   3.541  0.00  0.00    +0.050 A 
ATOM      7  C   LIG    1        2.344  -2.759   2.252  0.00  0.00    +0.030 A 
ATOM      8  C   LIG    1        1.932  -1.423   2.109  0.00  0.00    +0.016 A 
ATOM      9  C   LIG    1        1.797  -0.594   3.220  0.00  0.00    +0.001 A 
ATOM     10  C   LIG    1        2.048  -1.101   4.490  0.00  0.00    +0.002 A 
ATOM     11  C   LIG    1        2.386  -2.448   4.652  0.00  0.00    +0.024 A 
ATOM     12  S   LIG    1        2.562  -3.678   0.741  0.00  0.00    -0.111 S 
ENDROOT
BRANCH   1  16
ATOM     13  C   LIG    1        6.952  -0.932  -0.621  0.00  0.00    +0.120 A 
ATOM     14  C   LIG    1        6.066  -0.704   0.424  0.00  0.00    +0.046 A 
ATOM     15  C   LIG    1        5.241  -1.723   0.894  0.00  0.00    +0.008 A 
ATOM     16  C   LIG    1        5.262  -3.010   0.345  0.00  0.00    -0.030 A 
ATOM     17  C   LIG    1        6.149  -3.233  -0.724  0.00  0.00    +0.008 A 
ATOM     18  C   LIG    1        6.986  -2.202  -1.201  0.00  0.00    +0.046 A 
BRANCH  13  20
ATOM     19  C   LIG    1        7.735   1.296  -0.493  0.00  0.00    +0.277 C 
ATOM     20  O   LIG    1        7.806   0.016  -1.125  0.00  0.00    -0.495 OA
ENDBRANCH  13  20
ENDBRANCH   1  16
BRANCH   2  21
ATOM     21  O   LIG    1        5.445  -3.812   3.156  0.00  0.00    -0.451 OA
BRANCH  21  22
ATOM     22  C   LIG    1        6.334  -4.413   4.004  0.00  0.00    +0.305 C 
ATOM     23  O   LIG    1        6.612  -5.595   4.009  0.00  0.00    -0.251 OA
ATOM     24  C   LIG    1        6.984  -3.424   4.928  0.00  0.00    +0.136 C 
ENDBRANCH  21  22
ENDBRANCH   2  21
BRANCH   5  25
ATOM     25  C   LIG    1        1.740  -5.394   4.573  0.00  0.00    +0.129 C 
BRANCH  25  26
ATOM     26  C   LIG    1        2.278  -5.983   5.899  0.00  0.00    +0.103 C 
BRANCH  26  27
ATOM     27  N   LIG    1        1.277  -6.708   6.720  0.00  0.00    -0.307 NA
ATOM     28  C   LIG    1        0.122  -5.889   7.088  0.00  0.00    +0.104 C 
ATOM     29  C   LIG    1        1.907  -7.236   7.935  0.00  0.00    +0.104 C 
ENDBRANCH  26  27
ENDBRANCH  25  26
ENDBRANCH   5  25
TORSDOF 7
