REMARK  Name = *****
REMARK                            x       y       z     vdW  Elec       q    Type
REMARK                         _______ _______ _______ _____ _____    ______ ____
ROOT
ATOM      1  C   LIG    1        3.383   1.202  -0.489  0.00  0.00    +0.250 C 
ATOM      2  N   LIG    1        4.438   1.216   0.421  0.00  0.00    -0.283 N 
ATOM      3  H   LIG    1        4.381   0.598   1.221  0.00  0.00    +0.155 HD
ATOM      4  O   LIG    1        3.309   1.893  -1.507  0.00  0.00    -0.272 OA
ENDROOT
BRANCH   2   5
ATOM      5  C   LIG    1        5.623   1.999   0.366  0.00  0.00    +0.034 A 
ATOM      6  C   LIG    1        6.546   1.903   1.425  0.00  0.00    +0.037 A 
ATOM      7  C   LIG    1        7.735   2.686   1.464  0.00  0.00    +0.074 A 
ATOM      8  C   LIG    1        8.019   3.534   0.383  0.00  0.00    +0.064 A 
ATOM      9  C   LIG    1        7.105   3.615  -0.676  0.00  0.00    +0.021 A 
ATOM     10  C   LIG    1        5.919   2.873  -0.675  0.00  0.00    +0.024 A 
BRANCH   7  11
ATOM     11  C   LIG    1        8.612   2.611   2.695  0.00  0.00    +0.419 C 
ATOM     12  F   LIG    1        9.096   1.358   2.915  0.00  0.00    -0.166 F 
ATOM     13  F   LIG    1        7.920   2.943   3.822  0.00  0.00    -0.166 F 
ATOM     14  F   LIG    1        9.695   3.429   2.683  0.00  0.00    -0.166 F 
ENDBRANCH   7  11
BRANCH   8  15
ATOM     15  C   LIG    1        9.187   4.358   0.283  0.00  0.00    +0.100 C 
ATOM     16  N   LIG    1       10.110   5.058   0.130  0.00  0.00    -0.191 NA
ENDBRANCH   8  15
ENDBRANCH   2   5
BRANCH   1  18
ATOM     17  C   LIG    1        1.916   0.083   1.309  0.00  0.00    +0.053 C 
ATOM     18  C   LIG    1        2.204   0.213  -0.183  0.00  0.00    +0.158 C 
BRANCH  18  19
ATOM     19  O   LIG    1        0.980   0.782  -0.724  0.00  0.00    -0.378 OA
ATOM     20  H   LIG    1        1.169   1.092  -1.633  0.00  0.00    +0.211 HD
ENDBRANCH  18  19
BRANCH  18  21
ATOM     21  C   LIG    1        2.341  -1.141  -0.872  0.00  0.00    +0.215 C 
BRANCH  21  22
ATOM     22  S   LIG    1        3.769  -2.086  -0.421  0.00  0.00    +0.000 S 
ATOM     23  O   LIG    1        3.645  -2.493   0.965  0.00  0.00    -0.169 OA
ATOM     24  O   LIG    1        4.959  -1.401  -0.879  0.00  0.00    -0.169 OA
BRANCH  22  25
ATOM     25  C   LIG    1        3.584  -3.547  -1.418  0.00  0.00    +0.088 A 
ATOM     26  C   LIG    1        2.898  -4.652  -0.903  0.00  0.00    +0.030 A 
ATOM     27  C   LIG    1        2.749  -5.790  -1.696  0.00  0.00    +0.040 A 
ATOM     28  C   LIG    1        3.290  -5.810  -2.979  0.00  0.00    +0.123 A 
ATOM     29  F   LIG    1        3.144  -6.904  -3.736  0.00  0.00    -0.205 F 
ATOM     30  C   LIG    1        3.981  -4.714  -3.488  0.00  0.00    +0.040 A 
ATOM     31  C   LIG    1        4.138  -3.572  -2.703  0.00  0.00    +0.030 A 
ENDBRANCH  22  25
ENDBRANCH  21  22
ENDBRANCH  18  21
ENDBRANCH   1  18
TORSDOF 8
