REMARK  Name = *****
REMARK                            x       y       z     vdW  Elec       q    Type
REMARK                         _______ _______ _______ _____ _____    ______ ____
ROOT
ATOM      1  N   LIG    1        0.927  -2.663  -0.300  0.00  0.00    -0.291 N 
ATOM      2  C   LIG    1        0.418  -3.879  -0.794  0.00  0.00    +0.249 C 
ATOM      3  O   LIG    1        0.943  -4.962  -0.556  0.00  0.00    -0.270 OA
ATOM      4  C   LIG    1       -0.796  -3.762  -1.598  0.00  0.00    +0.065 C 
ATOM      5  C   LIG    1       -1.658  -4.769  -2.115  0.00  0.00    +0.012 C 
ATOM      6  C   LIG    1       -2.666  -4.124  -2.846  0.00  0.00    +0.050 C 
ATOM      7  N   LIG    1       -2.415  -2.763  -2.774  0.00  0.00    -0.346 NA
ATOM      8  C   LIG    1       -3.199  -1.740  -3.432  0.00  0.00    +0.149 C 
ATOM      9  C   LIG    1       -3.681  -4.848  -3.495  0.00  0.00    +0.026 C 
ATOM     10  C   LIG    1       -3.668  -6.244  -3.398  0.00  0.00    +0.002 C 
ATOM     11  C   LIG    1       -2.681  -6.901  -2.672  0.00  0.00    +0.001 C 
ATOM     12  C   LIG    1       -1.676  -6.176  -2.027  0.00  0.00    +0.011 C 
ATOM     13  C   LIG    1       -1.305  -2.543  -2.001  0.00  0.00    +0.033 C 
ATOM     14  C   LIG    1       -0.677  -1.244  -1.648  0.00  0.00    +0.073 C 
ATOM     15  C   LIG    1        0.120  -1.430  -0.339  0.00  0.00    +0.114 C 
ENDROOT
BRANCH   1  16
ATOM     16  C   LIG    1        2.072  -2.710   0.602  0.00  0.00    +0.163 C 
BRANCH  16  19
ATOM     17  C   LIG    1        2.126  -1.150   3.571  0.00  0.00    +0.067 C 
ATOM     18  C   LIG    1        1.675  -2.511   3.203  0.00  0.00    +0.060 A 
ATOM     19  C   LIG    1        1.658  -3.131   1.967  0.00  0.00    +0.056 A 
ATOM     20  N   LIG    1        1.184  -4.398   2.225  0.00  0.00    -0.347 N 
ATOM     21  H   LIG    1        1.057  -5.128   1.531  0.00  0.00    +0.167 HD
ATOM     22  C   LIG    1        0.865  -4.465   3.547  0.00  0.00    +0.197 A 
ATOM     23  N   LIG    1        1.171  -3.351   4.170  0.00  0.00    -0.241 NA
ENDBRANCH  16  19
ENDBRANCH   1  16
TORSDOF 2
