REMARK  Name = *****
REMARK                            x       y       z     vdW  Elec       q    Type
REMARK                         _______ _______ _______ _____ _____    ______ ____
ROOT
ATOM      1  C   LIG    1        4.585   2.575   1.257  0.00  0.00    +0.161 C 
ENDROOT
BRANCH   1   2
ATOM      2  C   LIG    1        4.507   4.071   0.947  0.00  0.00    -0.018 A 
ATOM      3  C   LIG    1        5.353   5.005   1.583  0.00  0.00    +0.006 A 
ATOM      4  C   LIG    1        5.209   6.377   1.348  0.00  0.00    +0.000 A 
ATOM      5  C   LIG    1        4.216   6.846   0.502  0.00  0.00    +0.000 A 
ATOM      6  C   LIG    1        3.394   5.936  -0.168  0.00  0.00    +0.000 A 
ATOM      7  C   LIG    1        3.562   4.561   0.036  0.00  0.00    +0.006 A 
ENDBRANCH   1   2
BRANCH   1   8
ATOM      8  C   LIG    1        4.250   2.206   2.762  0.00  0.00    +0.086 C 
ATOM      9  C   LIG    1        2.887   2.793   3.180  0.00  0.00    +0.027 C 
BRANCH   8  10
ATOM     10  N   LIG    1        4.316   0.772   3.200  0.00  0.00    -0.300 NA
ATOM     11  C   LIG    1        5.672   0.230   3.131  0.00  0.00    +0.105 C 
BRANCH  10  13
ATOM     12  C   LIG    1        3.230  -1.499   3.247  0.00  0.00    +0.020 C 
ATOM     13  C   LIG    1        3.323  -0.120   2.582  0.00  0.00    +0.081 C 
ENDBRANCH  10  13
ENDBRANCH   8  10
ENDBRANCH   1   8
BRANCH   1  14
ATOM     14  O   LIG    1        5.896   2.140   0.884  0.00  0.00    -0.386 OA
ATOM     15  H   LIG    1        6.529   2.599   1.462  0.00  0.00    +0.210 HD
ENDBRANCH   1  14
TORSDOF 5
