REMARK  Name = *****
REMARK                            x       y       z     vdW  Elec       q    Type
REMARK                         _______ _______ _______ _____ _____    ______ ____
ROOT
ATOM      1  C   LIG    1        4.551  -1.549   0.477  0.00  0.00    +0.133 C 
ATOM      2  C   LIG    1        5.103  -2.622  -0.467  0.00  0.00    +0.012 C 
ATOM      3  C   LIG    1        6.644  -2.662  -0.549  0.00  0.00    +0.011 C 
ATOM      4  C   LIG    1        7.281  -3.753   0.361  0.00  0.00    +0.089 C 
ATOM      5  N   LIG    1        6.656  -5.077   0.270  0.00  0.00    -0.293 NA
ATOM      6  C   LIG    1        5.445  -5.111  -0.574  0.00  0.00    +0.104 C 
ATOM      7  C   LIG    1        4.842  -6.470  -0.515  0.00  0.00    +0.038 C 
ATOM      8  C   LIG    1        5.527  -7.624  -0.204  0.00  0.00    -0.016 C 
ATOM      9  C   LIG    1        4.631  -8.708  -0.368  0.00  0.00    +0.003 C 
ATOM     10  C   LIG    1        3.408  -8.176  -0.786  0.00  0.00    +0.051 C 
ATOM     11  C   LIG    1        2.291  -8.978  -1.064  0.00  0.00    +0.072 C 
ATOM     12  C   LIG    1        2.439 -10.364  -0.931  0.00  0.00    +0.122 C 
ATOM     13  C   LIG    1        3.643 -10.908  -0.482  0.00  0.00    +0.046 C 
ATOM     14  C   LIG    1        4.745 -10.096  -0.206  0.00  0.00    +0.014 C 
ATOM     15  C   LIG    1        6.958  -7.586   0.216  0.00  0.00    +0.053 C 
ATOM     16  N   LIG    1        3.564  -6.809  -0.862  0.00  0.00    -0.356 NA
ATOM     17  H   LIG    1        2.840  -6.168  -1.154  0.00  0.00    +0.166 HD
ATOM     18  C   LIG    1        7.582  -6.185  -0.046  0.00  0.00    +0.090 C 
ATOM     19  C   LIG    1        7.313  -1.292  -0.337  0.00  0.00    +0.052 C 
ATOM     20  C   LIG    1        6.413  -0.053  -0.531  0.00  0.00    +0.206 C 
ATOM     21  C   LIG    1        4.519  -4.004  -0.091  0.00  0.00    +0.030 C 
ATOM     22  C   LIG    1        5.115  -0.126   0.292  0.00  0.00    +0.172 C 
ENDROOT
BRANCH   1  23
ATOM     23  C   LIG    1        3.040  -1.453   0.291  0.00  0.00    +0.313 C 
ATOM     24  O   LIG    1        2.487  -1.083  -0.736  0.00  0.00    -0.250 OA
BRANCH  23  26
ATOM     25  C   LIG    1        0.985  -1.593   1.427  0.00  0.00    +0.280 C 
ATOM     26  O   LIG    1        2.396  -1.820   1.434  0.00  0.00    -0.468 OA
ENDBRANCH  23  26
ENDBRANCH   1  23
BRANCH  12  27
ATOM     27  O   LIG    1        1.331 -11.116  -1.235  0.00  0.00    -0.495 OA
ATOM     28  C   LIG    1        1.624 -12.426  -1.720  0.00  0.00    +0.277 C 
ENDBRANCH  12  27
BRANCH  22  29
ATOM     29  O   LIG    1        5.435   0.433   1.589  0.00  0.00    -0.375 OA
ATOM     30  C   LIG    1        4.296   0.657   2.411  0.00  0.00    +0.194 C 
ENDBRANCH  22  29
BRANCH  20  31
ATOM     31  O   LIG    1        6.180   0.169  -1.938  0.00  0.00    -0.455 OA
BRANCH  31  32
ATOM     32  C   LIG    1        5.904   1.468  -2.283  0.00  0.00    +0.340 C 
ATOM     33  O   LIG    1        5.152   2.229  -1.719  0.00  0.00    -0.245 OA
BRANCH  32  34
ATOM     34  C   LIG    1        6.853   1.875  -3.366  0.00  0.00    +0.066 A 
ATOM     35  C   LIG    1        7.285   3.205  -3.459  0.00  0.00    +0.064 A 
ATOM     36  C   LIG    1        8.261   3.569  -4.405  0.00  0.00    +0.166 A 
ATOM     37  C   LIG    1        8.805   2.586  -5.260  0.00  0.00    +0.203 A 
ATOM     38  C   LIG    1        8.337   1.252  -5.169  0.00  0.00    +0.166 A 
ATOM     39  C   LIG    1        7.352   0.922  -4.237  0.00  0.00    +0.064 A 
BRANCH  36  40
ATOM     40  O   LIG    1        8.653   4.873  -4.580  0.00  0.00    -0.491 OA
ATOM     41  C   LIG    1        8.589   5.729  -3.445  0.00  0.00    +0.277 C 
ENDBRANCH  36  40
BRANCH  37  42
ATOM     42  O   LIG    1        9.746   2.808  -6.241  0.00  0.00    -0.488 OA
ATOM     43  C   LIG    1       10.720   3.819  -6.007  0.00  0.00    +0.277 C 
ENDBRANCH  37  42
BRANCH  38  44
ATOM     44  O   LIG    1        8.890   0.323  -6.017  0.00  0.00    -0.491 OA
ATOM     45  C   LIG    1        8.692  -1.052  -5.694  0.00  0.00    +0.277 C 
ENDBRANCH  38  44
ENDBRANCH  32  34
ENDBRANCH  31  32
ENDBRANCH  20  31
TORSDOF 10
