REMARK  Name = *****
REMARK                            x       y       z     vdW  Elec       q    Type
REMARK                         _______ _______ _______ _____ _____    ______ ____
ROOT
ATOM      1  C   LIG    1        7.299  -0.877  -0.310  0.00  0.00    +0.082 A 
ATOM      2  C   LIG    1        6.551  -0.760   0.877  0.00  0.00    +0.133 A 
ATOM      3  C   LIG    1        6.997  -1.396   2.042  0.00  0.00    +0.050 A 
ATOM      4  C   LIG    1        8.227  -2.053   2.075  0.00  0.00    +0.049 A 
ATOM      5  C   LIG    1        9.017  -2.103   0.934  0.00  0.00    +0.122 A 
ATOM      6  C   LIG    1        8.546  -1.533  -0.255  0.00  0.00    +0.062 A 
ENDROOT
BRANCH   1   8
ATOM      7  O   LIG    1        6.038   0.665  -1.623  0.00  0.00    -0.270 OA
ATOM      8  C   LIG    1        6.804  -0.303  -1.607  0.00  0.00    +0.248 C 
ATOM      9  N   LIG    1        7.269  -0.903  -2.762  0.00  0.00    -0.310 N 
ATOM     10  H   LIG    1        7.973  -1.627  -2.718  0.00  0.00    +0.149 HD
BRANCH   9  11
ATOM     11  C   LIG    1        6.883  -0.499  -4.112  0.00  0.00    +0.123 C 
BRANCH  11  12
ATOM     12  C   LIG    1        7.856   0.528  -4.743  0.00  0.00    +0.071 C 
ATOM     13  N   LIG    1        9.214  -0.048  -4.874  0.00  0.00    -0.312 NA
ATOM     14  H   LIG    1        9.552  -0.284  -3.942  0.00  0.00    +0.122 HD
ATOM     15  C   LIG    1       10.140   0.918  -5.476  0.00  0.00    +0.081 C 
ATOM     16  C   LIG    1       10.240   2.200  -4.652  0.00  0.00    +0.015 C 
ATOM     17  C   LIG    1        8.870   2.838  -4.465  0.00  0.00    +0.003 C 
ATOM     18  C   LIG    1        7.880   1.822  -3.917  0.00  0.00    +0.020 C 
ENDBRANCH  11  12
ENDBRANCH   9  11
ENDBRANCH   1   8
BRANCH   2  19
ATOM     19  O   LIG    1        5.351  -0.096   0.887  0.00  0.00    -0.482 OA
BRANCH  19  20
ATOM     20  C   LIG    1        5.226   0.861   1.957  0.00  0.00    +0.342 C 
BRANCH  20  21
ATOM     21  C   LIG    1        4.009   0.606   2.841  0.00  0.00    +0.424 C 
ATOM     22  F   LIG    1        3.118   1.621   2.761  0.00  0.00    -0.167 F 
ATOM     23  F   LIG    1        4.391   0.514   4.141  0.00  0.00    -0.167 F 
ATOM     24  F   LIG    1        3.359  -0.538   2.541  0.00  0.00    -0.167 F 
ENDBRANCH  20  21
ENDBRANCH  19  20
ENDBRANCH   2  19
BRANCH   5  25
ATOM     25  O   LIG    1       10.234  -2.720   0.845  0.00  0.00    -0.483 OA
BRANCH  25  26
ATOM     26  C   LIG    1       11.010  -2.800   2.051  0.00  0.00    +0.342 C 
BRANCH  26  27
ATOM     27  C   LIG    1       10.758  -4.048   2.892  0.00  0.00    +0.424 C 
ATOM     28  F   LIG    1       10.313  -3.704   4.125  0.00  0.00    -0.167 F 
ATOM     29  F   LIG    1       11.895  -4.761   3.063  0.00  0.00    -0.167 F 
ATOM     30  F   LIG    1        9.838  -4.872   2.349  0.00  0.00    -0.167 F 
ENDBRANCH  26  27
ENDBRANCH  25  26
ENDBRANCH   5  25
TORSDOF 9
