REMARK  Name = *****
REMARK                            x       y       z     vdW  Elec       q    Type
REMARK                         _______ _______ _______ _____ _____    ______ ____
ROOT
ATOM      1  C   LIG    1       -8.574   7.794   6.260  0.00  0.00    +0.064 C 
ATOM      2  C   LIG    1       -7.177   8.061   5.633  0.00  0.00    +0.119 C 
ATOM      3  C   LIG    1       -5.996   7.317   6.232  0.00  0.00    +0.074 C 
ATOM      4  C   LIG    1       -5.534   8.236   7.332  0.00  0.00    +0.239 C 
ATOM      5  O   LIG    1       -5.747   9.541   6.791  0.00  0.00    -0.464 OA
ATOM      6  C   LIG    1       -6.278   5.879   6.621  0.00  0.00    +0.159 C 
ATOM      7  C   LIG    1       -7.547   5.756   7.439  0.00  0.00    -0.011 A 
ATOM      8  C   LIG    1       -7.638   4.804   8.473  0.00  0.00    +0.056 A 
ATOM      9  C   LIG    1       -8.873   4.572   9.048  0.00  0.00    +0.167 A 
ATOM     10  O   LIG    1       -9.137   3.701  10.059  0.00  0.00    -0.453 OA
ATOM     11  C   LIG    1      -10.576   3.800  10.135  0.00  0.00    +0.466 C 
ATOM     12  O   LIG    1      -11.127   4.797   9.251  0.00  0.00    -0.453 OA
ATOM     13  C   LIG    1      -10.004   5.209   8.607  0.00  0.00    +0.167 A 
ATOM     14  C   LIG    1       -9.946   6.181   7.639  0.00  0.00    +0.054 A 
ATOM     15  C   LIG    1       -6.671   9.477   5.770  0.00  0.00    +0.312 C 
ATOM     16  O   LIG    1       -6.993  10.410   5.075  0.00  0.00    -0.251 OA
ATOM     17  C   LIG    1       -8.686   6.526   7.103  0.00  0.00    -0.030 A 
ENDROOT
BRANCH   1  22
ATOM     18  C   LIG    1       -9.237  10.483   8.972  0.00  0.00    +0.165 A 
ATOM     19  C   LIG    1      -10.238  11.222   8.344  0.00  0.00    +0.201 A 
ATOM     20  C   LIG    1      -10.738  10.837   7.088  0.00  0.00    +0.165 A 
ATOM     21  C   LIG    1      -10.207   9.722   6.439  0.00  0.00    +0.053 A 
ATOM     22  C   LIG    1       -9.168   8.987   7.023  0.00  0.00    -0.032 A 
ATOM     23  C   LIG    1       -8.728   9.360   8.307  0.00  0.00    +0.053 A 
BRANCH  18  25
ATOM     24  C   LIG    1       -9.095  11.832  10.933  0.00  0.00    +0.277 C 
ATOM     25  O   LIG    1       -8.649  10.706  10.189  0.00  0.00    -0.491 OA
ENDBRANCH  18  25
BRANCH  19  26
ATOM     26  O   LIG    1      -10.774  12.350   8.912  0.00  0.00    -0.501 OA
ATOM     27  H   LIG    1      -11.380  12.711   8.236  0.00  0.00    +0.292 HD
ENDBRANCH  19  26
BRANCH  20  28
ATOM     28  O   LIG    1      -11.735  11.645   6.596  0.00  0.00    -0.491 OA
ATOM     29  C   LIG    1      -12.289  11.273   5.339  0.00  0.00    +0.277 C 
ENDBRANCH  20  28
ENDBRANCH   1  22
BRANCH   6  30
ATOM     30  O   LIG    1       -6.503   5.048   5.463  0.00  0.00    -0.340 OA
BRANCH  30  31
ATOM     31  C   LIG    1       -5.474   4.990   4.468  0.00  0.00    +0.282 C 
ATOM     32  C   LIG    1       -4.092   4.552   4.999  0.00  0.00    +0.201 C 
ATOM     33  C   LIG    1       -4.038   3.039   5.228  0.00  0.00    +0.179 C 
ATOM     34  C   LIG    1       -5.392   2.334   5.048  0.00  0.00    +0.184 C 
ATOM     35  C   LIG    1       -6.027   2.747   3.726  0.00  0.00    +0.178 C 
ATOM     36  C   LIG    1       -5.410   1.901   2.618  0.00  0.00    +0.197 C 
ATOM     37  O   LIG    1       -5.472   0.502   2.834  0.00  0.00    -0.344 OA
ATOM     38  C   LIG    1       -5.572   0.060   4.182  0.00  0.00    +0.289 C 
ATOM     39  O   LIG    1       -5.122   0.939   5.203  0.00  0.00    -0.338 OA
ATOM     40  O   LIG    1       -5.881   4.130   3.391  0.00  0.00    -0.341 OA
BRANCH  38  41
ATOM     41  C   LIG    1       -6.979  -0.414   4.446  0.00  0.00    +0.045 A 
ATOM     42  S   LIG    1       -7.405  -1.113   5.960  0.00  0.00    -0.097 S 
ATOM     43  C   LIG    1       -9.012  -1.411   5.452  0.00  0.00    +0.045 A 
ATOM     44  C   LIG    1       -9.220  -1.024   4.148  0.00  0.00    +0.008 A 
ATOM     45  C   LIG    1       -8.045  -0.473   3.565  0.00  0.00    +0.016 A 
ENDBRANCH  38  41
BRANCH  32  46
ATOM     46  O   LIG    1       -3.070   4.923   4.054  0.00  0.00    -0.384 OA
ATOM     47  H   LIG    1       -2.218   4.615   4.417  0.00  0.00    +0.210 HD
ENDBRANCH  32  46
BRANCH  33  48
ATOM     48  O   LIG    1       -3.543   2.785   6.554  0.00  0.00    -0.386 OA
ATOM     49  H   LIG    1       -3.750   1.844   6.733  0.00  0.00    +0.210 HD
ENDBRANCH  33  48
ENDBRANCH  30  31
ENDBRANCH   6  30
TORSDOF 9
