REMARK  Name = *****
REMARK                            x       y       z     vdW  Elec       q    Type
REMARK                         _______ _______ _______ _____ _____    ______ ____
ROOT
ATOM      1  C   LIG    1       -6.088   0.339  -2.446  0.00  0.00    +0.233 C 
ATOM      2  O   LIG    1       -6.628   0.377  -3.768  0.00  0.00    -0.340 OA
ATOM      3  C   LIG    1       -5.629   0.446  -4.777  0.00  0.00    +0.133 C 
ATOM      4  C   LIG    1       -6.319   0.486  -6.130  0.00  0.00    +0.106 C 
ATOM      5  C   LIG    1       -6.505  -0.984  -6.420  0.00  0.00    +0.139 C 
ATOM      6  O   LIG    1       -7.273  -1.404  -7.270  0.00  0.00    -0.297 OA
ATOM      7  C   LIG    1       -5.630  -1.869  -5.536  0.00  0.00    +0.061 C 
ATOM      8  C   LIG    1       -4.771  -0.816  -4.801  0.00  0.00    +0.029 C 
ATOM      9  C   LIG    1       -4.284  -1.236  -3.416  0.00  0.00    +0.012 C 
ATOM     10  C   LIG    1       -5.265  -0.957  -2.279  0.00  0.00    +0.071 C 
ENDROOT
BRANCH   1  11
ATOM     11  C   LIG    1       -7.250   0.369  -1.398  0.00  0.00    +0.301 C 
ATOM     12  F   LIG    1       -6.668   0.354  -0.165  0.00  0.00    -0.200 F 
ATOM     13  F   LIG    1       -7.936   1.544  -1.482  0.00  0.00    -0.200 F 
BRANCH  11  14
ATOM     14  C   LIG    1       -8.263  -0.779  -1.517  0.00  0.00    +0.081 C 
BRANCH  14  15
ATOM     15  C   LIG    1       -9.340  -0.770  -0.421  0.00  0.00    +0.006 C 
BRANCH  15  17
ATOM     16  C   LIG    1       -7.988  -2.156   1.246  0.00  0.00    +0.004 C 
ATOM     17  C   LIG    1       -8.793  -0.885   1.006  0.00  0.00    -0.003 C 
ENDBRANCH  15  17
ENDBRANCH  14  15
ENDBRANCH  11  14
ENDBRANCH   1  11
BRANCH   1  18
ATOM     18  O   LIG    1       -5.252   1.488  -2.236  0.00  0.00    -0.360 OA
ATOM     19  H   LIG    1       -4.324   1.211  -2.215  0.00  0.00    +0.213 HD
ENDBRANCH   1  18
BRANCH   7  20
ATOM     20  C   LIG    1       -4.826  -2.949  -6.304  0.00  0.00    +0.011 C 
BRANCH  20  21
ATOM     21  C   LIG    1       -3.753  -2.419  -7.277  0.00  0.00    +0.001 C 
BRANCH  21  22
ATOM     22  C   LIG    1       -2.903  -3.506  -7.956  0.00  0.00    +0.000 C 
BRANCH  22  23
ATOM     23  C   LIG    1       -1.850  -2.912  -8.915  0.00  0.00    +0.000 C 
BRANCH  23  24
ATOM     24  C   LIG    1       -0.722  -2.162  -8.190  0.00  0.00    +0.011 C 
BRANCH  24  25
ATOM     25  C   LIG    1        0.314  -1.565  -9.141  0.00  0.00    +0.120 C 
BRANCH  25  26
ATOM     26  C   LIG    1        1.068  -2.625  -9.919  0.00  0.00    +0.305 C 
ATOM     27  O   LIG    1        1.724  -3.506  -9.414  0.00  0.00    -0.251 OA
BRANCH  26  28
ATOM     28  O   LIG    1        0.930  -2.488 -11.263  0.00  0.00    -0.481 OA
ATOM     29  H   LIG    1        0.354  -1.757 -11.544  0.00  0.00    +0.295 HD
ENDBRANCH  26  28
ENDBRANCH  25  26
ENDBRANCH  24  25
ENDBRANCH  23  24
ENDBRANCH  22  23
ENDBRANCH  21  22
ENDBRANCH  20  21
ENDBRANCH   7  20
TORSDOF 13
