REMARK  Name = *****
REMARK                            x       y       z     vdW  Elec       q    Type
REMARK                         _______ _______ _______ _____ _____    ______ ____
ROOT
ATOM      1  C   LIG    1        1.942   1.749  -5.172  0.00  0.00    +0.169 C 
ATOM      2  C   LIG    1        1.174   0.878  -4.148  0.00  0.00    +0.182 C 
ATOM      3  C   LIG    1        0.583  -0.405  -4.795  0.00  0.00    +0.163 C 
ATOM      4  C   LIG    1        0.356  -0.259  -6.321  0.00  0.00    +0.084 C 
ATOM      5  C   LIG    1       -0.114   1.158  -6.639  0.00  0.00    +0.042 C 
ATOM      6  C   LIG    1        1.040   2.145  -6.386  0.00  0.00    +0.084 C 
ENDROOT
BRANCH   6   7
ATOM      7  N   LIG    1        0.519   3.515  -6.301  0.00  0.00    -0.325 NA
ATOM      8  H   LIG    1       -0.158   3.580  -5.537  0.00  0.00    +0.118 HD
ATOM      9  H   LIG    1        1.274   4.154  -6.039  0.00  0.00    +0.118 HD
ENDBRANCH   6   7
BRANCH   4  10
ATOM     10  N   LIG    1       -0.586  -1.286  -6.796  0.00  0.00    -0.325 NA
ATOM     11  H   LIG    1       -1.495  -1.147  -6.353  0.00  0.00    +0.118 HD
ATOM     12  H   LIG    1       -0.749  -1.149  -7.795  0.00  0.00    +0.118 HD
ENDBRANCH   4  10
BRANCH   3  13
ATOM     13  O   LIG    1        1.416  -1.550  -4.568  0.00  0.00    -0.388 OA
ATOM     14  H   LIG    1        1.039  -2.251  -5.141  0.00  0.00    +0.210 HD
ENDBRANCH   3  13
BRANCH   2  15
ATOM     15  O   LIG    1        0.055   1.619  -3.601  0.00  0.00    -0.340 OA
BRANCH  15  16
ATOM     16  C   LIG    1        0.418   2.659  -2.688  0.00  0.00    +0.282 C 
ATOM     17  C   LIG    1       -0.879   3.328  -2.172  0.00  0.00    +0.201 C 
ATOM     18  C   LIG    1       -0.718   3.255  -0.663  0.00  0.00    +0.179 C 
ATOM     19  C   LIG    1        0.119   1.995  -0.521  0.00  0.00    +0.178 C 
ATOM     20  O   LIG    1        1.097   2.101  -1.555  0.00  0.00    -0.341 OA
BRANCH  17  21
ATOM     21  O   LIG    1       -1.002   4.687  -2.607  0.00  0.00    -0.384 OA
ATOM     22  H   LIG    1       -1.751   5.062  -2.105  0.00  0.00    +0.210 HD
ENDBRANCH  17  21
BRANCH  18  23
ATOM     23  O   LIG    1       -1.975   3.184  -0.002  0.00  0.00    -0.386 OA
ATOM     24  H   LIG    1       -1.781   2.907   0.919  0.00  0.00    +0.210 HD
ENDBRANCH  18  23
BRANCH  19  25
ATOM     25  C   LIG    1        0.775   1.867   0.845  0.00  0.00    +0.190 C 
BRANCH  25  26
ATOM     26  O   LIG    1       -0.222   1.734   1.855  0.00  0.00    -0.392 OA
ATOM     27  H   LIG    1       -0.371   0.777   1.976  0.00  0.00    +0.209 HD
ENDBRANCH  25  26
ENDBRANCH  19  25
ENDBRANCH  15  16
ENDBRANCH   2  15
BRANCH   1  28
ATOM     28  O   LIG    1        3.123   1.065  -5.631  0.00  0.00    -0.342 OA
BRANCH  28  33
ATOM     29  C   LIG    1        5.908   3.319  -5.488  0.00  0.00    +0.166 C 
ATOM     30  C   LIG    1        6.973   2.201  -5.489  0.00  0.00    +0.175 C 
ATOM     31  C   LIG    1        6.367   0.856  -5.957  0.00  0.00    +0.167 C 
ATOM     32  C   LIG    1        5.182   1.091  -6.922  0.00  0.00    +0.139 C 
ATOM     33  C   LIG    1        4.102   1.958  -6.188  0.00  0.00    +0.270 C 
ATOM     34  O   LIG    1        4.644   2.754  -5.134  0.00  0.00    -0.343 OA
BRANCH  32  35
ATOM     35  N   LIG    1        5.671   1.718  -8.183  0.00  0.00    -0.321 NA
ATOM     36  H   LIG    1        6.222   1.023  -8.694  0.00  0.00    +0.119 HD
ATOM     37  H   LIG    1        4.867   1.910  -8.786  0.00  0.00    +0.119 HD
ENDBRANCH  32  35
BRANCH  30  38
ATOM     38  O   LIG    1        8.044   2.595  -6.359  0.00  0.00    -0.387 OA
ATOM     39  H   LIG    1        7.677   2.572  -7.265  0.00  0.00    +0.210 HD
ENDBRANCH  30  38
BRANCH  31  40
ATOM     40  O   LIG    1        5.955   0.068  -4.834  0.00  0.00    -0.387 OA
ATOM     41  H   LIG    1        5.161   0.482  -4.442  0.00  0.00    +0.210 HD
ENDBRANCH  31  40
BRANCH  29  42
ATOM     42  C   LIG    1        6.284   4.439  -4.497  0.00  0.00    +0.112 C 
BRANCH  42  43
ATOM     43  N   LIG    1        5.378   5.592  -4.590  0.00  0.00    -0.328 NA
ATOM     44  H   LIG    1        5.747   6.350  -4.018  0.00  0.00    +0.118 HD
ATOM     45  H   LIG    1        5.361   5.939  -5.548  0.00  0.00    +0.118 HD
ENDBRANCH  42  43
ENDBRANCH  29  42
ENDBRANCH  28  33
ENDBRANCH   1  28
TORSDOF 16
