REMARK  Name = *****
REMARK                            x       y       z     vdW  Elec       q    Type
REMARK                         _______ _______ _______ _____ _____    ______ ____
ROOT
ATOM      1  N   LIG    1        7.050  -0.468  -6.529  0.00  0.00    -0.297 N 
ATOM      2  C   LIG    1        6.159   0.442  -7.110  0.00  0.00    +0.226 C 
ATOM      3  O   LIG    1        4.911   0.106  -7.089  0.00  0.00    -0.275 OA
ENDROOT
BRANCH   1   5
ATOM      4  C   LIG    1        9.659  -0.935  -6.285  0.00  0.00    +0.024 C 
ATOM      5  C   LIG    1        8.428  -0.043  -6.239  0.00  0.00    +0.105 C 
ENDBRANCH   1   5
BRANCH   2   6
ATOM      6  C   LIG    1        6.466   1.874  -7.764  0.00  0.00    +0.130 C 
BRANCH   6   7
ATOM      7  C   LIG    1        7.837   2.626  -7.859  0.00  0.00    -0.033 A 
ATOM      8  C   LIG    1        7.896   4.000  -7.512  0.00  0.00    +0.004 A 
ATOM      9  C   LIG    1        9.017   4.794  -7.819  0.00  0.00    +0.000 A 
ATOM     10  C   LIG    1       10.192   4.203  -8.260  0.00  0.00    +0.000 A 
ATOM     11  C   LIG    1       10.205   2.837  -8.487  0.00  0.00    +0.000 A 
ATOM     12  C   LIG    1        9.007   2.110  -8.443  0.00  0.00    +0.004 A 
ENDBRANCH   6   7
BRANCH   6  13
ATOM     13  C   LIG    1        5.784   1.960  -9.171  0.00  0.00    +0.173 C 
BRANCH  13  14
ATOM     14  O   LIG    1        4.433   1.496  -9.245  0.00  0.00    -0.394 OA
ATOM     15  H   LIG    1        4.381   0.623  -8.807  0.00  0.00    +0.209 HD
ENDBRANCH  13  14
ENDBRANCH   6  13
ENDBRANCH   2   6
BRANCH   1  16
ATOM     16  C   LIG    1        6.446  -1.565  -5.758  0.00  0.00    +0.143 C 
BRANCH  16  17
ATOM     17  C   LIG    1        7.330  -2.499  -4.958  0.00  0.00    -0.027 A 
ATOM     18  C   LIG    1        8.208  -3.384  -5.593  0.00  0.00    +0.025 A 
ATOM     19  C   LIG    1        9.038  -4.186  -4.825  0.00  0.00    +0.111 A 
ATOM     20  N   LIG    1        9.014  -4.211  -3.478  0.00  0.00    -0.263 NA
ATOM     21  C   LIG    1        8.119  -3.400  -2.877  0.00  0.00    +0.111 A 
ATOM     22  C   LIG    1        7.274  -2.535  -3.560  0.00  0.00    +0.025 A 
ENDBRANCH  16  17
ENDBRANCH   1  16
TORSDOF 7
