REMARK  Name = *****
REMARK                            x       y       z     vdW  Elec       q    Type
REMARK                         _______ _______ _______ _____ _____    ______ ____
ROOT
ATOM      1 BR   LIG    1        1.825   0.695  -1.110  0.00  0.00    -0.044 Br
ATOM      2  C   LIG    1        3.351   0.186  -0.070  0.00  0.00    +0.087 A 
ATOM      3  C   LIG    1        3.793  -1.147  -0.121  0.00  0.00    +0.106 A 
ATOM      4  C   LIG    1        4.920  -1.507   0.663  0.00  0.00    +0.090 A 
ATOM      5  N   LIG    1        5.414  -2.760   0.673  0.00  0.00    -0.252 NA
ATOM      6  C   LIG    1        4.783  -3.668  -0.098  0.00  0.00    +0.131 A 
ATOM      7  C   LIG    1        3.691  -3.340  -0.867  0.00  0.00    +0.131 A 
ATOM      8  C   LIG    1        5.546  -0.553   1.448  0.00  0.00    +0.033 A 
ATOM      9  C   LIG    1        5.096   0.764   1.484  0.00  0.00    +0.049 A 
ATOM     10  N   LIG    1        3.187  -2.088  -0.894  0.00  0.00    -0.251 NA
ATOM     11  C   LIG    1        4.002   1.154   0.717  0.00  0.00    +0.158 A 
ENDROOT
BRANCH  11  12
ATOM     12  N   LIG    1        3.574   2.489   0.809  0.00  0.00    -0.076 NA
ATOM     13  C   LIG    1        4.015   3.337  -0.052  0.00  0.00    +0.370 C 
ATOM     14  N   LIG    1        4.831   3.169  -1.139  0.00  0.00    -0.235 N 
ATOM     15  H   LIG    1        4.950   2.237  -1.510  0.00  0.00    +0.244 HD
ATOM     16  C   LIG    1        4.777   4.294  -2.058  0.00  0.00    +0.219 C 
ATOM     17  C   LIG    1        3.830   5.276  -1.348  0.00  0.00    +0.219 C 
ATOM     18  N   LIG    1        3.632   4.650  -0.055  0.00  0.00    -0.235 N 
ATOM     19  H   LIG    1        2.792   4.848   0.473  0.00  0.00    +0.244 HD
ENDBRANCH  11  12
TORSDOF 1
