REMARK  Name = *****
REMARK                            x       y       z     vdW  Elec       q    Type
REMARK                         _______ _______ _______ _____ _____    ______ ____
ROOT
ATOM      1  O   LIG    1        1.206   0.199  -0.990  0.00  0.00    -0.286 OA
ATOM      2  C   LIG    1        2.295   0.087  -0.416  0.00  0.00    +0.200 C 
ATOM      3  C   LIG    1        2.804  -1.212   0.086  0.00  0.00    +0.056 A 
ATOM      4  C   LIG    1        4.203  -1.355   0.257  0.00  0.00    +0.056 A 
ATOM      5  C   LIG    1        4.765  -2.577   0.698  0.00  0.00    +0.039 A 
ATOM      6  C   LIG    1        3.874  -3.601   1.017  0.00  0.00    +0.025 A 
ATOM      7  C   LIG    1        2.488  -3.442   0.903  0.00  0.00    +0.025 A 
ATOM      8  C   LIG    1        5.066  -0.170   0.028  0.00  0.00    +0.200 C 
ATOM      9  O   LIG    1        6.272  -0.304  -0.218  0.00  0.00    -0.286 OA
ATOM     10  C   LIG    1        4.460   1.175   0.102  0.00  0.00    +0.078 A 
ATOM     11  C   LIG    1        5.202   2.320   0.444  0.00  0.00    +0.129 A 
ATOM     12  C   LIG    1        4.607   3.581   0.434  0.00  0.00    +0.050 A 
ATOM     13  C   LIG    1        3.266   3.709   0.071  0.00  0.00    +0.050 A 
ATOM     14  C   LIG    1        2.524   2.576  -0.245  0.00  0.00    +0.129 A 
ATOM     15  C   LIG    1        1.917  -2.268   0.407  0.00  0.00    +0.039 A 
ATOM     16  C   LIG    1        3.110   1.300  -0.200  0.00  0.00    +0.078 A 
ENDROOT
BRANCH  11  17
ATOM     17  O   LIG    1        6.505   2.211   0.843  0.00  0.00    -0.506 OA
ATOM     18  H   LIG    1        6.916   3.089   0.883  0.00  0.00    +0.292 HD
ENDBRANCH  11  17
BRANCH  15  19
ATOM     19  N   LIG    1        0.532  -2.090   0.400  0.00  0.00    -0.342 N 
ATOM     20  H   LIG    1        0.193  -1.461  -0.340  0.00  0.00    +0.146 HD
BRANCH  19  21
ATOM     21  C   LIG    1       -0.406  -3.154   0.758  0.00  0.00    +0.116 C 
BRANCH  21  22
ATOM     22  C   LIG    1       -1.867  -2.692   0.560  0.00  0.00    +0.099 C 
BRANCH  22  23
ATOM     23  N   LIG    1       -2.161  -2.413  -0.856  0.00  0.00    -0.312 NA
ATOM     24  H   LIG    1       -1.975  -3.257  -1.401  0.00  0.00    +0.122 HD
BRANCH  23  25
ATOM     25  C   LIG    1       -3.552  -2.008  -1.085  0.00  0.00    +0.108 C 
BRANCH  25  26
ATOM     26  C   LIG    1       -3.977  -0.708  -0.388  0.00  0.00    +0.171 C 
BRANCH  26  27
ATOM     27  O   LIG    1       -5.325  -0.385  -0.719  0.00  0.00    -0.394 OA
ATOM     28  H   LIG    1       -5.331  -0.096  -1.648  0.00  0.00    +0.209 HD
ENDBRANCH  26  27
ENDBRANCH  25  26
ENDBRANCH  23  25
ENDBRANCH  22  23
ENDBRANCH  21  22
ENDBRANCH  19  21
ENDBRANCH  15  19
BRANCH  14  29
ATOM     29  O   LIG    1        1.215   2.781  -0.593  0.00  0.00    -0.506 OA
ATOM     30  H   LIG    1        0.843   1.922  -0.894  0.00  0.00    +0.292 HD
ENDBRANCH  14  29
BRANCH   5  31
ATOM     31  N   LIG    1        6.142  -2.780   0.726  0.00  0.00    -0.342 N 
ATOM     32  H   LIG    1        6.707  -1.925   0.743  0.00  0.00    +0.146 HD
BRANCH  31  33
ATOM     33  C   LIG    1        6.759  -4.022   1.175  0.00  0.00    +0.116 C 
BRANCH  33  34
ATOM     34  C   LIG    1        8.300  -3.974   1.100  0.00  0.00    +0.099 C 
BRANCH  34  35
ATOM     35  N   LIG    1        8.808  -3.869  -0.279  0.00  0.00    -0.312 NA
ATOM     36  H   LIG    1        8.409  -3.016  -0.675  0.00  0.00    +0.122 HD
BRANCH  35  37
ATOM     37  C   LIG    1       10.281  -3.807  -0.281  0.00  0.00    +0.108 C 
BRANCH  37  38
ATOM     38  C   LIG    1       10.865  -3.741  -1.700  0.00  0.00    +0.171 C 
BRANCH  38  39
ATOM     39  O   LIG    1       10.422  -2.570  -2.378  0.00  0.00    -0.394 OA
ATOM     40  H   LIG    1        9.450  -2.574  -2.318  0.00  0.00    +0.209 HD
ENDBRANCH  38  39
ENDBRANCH  37  38
ENDBRANCH  35  37
ENDBRANCH  34  35
ENDBRANCH  33  34
ENDBRANCH  31  33
ENDBRANCH   5  31
TORSDOF 16
