REMARK  Name = *****
REMARK                            x       y       z     vdW  Elec       q    Type
REMARK                         _______ _______ _______ _____ _____    ______ ____
ROOT
ATOM      1  C   LIG    1        4.324   0.695  -1.167  0.00  0.00    +0.144 C 
ENDROOT
BRANCH   1   2
ATOM      2  C   LIG    1        4.766   1.563  -2.394  0.00  0.00    +0.072 C 
ATOM      3  N   LIG    1        4.098   2.885  -2.477  0.00  0.00    -0.312 NA
ATOM      4  H   LIG    1        4.337   3.307  -3.377  0.00  0.00    +0.122 HD
ATOM      5  C   LIG    1        4.516   3.801  -1.414  0.00  0.00    +0.081 C 
ATOM      6  C   LIG    1        6.021   4.060  -1.434  0.00  0.00    +0.015 C 
ATOM      7  C   LIG    1        6.812   2.757  -1.412  0.00  0.00    +0.003 C 
ATOM      8  C   LIG    1        6.297   1.799  -2.485  0.00  0.00    +0.020 C 
ENDBRANCH   1   2
BRANCH   1   9
ATOM      9  C   LIG    1        2.821   0.408  -1.057  0.00  0.00    -0.032 A 
ATOM     10  C   LIG    1        2.134  -0.325  -2.038  0.00  0.00    +0.004 A 
ATOM     11  C   LIG    1        0.777  -0.634  -1.889  0.00  0.00    +0.000 A 
ATOM     12  C   LIG    1        0.080  -0.214  -0.759  0.00  0.00    +0.000 A 
ATOM     13  C   LIG    1        0.741   0.519   0.222  0.00  0.00    +0.000 A 
ATOM     14  C   LIG    1        2.099   0.829   0.075  0.00  0.00    +0.004 A 
ENDBRANCH   1   9
BRANCH   1  15
ATOM     15  C   LIG    1        5.106  -0.620  -1.203  0.00  0.00    +0.316 C 
ATOM     16  O   LIG    1        5.085  -1.425  -2.121  0.00  0.00    -0.250 OA
BRANCH  15  18
ATOM     17  C   LIG    1        6.625  -1.952   0.022  0.00  0.00    +0.280 C 
ATOM     18  O   LIG    1        5.864  -0.746  -0.073  0.00  0.00    -0.468 OA
ENDBRANCH  15  18
ENDBRANCH   1  15
TORSDOF 4
