REMARK  Name = *****
REMARK                            x       y       z     vdW  Elec       q    Type
REMARK                         _______ _______ _______ _____ _____    ______ ____
ROOT
ATOM      1  C   LIG    1        1.522  -6.033  -2.439  0.00  0.00    +0.125 A 
ATOM      2  C   LIG    1        1.027  -4.888  -3.066  0.00  0.00    +0.069 A 
ATOM      3 CL   LIG    1       -0.048  -3.763  -2.316  0.00  0.00    -0.082 Cl
ATOM      4  C   LIG    1        1.407  -4.605  -4.389  0.00  0.00    +0.047 A 
ATOM      5  C   LIG    1        2.304  -5.424  -5.087  0.00  0.00    +0.057 A 
ATOM      6  N   LIG    1        2.664  -5.094  -6.391  0.00  0.00    -0.326 N 
ATOM      7  H   LIG    1        2.459  -4.134  -6.652  0.00  0.00    +0.148 HD
ATOM      8  C   LIG    1        3.931  -5.579  -6.911  0.00  0.00    +0.163 C 
ATOM      9  N   LIG    1        3.934  -7.031  -6.847  0.00  0.00    -0.170 NA
ATOM     10  H   LIG    1        4.760  -7.431  -7.287  0.00  0.00    +0.150 HD
ATOM     11  S   LIG    1        3.773  -7.700  -5.322  0.00  0.00    +0.062 S 
ATOM     12  O   LIG    1        5.081  -7.635  -4.708  0.00  0.00    -0.153 OA
ATOM     13  O   LIG    1        3.081  -8.960  -5.475  0.00  0.00    -0.153 OA
ATOM     14  C   LIG    1        2.728  -6.591  -4.456  0.00  0.00    +0.128 A 
ATOM     15  C   LIG    1        2.363  -6.901  -3.142  0.00  0.00    +0.060 A 
ENDROOT
BRANCH   8  16
ATOM     16  C   LIG    1        5.137  -4.901  -6.230  0.00  0.00    +0.033 C 
ATOM     17  C   LIG    1        5.214  -3.368  -6.504  0.00  0.00    +0.018 C 
ATOM     18  C   LIG    1        6.056  -3.302  -7.782  0.00  0.00    +0.015 C 
ATOM     19  C   LIG    1        7.228  -4.071  -7.170  0.00  0.00    +0.012 C 
ATOM     20  C   LIG    1        7.435  -3.238  -5.928  0.00  0.00    -0.027 C 
ATOM     21  C   LIG    1        6.229  -2.800  -5.536  0.00  0.00    -0.027 C 
ATOM     22  C   LIG    1        6.527  -5.386  -6.769  0.00  0.00    +0.015 C 
ENDBRANCH   8  16
BRANCH   1  23
ATOM     23  S   LIG    1        1.162  -6.400  -0.751  0.00  0.00    +0.057 S 
ATOM     24  O   LIG    1        1.688  -7.708  -0.438  0.00  0.00    -0.153 OA
ATOM     25  O   LIG    1        1.469  -5.245   0.059  0.00  0.00    -0.153 OA
BRANCH  23  26
ATOM     26  N   LIG    1       -0.503  -6.594  -0.739  0.00  0.00    -0.203 NA
ATOM     27  H   LIG    1       -0.741  -7.541  -0.442  0.00  0.00    +0.144 HD
ATOM     28  H   LIG    1       -0.935  -5.864  -0.170  0.00  0.00    +0.144 HD
ENDBRANCH  23  26
ENDBRANCH   1  23
TORSDOF 3
