REMARK  Name = *****
REMARK                            x       y       z     vdW  Elec       q    Type
REMARK                         _______ _______ _______ _____ _____    ______ ____
ROOT
ATOM      1  C   LIG    1        9.605   6.373   5.373  0.00  0.00    +0.008 C 
ATOM      2  C   LIG    1       10.804   6.678   4.818  0.00  0.00    +0.056 C 
ATOM      3 CL   LIG    1       11.483   5.761   3.475  0.00  0.00    -0.082 Cl
ENDROOT
BRANCH   1   7
ATOM      4  C   LIG    1        7.172   3.395   3.377  0.00  0.00    +0.121 A 
ATOM      5  C   LIG    1        7.982   3.035   4.460  0.00  0.00    +0.046 A 
ATOM      6  C   LIG    1        8.801   3.977   5.100  0.00  0.00    +0.012 A 
ATOM      7  C   LIG    1        8.792   5.311   4.679  0.00  0.00    -0.016 A 
ATOM      8  C   LIG    1        7.988   5.666   3.588  0.00  0.00    +0.012 A 
ATOM      9  C   LIG    1        7.205   4.714   2.925  0.00  0.00    +0.046 A 
BRANCH   4  10
ATOM     10  O   LIG    1        6.404   2.389   2.862  0.00  0.00    -0.491 OA
BRANCH  10  11
ATOM     11  C   LIG    1        5.513   2.677   1.774  0.00  0.00    +0.244 C 
BRANCH  11  12
ATOM     12  C   LIG    1        6.214   2.396   0.429  0.00  0.00    +0.125 C 
BRANCH  12  13
ATOM     13  N   LIG    1        5.466   2.728  -0.808  0.00  0.00    -0.300 NA
BRANCH  13  15
ATOM     14  C   LIG    1        7.639   2.988  -2.094  0.00  0.00    +0.020 C 
ATOM     15  C   LIG    1        6.240   2.369  -2.022  0.00  0.00    +0.081 C 
ENDBRANCH  13  15
BRANCH  13  16
ATOM     16  C   LIG    1        4.128   2.106  -0.813  0.00  0.00    +0.081 C 
ATOM     17  C   LIG    1        3.216   2.588  -1.937  0.00  0.00    +0.020 C 
ENDBRANCH  13  16
ENDBRANCH  12  13
ENDBRANCH  11  12
ENDBRANCH  10  11
ENDBRANCH   4  10
ENDBRANCH   1   7
BRANCH   1  18
ATOM     18  C   LIG    1        9.020   7.082   6.580  0.00  0.00    -0.016 A 
ATOM     19  C   LIG    1        7.630   7.161   6.759  0.00  0.00    +0.008 A 
ATOM     20  C   LIG    1        7.065   7.731   7.909  0.00  0.00    +0.001 A 
ATOM     21  C   LIG    1        7.881   8.261   8.905  0.00  0.00    +0.000 A 
ATOM     22  C   LIG    1        9.254   8.204   8.756  0.00  0.00    +0.001 A 
ATOM     23  C   LIG    1        9.809   7.596   7.624  0.00  0.00    +0.008 A 
ENDBRANCH   1  18
BRANCH   2  24
ATOM     24  C   LIG    1       11.710   7.800   5.174  0.00  0.00    -0.006 A 
ATOM     25  C   LIG    1       11.550   9.049   4.561  0.00  0.00    +0.009 A 
ATOM     26  C   LIG    1       12.410  10.107   4.875  0.00  0.00    +0.001 A 
ATOM     27  C   LIG    1       13.416   9.932   5.823  0.00  0.00    +0.000 A 
ATOM     28  C   LIG    1       13.582   8.695   6.443  0.00  0.00    +0.001 A 
ATOM     29  C   LIG    1       12.754   7.623   6.093  0.00  0.00    +0.009 A 
ENDBRANCH   2  24
TORSDOF 9
