REMARK  Name = *****
REMARK                            x       y       z     vdW  Elec       q    Type
REMARK                         _______ _______ _______ _____ _____    ______ ____
ROOT
ATOM      1  C   LIG    1        2.981  -0.437   1.300  0.00  0.00    +0.078 C 
ENDROOT
BRANCH   1   2
ATOM      2  S   LIG    1        2.279   0.057  -0.329  0.00  0.00    -0.172 S 
ATOM      3  H   LIG    1        2.582  -1.093  -0.954  0.00  0.00    +0.102 HD
ENDBRANCH   1   2
BRANCH   1   4
ATOM      4  C   LIG    1        2.339  -1.761   1.742  0.00  0.00    +0.170 C 
BRANCH   4   5
ATOM      5  O   LIG    1        2.679  -2.825   0.855  0.00  0.00    -0.394 OA
ATOM      6  H   LIG    1        2.163  -3.601   1.130  0.00  0.00    +0.209 HD
ENDBRANCH   4   5
ENDBRANCH   1   4
BRANCH   1   7
ATOM      7  C   LIG    1        4.511  -0.565   1.234  0.00  0.00    +0.081 C 
BRANCH   7   8
ATOM      8  S   LIG    1        5.350   1.038   0.989  0.00  0.00    -0.177 S 
ATOM      9  H   LIG    1        4.678   1.376  -0.125  0.00  0.00    +0.102 HD
ENDBRANCH   7   8
ENDBRANCH   1   7
TORSDOF 5
