REMARK  Name = *****
REMARK                            x       y       z     vdW  Elec       q    Type
REMARK                         _______ _______ _______ _____ _____    ______ ____
ROOT
ATOM      1  C   LIG    1       12.576  -0.974   0.576  0.00  0.00    +0.134 C 
ATOM      2  C   LIG    1       11.130  -0.454   0.680  0.00  0.00    +0.079 C 
ATOM      3  C   LIG    1       10.098  -1.447   0.111  0.00  0.00    +0.158 C 
ATOM      4  C   LIG    1       10.412  -1.591  -1.368  0.00  0.00    +0.030 A 
ATOM      5  C   LIG    1       11.751  -1.687  -1.793  0.00  0.00    +0.007 A 
ATOM      6  C   LIG    1       12.012  -1.969  -3.141  0.00  0.00    +0.132 A 
ATOM      7  C   LIG    1       10.974  -2.065  -4.082  0.00  0.00    +0.078 A 
ATOM      8  C   LIG    1       11.278  -2.356  -5.489  0.00  0.00    +0.198 C 
ATOM      9  O   LIG    1       12.441  -2.588  -5.820  0.00  0.00    -0.286 OA
ATOM     10  C   LIG    1       10.205  -2.366  -6.493  0.00  0.00    +0.037 A 
ATOM     11  C   LIG    1        8.880  -2.102  -6.134  0.00  0.00    +0.075 A 
ATOM     12  C   LIG    1        7.888  -2.118  -7.136  0.00  0.00    +0.132 A 
ATOM     13  C   LIG    1        8.253  -2.367  -8.469  0.00  0.00    +0.046 A 
ATOM     14  C   LIG    1        9.578  -2.632  -8.811  0.00  0.00    +0.004 A 
ATOM     15  C   LIG    1        8.573  -1.831  -4.703  0.00  0.00    +0.202 C 
ATOM     16  O   LIG    1        7.436  -1.589  -4.305  0.00  0.00    -0.286 OA
ATOM     17  C   LIG    1       10.553  -2.638  -7.824  0.00  0.00    +0.012 A 
ATOM     18  C   LIG    1        9.659  -1.840  -3.691  0.00  0.00    +0.078 A 
ATOM     19  C   LIG    1        9.385  -1.609  -2.332  0.00  0.00    +0.135 A 
ATOM     20  C   LIG    1       12.922  -1.359  -0.876  0.00  0.00    +0.082 C 
ENDROOT
BRANCH   1  21
ATOM     21  O   LIG    1       12.770  -2.129   1.398  0.00  0.00    -0.381 OA
ATOM     22  H   LIG    1       12.588  -1.893   2.325  0.00  0.00    +0.211 HD
ENDBRANCH   1  21
BRANCH  19  23
ATOM     23  O   LIG    1        8.111  -1.353  -1.890  0.00  0.00    -0.506 OA
ATOM     24  H   LIG    1        7.507  -1.300  -2.668  0.00  0.00    +0.292 HD
ENDBRANCH  19  23
BRANCH   6  25
ATOM     25  O   LIG    1       13.331  -2.113  -3.495  0.00  0.00    -0.506 OA
ATOM     26  H   LIG    1       13.377  -2.351  -4.449  0.00  0.00    +0.292 HD
ENDBRANCH   6  25
BRANCH  12  27
ATOM     27  O   LIG    1        6.596  -1.829  -6.788  0.00  0.00    -0.494 OA
ATOM     28  C   LIG    1        5.575  -2.451  -7.563  0.00  0.00    +0.277 C 
ENDBRANCH  12  27
BRANCH   1  29
ATOM     29  C   LIG    1       13.555   0.133   1.046  0.00  0.00    +0.202 C 
ATOM     30  O   LIG    1       13.296   1.332   0.912  0.00  0.00    -0.291 OA
BRANCH  29  31
ATOM     31  C   LIG    1       14.872  -0.318   1.673  0.00  0.00    +0.309 C 
BRANCH  31  32
ATOM     32  O   LIG    1       16.014   0.181   0.978  0.00  0.00    -0.457 OA
BRANCH  32  33
ATOM     33  C   LIG    1       16.666   1.194   1.615  0.00  0.00    +0.307 C 
ATOM     34  O   LIG    1       16.305   1.727   2.627  0.00  0.00    -0.251 OA
BRANCH  33  35
ATOM     35  C   LIG    1       17.968   1.515   0.910  0.00  0.00    +0.120 C 
BRANCH  35  36
ATOM     36  C   LIG    1       19.110   0.522   1.142  0.00  0.00    +0.011 C 
BRANCH  36  38
ATOM     37  C   LIG    1       18.636  -0.107   3.596  0.00  0.00    +0.004 C 
ATOM     38  C   LIG    1       19.634   0.430   2.583  0.00  0.00    -0.003 C 
ENDBRANCH  36  38
ENDBRANCH  35  36
ENDBRANCH  33  35
ENDBRANCH  32  33
ENDBRANCH  31  32
ENDBRANCH  29  31
ENDBRANCH   1  29
BRANCH   3  39
ATOM     39  O   LIG    1       10.154  -2.700   0.824  0.00  0.00    -0.343 OA
BRANCH  39  40
ATOM     40  C   LIG    1        9.219  -3.699   0.386  0.00  0.00    +0.253 C 
ATOM     41  O   LIG    1        7.881  -3.233   0.542  0.00  0.00    -0.346 OA
ATOM     42  C   LIG    1        6.914  -4.180   0.065  0.00  0.00    +0.148 C 
ATOM     43  C   LIG    1        5.568  -3.474   0.012  0.00  0.00    +0.040 C 
ATOM     44  C   LIG    1        6.917  -5.380   1.025  0.00  0.00    +0.163 C 
ATOM     45  C   LIG    1        8.315  -6.027   0.986  0.00  0.00    +0.109 C 
ATOM     46  C   LIG    1        9.423  -4.980   1.221  0.00  0.00    +0.086 C 
BRANCH  45  47
ATOM     47  N   LIG    1        8.413  -7.135   1.946  0.00  0.00    -0.302 N 
ATOM     48  H   LIG    1        7.985  -7.008   2.863  0.00  0.00    +0.149 HD
ATOM     49  C   LIG    1        9.193  -8.263   1.707  0.00  0.00    +0.318 C 
ATOM     50  O   LIG    1        9.787  -8.404   0.635  0.00  0.00    -0.266 OA
BRANCH  49  51
ATOM     51  C   LIG    1        9.254  -9.312   2.847  0.00  0.00    +0.469 C 
ATOM     52  F   LIG    1       10.524  -9.522   3.291  0.00  0.00    -0.162 F 
ATOM     53  F   LIG    1        8.771 -10.527   2.464  0.00  0.00    -0.162 F 
ATOM     54  F   LIG    1        8.525  -8.938   3.938  0.00  0.00    -0.162 F 
ENDBRANCH  49  51
ENDBRANCH  45  47
BRANCH  44  55
ATOM     55  O   LIG    1        6.629  -4.958   2.368  0.00  0.00    -0.387 OA
ATOM     56  H   LIG    1        7.044  -4.078   2.475  0.00  0.00    +0.210 HD
ENDBRANCH  44  55
ENDBRANCH  39  40
ENDBRANCH   3  39
TORSDOF 16
