REMARK  Name = *****
REMARK                            x       y       z     vdW  Elec       q    Type
REMARK                         _______ _______ _______ _____ _____    ______ ____
ROOT
ATOM      1  N   LIG    1        7.297  -1.302  -0.494  0.00  0.00    -0.075 NA
ATOM      2  C   LIG    1        8.531  -1.622  -0.660  0.00  0.00    +0.313 C 
ENDROOT
BRANCH   1   3
ATOM      3  S   LIG    1        6.757   0.200  -0.641  0.00  0.00    +0.103 S 
ATOM      4  O   LIG    1        7.797   1.117  -0.214  0.00  0.00    -0.146 OA
ATOM      5  O   LIG    1        6.157   0.364  -1.952  0.00  0.00    -0.146 OA
BRANCH   3  10
ATOM      6  C   LIG    1        2.263   0.376   3.433  0.00  0.00    +0.044 C 
ATOM      7  C   LIG    1        3.351   0.354   2.400  0.00  0.00    -0.050 A 
ATOM      8  C   LIG    1        4.430   1.242   2.510  0.00  0.00    +0.005 A 
ATOM      9  C   LIG    1        5.469   1.215   1.578  0.00  0.00    +0.029 A 
ATOM     10  C   LIG    1        5.426   0.289   0.534  0.00  0.00    +0.113 A 
ATOM     11  C   LIG    1        4.352  -0.596   0.405  0.00  0.00    +0.029 A 
ATOM     12  C   LIG    1        3.317  -0.563   1.340  0.00  0.00    +0.005 A 
ENDBRANCH   3  10
ENDBRANCH   1   3
BRANCH   2  13
ATOM     13  N   LIG    1        9.054  -2.890  -0.631  0.00  0.00    -0.231 N 
ATOM     14  H   LIG    1       10.035  -2.935  -0.893  0.00  0.00    +0.171 HD
BRANCH  13  15
ATOM     15  N   LIG    1        8.202  -3.961  -0.995  0.00  0.00    -0.225 NA
ATOM     16  C   LIG    1        8.287  -4.225  -2.444  0.00  0.00    +0.109 C 
ATOM     17  C   LIG    1        9.213  -5.426  -2.608  0.00  0.00    +0.009 C 
ATOM     18  C   LIG    1        8.989  -6.218  -1.329  0.00  0.00    +0.009 C 
ATOM     19  C   LIG    1        7.858  -7.178  -1.688  0.00  0.00    +0.005 C 
ATOM     20  C   LIG    1        8.181  -7.588  -3.116  0.00  0.00    +0.001 C 
ATOM     21  C   LIG    1        8.832  -6.361  -3.758  0.00  0.00    +0.005 C 
ATOM     22  C   LIG    1        8.626  -5.179  -0.279  0.00  0.00    +0.109 C 
ENDBRANCH  13  15
ENDBRANCH   2  13
BRANCH   2  23
ATOM     23  O   LIG    1        9.530  -0.744  -0.887  0.00  0.00    -0.480 OA
ATOM     24  H   LIG    1        9.237   0.182  -0.783  0.00  0.00    +0.295 HD
ENDBRANCH   2  23
TORSDOF 5
