REMARK  Name = *****
REMARK                            x       y       z     vdW  Elec       q    Type
REMARK                         _______ _______ _______ _____ _____    ______ ____
ROOT
ATOM      1  N   LIG    1        0.897  -1.786  -0.482  0.00  0.00    -0.294 NA
ATOM      2  C   LIG    1        0.330  -0.748  -1.380  0.00  0.00    +0.120 C 
ATOM      3  C   LIG    1       -1.176  -0.747  -1.314  0.00  0.00    -0.023 A 
ATOM      4  C   LIG    1       -1.901  -1.830  -0.859  0.00  0.00    -0.005 A 
ATOM      5  S   LIG    1       -3.580  -1.599  -0.930  0.00  0.00    -0.101 S 
ATOM      6  C   LIG    1       -3.381  -0.026  -1.575  0.00  0.00    +0.045 A 
ATOM      7  C   LIG    1       -1.274  -3.072  -0.326  0.00  0.00    +0.058 C 
ATOM      8  C   LIG    1       -2.050   0.307  -1.729  0.00  0.00    +0.013 A 
ATOM      9  C   LIG    1        0.222  -3.093  -0.700  0.00  0.00    +0.090 C 
ENDROOT
BRANCH   1  10
ATOM     10  C   LIG    1        2.345  -1.957  -0.733  0.00  0.00    +0.121 C 
BRANCH  10  13
ATOM     11 CL   LIG    1        4.145  -0.703  -3.012  0.00  0.00    -0.083 Cl
ATOM     12  C   LIG    1        4.044  -0.145  -1.379  0.00  0.00    +0.045 A 
ATOM     13  C   LIG    1        3.199  -0.742  -0.429  0.00  0.00    -0.015 A 
ATOM     14  C   LIG    1        3.196  -0.217   0.878  0.00  0.00    +0.006 A 
ATOM     15  C   LIG    1        4.008   0.868   1.221  0.00  0.00    +0.000 A 
ATOM     16  C   LIG    1        4.837   1.448   0.267  0.00  0.00    +0.001 A 
ATOM     17  C   LIG    1        4.855   0.943  -1.032  0.00  0.00    +0.020 A 
ENDBRANCH  10  13
ENDBRANCH   1  10
TORSDOF 2
