REMARK  Name = *****
REMARK                            x       y       z     vdW  Elec       q    Type
REMARK                         _______ _______ _______ _____ _____    ______ ____
ROOT
ATOM      1  C   LIG    1       -5.965   8.412   1.254  0.00  0.00    +0.015 C 
ATOM      2  C   LIG    1       -6.408   7.000   0.835  0.00  0.00    +0.009 C 
ATOM      3  C   LIG    1       -7.819   6.648   1.419  0.00  0.00    +0.132 C 
ATOM      4  C   LIG    1       -7.886   5.118   1.305  0.00  0.00    +0.043 C 
ATOM      5  C   LIG    1       -6.435   4.633   1.395  0.00  0.00    +0.007 C 
ATOM      6  C   LIG    1       -5.548   5.895   1.496  0.00  0.00    +0.002 C 
ATOM      7  C   LIG    1       -4.134   5.667   0.920  0.00  0.00    +0.002 C 
ATOM      8  C   LIG    1       -3.074   6.596   1.566  0.00  0.00    +0.045 C 
ATOM      9  C   LIG    1       -2.119   7.360   0.640  0.00  0.00    +0.193 C 
ATOM     10  F   LIG    1       -2.626   8.624   0.508  0.00  0.00    -0.241 F 
ATOM     11  C   LIG    1       -1.882   6.799  -0.734  0.00  0.00    -0.023 C 
ATOM     12  C   LIG    1       -2.581   5.509  -1.110  0.00  0.00    +0.016 C 
ATOM     13  C   LIG    1       -1.834   4.320  -0.446  0.00  0.00    +0.020 C 
ATOM     14  C   LIG    1       -2.498   5.212  -2.596  0.00  0.00    -0.012 C 
ATOM     15  C   LIG    1       -1.766   5.924  -3.470  0.00  0.00    +0.047 C 
ATOM     16  C   LIG    1       -0.989   7.105  -3.028  0.00  0.00    +0.179 C 
ATOM     17  O   LIG    1       -0.258   7.713  -3.791  0.00  0.00    -0.288 OA
ATOM     18  C   LIG    1       -1.150   7.517  -1.621  0.00  0.00    +0.053 C 
ATOM     19  C   LIG    1       -4.079   5.608  -0.626  0.00  0.00    +0.035 C 
ATOM     20  C   LIG    1       -4.902   6.767  -1.260  0.00  0.00    +0.120 C 
ATOM     21  C   LIG    1       -6.333   6.868  -0.704  0.00  0.00    +0.042 C 
ENDROOT
BRANCH   3  22
ATOM     22  O   LIG    1       -7.831   6.952   2.820  0.00  0.00    -0.380 OA
ATOM     23  H   LIG    1       -8.726   6.766   3.167  0.00  0.00    +0.211 HD
ENDBRANCH   3  22
BRANCH   3  24
ATOM     24  C   LIG    1       -9.001   7.333   0.696  0.00  0.00    +0.190 C 
ATOM     25  O   LIG    1       -9.488   6.891  -0.350  0.00  0.00    -0.292 OA
BRANCH  24  26
ATOM     26  C   LIG    1       -9.611   8.553   1.371  0.00  0.00    +0.233 C 
BRANCH  26  27
ATOM     27  O   LIG    1      -10.534   8.143   2.371  0.00  0.00    -0.387 OA
ATOM     28  H   LIG    1      -11.337   7.847   1.901  0.00  0.00    +0.210 HD
ENDBRANCH  26  27
ENDBRANCH  24  26
ENDBRANCH   3  24
BRANCH  20  29
ATOM     29  O   LIG    1       -5.016   6.593  -2.672  0.00  0.00    -0.391 OA
ATOM     30  H   LIG    1       -5.511   5.775  -2.845  0.00  0.00    +0.210 HD
ENDBRANCH  20  29
TORSDOF 5
