REMARK  Name = *****
REMARK                            x       y       z     vdW  Elec       q    Type
REMARK                         _______ _______ _______ _____ _____    ______ ____
ROOT
ATOM      1  C   LIG    1        4.468   1.629  -2.298  0.00  0.00    +0.076 C 
ATOM      2  C   LIG    1        3.498   2.659  -2.927  0.00  0.00    +0.023 C 
ATOM      3  C   LIG    1        4.600   3.154  -2.057  0.00  0.00    +0.027 C 
ENDROOT
BRANCH   1   4
ATOM      4  C   LIG    1        3.829   0.780  -1.181  0.00  0.00    -0.032 A 
ATOM      5  C   LIG    1        2.637   0.062  -1.405  0.00  0.00    +0.005 A 
ATOM      6  C   LIG    1        2.004  -0.658  -0.390  0.00  0.00    +0.000 A 
ATOM      7  C   LIG    1        2.556  -0.684   0.884  0.00  0.00    +0.000 A 
ATOM      8  C   LIG    1        3.741   0.004   1.137  0.00  0.00    +0.000 A 
ATOM      9  C   LIG    1        4.370   0.725   0.115  0.00  0.00    +0.005 A 
ENDBRANCH   1   4
BRANCH   1  11
ATOM     10  N   LIG    1        5.686   0.238  -4.054  0.00  0.00    -0.301 N 
ATOM     11  C   LIG    1        5.737   1.067  -2.932  0.00  0.00    +0.226 C 
ATOM     12  O   LIG    1        6.818   1.377  -2.406  0.00  0.00    -0.275 OA
BRANCH  10  14
ATOM     13  C   LIG    1        4.310   0.189  -6.134  0.00  0.00    +0.024 C 
ATOM     14  C   LIG    1        4.449  -0.234  -4.675  0.00  0.00    +0.104 C 
ENDBRANCH  10  14
BRANCH  10  15
ATOM     15  C   LIG    1        6.955  -0.236  -4.625  0.00  0.00    +0.104 C 
ATOM     16  C   LIG    1        7.463  -1.553  -4.054  0.00  0.00    +0.024 C 
ENDBRANCH  10  15
ENDBRANCH   1  11
BRANCH   2  17
ATOM     17  C   LIG    1        3.441   2.993  -4.370  0.00  0.00    +0.082 C 
BRANCH  17  18
ATOM     18  N   LIG    1        3.317   4.431  -4.544  0.00  0.00    -0.330 NA
ATOM     19  H   LIG    1        2.610   4.797  -3.910  0.00  0.00    +0.118 HD
ATOM     20  H   LIG    1        4.196   4.865  -4.266  0.00  0.00    +0.118 HD
ENDBRANCH  17  18
ENDBRANCH   2  17
TORSDOF 6
