REMARK  Name = *****
REMARK                            x       y       z     vdW  Elec       q    Type
REMARK                         _______ _______ _______ _____ _____    ______ ____
ROOT
ATOM      1  P   LIG    1        4.738  -0.926   1.043  0.00  0.00    +0.516 P 
ATOM      2  F   LIG    1        4.747  -0.390  -0.463  0.00  0.00    -0.133 F 
ATOM      3  O   LIG    1        4.710  -2.456   0.922  0.00  0.00    -0.223 OA
ENDROOT
BRANCH   1   4
ATOM      4  O   LIG    1        3.008  -0.926   1.043  0.00  0.00    -0.281 OA
BRANCH   4   6
ATOM      5  C   LIG    1        0.879   0.118   0.915  0.00  0.00    +0.038 C 
ATOM      6  C   LIG    1        2.387   0.345   0.893  0.00  0.00    +0.124 C 
ATOM      7  C   LIG    1        2.798   1.289   2.018  0.00  0.00    +0.038 C 
ENDBRANCH   4   6
ENDBRANCH   1   4
BRANCH   1   8
ATOM      8  O   LIG    1        6.468  -0.926   1.043  0.00  0.00    -0.281 OA
BRANCH   8   9
ATOM      9  C   LIG    1        7.053  -1.619   2.155  0.00  0.00    +0.124 C 
ATOM     10  C   LIG    1        6.610  -0.996   3.475  0.00  0.00    +0.038 C 
ATOM     11  C   LIG    1        8.568  -1.565   2.014  0.00  0.00    +0.038 C 
ENDBRANCH   8   9
ENDBRANCH   1   8
TORSDOF 4
