REMARK  Name = *****
REMARK                            x       y       z     vdW  Elec       q    Type
REMARK                         _______ _______ _______ _____ _____    ______ ____
ROOT
ATOM      1  C   LIG    1        0.816  -0.003   0.063  0.00  0.00    +0.008 C 
ATOM      2  C   LIG    1        2.280  -0.048   0.516  0.00  0.00    -0.008 C 
ATOM      3  C   LIG    1        2.504  -0.446   2.005  0.00  0.00    +0.032 C 
ATOM      4  C   LIG    1        3.100  -1.879   2.430  0.00  0.00    +0.161 C 
ATOM      5  C   LIG    1        2.479  -2.794   3.574  0.00  0.00    +0.292 C 
ATOM      6  O   LIG    1        2.535  -2.250   4.899  0.00  0.00    -0.314 OA
ATOM      7  C   LIG    1        2.708  -0.853   4.886  0.00  0.00    +0.203 C 
ATOM      8  O   LIG    1        3.902  -0.447   4.182  0.00  0.00    -0.199 OA
ATOM      9  C   LIG    1        1.385  -0.305   4.332  0.00  0.00    +0.068 C 
ATOM     10  C   LIG    1        2.836  -0.330   6.318  0.00  0.00    +0.077 C 
ATOM     11  O   LIG    1        3.188  -4.022   3.778  0.00  0.00    -0.320 OA
ATOM     12  C   LIG    1        3.425  -4.843   2.672  0.00  0.00    +0.253 C 
ATOM     13  C   LIG    1        2.938  -4.260   1.360  0.00  0.00    +0.048 C 
ATOM     14  C   LIG    1        3.286  -5.229   0.214  0.00  0.00    +0.013 C 
ATOM     15  C   LIG    1        3.472  -2.801   1.188  0.00  0.00    +0.037 C 
ATOM     16  C   LIG    1        2.937  -2.324  -0.174  0.00  0.00    +0.007 C 
ATOM     17  O   LIG    1        4.317  -1.490   3.163  0.00  0.00    -0.220 OA
ATOM     18  C   LIG    1        1.409   0.145   2.898  0.00  0.00    +0.012 C 
ATOM     19  C   LIG    1        3.143  -0.858  -0.427  0.00  0.00    +0.004 C 
ENDROOT
BRANCH  12  20
ATOM     20  O   LIG    1        2.765  -6.078   2.924  0.00  0.00    -0.367 OA
ATOM     21  H   LIG    1        1.999  -5.845   3.441  0.00  0.00    +0.212 HD
ENDBRANCH  12  20
TORSDOF 1
