REMARK  Name = *****
REMARK                            x       y       z     vdW  Elec       q    Type
REMARK                         _______ _______ _______ _____ _____    ______ ____
ROOT
ATOM      1  C   LIG    1        3.240   1.230  -0.091  0.00  0.00    +0.165 C 
ENDROOT
BRANCH   1   2
ATOM      2  O   LIG    1        3.269   1.690   1.272  0.00  0.00    -0.387 OA
ATOM      3  H   LIG    1        2.351   1.569   1.589  0.00  0.00    +0.210 HD
ENDBRANCH   1   2
BRANCH   1   4
ATOM      4  C   LIG    1        2.518  -0.114  -0.150  0.00  0.00    +0.189 C 
BRANCH   4   5
ATOM      5  O   LIG    1        1.199   0.061   0.374  0.00  0.00    -0.392 OA
ATOM      6  H   LIG    1        0.750  -0.800   0.302  0.00  0.00    +0.209 HD
ENDBRANCH   4   5
ENDBRANCH   1   4
BRANCH   1   7
ATOM      7  C   LIG    1        4.677   1.131  -0.594  0.00  0.00    +0.189 C 
BRANCH   7   8
ATOM      8  O   LIG    1        5.302   2.411  -0.505  0.00  0.00    -0.392 OA
ATOM      9  H   LIG    1        5.053   2.751   0.379  0.00  0.00    +0.209 HD
ENDBRANCH   7   8
ENDBRANCH   1   7
TORSDOF 5
