REMARK  Name = *****
REMARK                            x       y       z     vdW  Elec       q    Type
REMARK                         _______ _______ _______ _____ _____    ______ ____
ROOT
ATOM      1  C   LIG    1        1.380   0.084   0.685  0.00  0.00    +0.105 C 
ATOM      2  N   LIG    1        2.668   0.264   0.007  0.00  0.00    -0.297 NA
ENDROOT
BRANCH   2   3
ATOM      3  C   LIG    1        3.379   1.392   0.648  0.00  0.00    +0.120 C 
BRANCH   3   4
ATOM      4  C   LIG    1        4.747   1.723   0.071  0.00  0.00    -0.026 A 
ATOM      5  C   LIG    1        5.822   0.789   0.051  0.00  0.00    -0.013 A 
ATOM      6  C   LIG    1        7.051   1.181  -0.539  0.00  0.00    -0.018 A 
ATOM      7  C   LIG    1        8.123   0.273  -0.596  0.00  0.00    +0.008 A 
ATOM      8  C   LIG    1        8.003  -1.015  -0.077  0.00  0.00    +0.001 A 
ATOM      9  C   LIG    1        6.811  -1.412   0.511  0.00  0.00    +0.001 A 
ATOM     10  C   LIG    1        7.196   2.469  -1.071  0.00  0.00    +0.008 A 
ATOM     11  C   LIG    1        6.147   3.382  -1.031  0.00  0.00    +0.001 A 
ATOM     12  C   LIG    1        5.738  -0.521   0.576  0.00  0.00    +0.009 A 
ATOM     13  C   LIG    1        4.934   3.013  -0.464  0.00  0.00    +0.005 A 
ENDBRANCH   3   4
ENDBRANCH   2   3
BRANCH   2  14
ATOM     14  C   LIG    1        2.513   0.460  -1.448  0.00  0.00    +0.111 C 
BRANCH  14  15
ATOM     15  C   LIG    1        1.949  -0.751  -2.148  0.00  0.00    -0.011 C 
ATOM     16  C   LIG    1        2.526  -1.519  -3.087  0.00  0.00    +0.005 C 
BRANCH  16  17
ATOM     17  C   LIG    1        3.873  -1.349  -3.633  0.00  0.00    -0.025 A 
ATOM     18  C   LIG    1        4.967  -1.972  -3.025  0.00  0.00    +0.008 A 
ATOM     19  C   LIG    1        6.250  -1.816  -3.555  0.00  0.00    +0.001 A 
ATOM     20  C   LIG    1        6.445  -1.038  -4.696  0.00  0.00    +0.000 A 
ATOM     21  C   LIG    1        5.357  -0.423  -5.312  0.00  0.00    +0.001 A 
ATOM     22  C   LIG    1        4.073  -0.579  -4.783  0.00  0.00    +0.008 A 
ENDBRANCH  16  17
ENDBRANCH  14  15
ENDBRANCH   2  14
TORSDOF 5
