REMARK  Name = *****
REMARK                            x       y       z     vdW  Elec       q    Type
REMARK                         _______ _______ _______ _____ _____    ______ ____
ROOT
ATOM      1  C   LIG    1        3.000  -0.535   1.057  0.00  0.00    +0.068 C 
ATOM      2  C   LIG    1        2.909   0.299  -0.122  0.00  0.00    +0.017 C 
ATOM      3  C   LIG    1        3.289   1.583  -0.107  0.00  0.00    +0.012 C 
ATOM      4  C   LIG    1        3.826   2.209   1.097  0.00  0.00    +0.022 C 
ATOM      5  C   LIG    1        4.193   3.506   1.047  0.00  0.00    +0.012 C 
ATOM      6  C   LIG    1        3.943   1.344   2.332  0.00  0.00    +0.187 C 
ATOM      7  O   LIG    1        4.391   1.711   3.413  0.00  0.00    -0.287 OA
ATOM      8  C   LIG    1        3.480  -0.059   2.213  0.00  0.00    +0.067 C 
ENDROOT
BRANCH   5   9
ATOM      9  C   LIG    1        4.793   4.315   2.092  0.00  0.00    +0.008 C 
ATOM     10  C   LIG    1        5.143   5.618   2.038  0.00  0.00    -0.025 A 
ATOM     11  C   LIG    1        4.950   6.465   0.861  0.00  0.00    +0.009 A 
ATOM     12  C   LIG    1        5.249   7.775   0.906  0.00  0.00    +0.016 A 
ATOM     13  C   LIG    1        5.762   8.401   2.140  0.00  0.00    +0.059 A 
ATOM     14  C   LIG    1        5.942   9.753   2.223  0.00  0.00    +0.258 C 
ATOM     15  C   LIG    1        6.135   7.500   3.247  0.00  0.00    +0.016 A 
ATOM     16  C   LIG    1        5.823   6.193   3.206  0.00  0.00    +0.009 A 
BRANCH  14  17
ATOM     17  N   LIG    1        5.601  10.612   1.205  0.00  0.00    -0.251 N 
ATOM     18  H   LIG    1        5.499  11.571   1.505  0.00  0.00    +0.288 HD
ATOM     19  H   LIG    1        4.799  10.299   0.669  0.00  0.00    +0.288 HD
ENDBRANCH  14  17
BRANCH  14  20
ATOM     20  N   LIG    1        6.451  10.371   3.338  0.00  0.00    -0.251 N 
ATOM     21  H   LIG    1        6.230  11.356   3.396  0.00  0.00    +0.288 HD
ATOM     22  H   LIG    1        6.247   9.885   4.205  0.00  0.00    +0.288 HD
ENDBRANCH  14  20
ENDBRANCH   5   9
BRANCH   1  25
ATOM     23  N   LIG    1        1.633  -2.304   0.157  0.00  0.00    -0.099 NA
ATOM     24  H   LIG    1        1.397  -3.288   0.278  0.00  0.00    +0.363 HD
ATOM     25  C   LIG    1        2.551  -1.966   1.010  0.00  0.00    +0.308 C 
BRANCH  25  26
ATOM     26  N   LIG    1        3.067  -2.932   1.828  0.00  0.00    -0.247 N 
ATOM     27  H   LIG    1        3.990  -2.749   2.209  0.00  0.00    +0.288 HD
ATOM     28  H   LIG    1        2.979  -3.884   1.499  0.00  0.00    +0.288 HD
ENDBRANCH  25  26
ENDBRANCH   1  25
TORSDOF 5
