REMARK  Name = *****
REMARK                            x       y       z     vdW  Elec       q    Type
REMARK                         _______ _______ _______ _____ _____    ______ ____
ROOT
ATOM      1  O   LIG    1        1.373  -0.695   1.080  0.00  0.00    -0.489 OA
ENDROOT
BRANCH   1   2
ATOM      2  C   LIG    1        2.117  -0.464   2.207  0.00  0.00    +0.121 A 
ATOM      3  C   LIG    1        3.274  -1.164   2.566  0.00  0.00    +0.047 A 
ATOM      4  C   LIG    1        3.955  -0.833   3.743  0.00  0.00    +0.023 A 
ATOM      5  C   LIG    1        3.480   0.183   4.565  0.00  0.00    +0.041 A 
ATOM      6 CL   LIG    1        4.338   0.605   5.995  0.00  0.00    -0.084 Cl
ATOM      7  C   LIG    1        2.309   0.862   4.232  0.00  0.00    +0.023 A 
ATOM      8  C   LIG    1        1.627   0.528   3.058  0.00  0.00    +0.047 A 
ENDBRANCH   1   2
BRANCH   1   9
ATOM      9  C   LIG    1        2.103  -1.185  -0.059  0.00  0.00    +0.262 C 
BRANCH   9  10
ATOM     10  C   LIG    1        1.123  -1.321  -1.233  0.00  0.00    +0.177 C 
BRANCH  10  11
ATOM     11  O   LIG    1        0.098  -2.270  -0.889  0.00  0.00    -0.386 OA
ATOM     12  H   LIG    1       -0.265  -1.969  -0.033  0.00  0.00    +0.210 HD
ENDBRANCH  10  11
BRANCH  10  13
ATOM     13  C   LIG    1        1.817  -1.830  -2.498  0.00  0.00    +0.190 C 
BRANCH  13  14
ATOM     14  O   LIG    1        2.349  -3.135  -2.273  0.00  0.00    -0.392 OA
ATOM     15  H   LIG    1        1.610  -3.643  -1.879  0.00  0.00    +0.209 HD
ENDBRANCH  13  14
ENDBRANCH  10  13
ENDBRANCH   9  10
ENDBRANCH   1   9
TORSDOF 6
