REMARK  Name = *****
REMARK                            x       y       z     vdW  Elec       q    Type
REMARK                         _______ _______ _______ _____ _____    ______ ____
ROOT
ATOM      1  CA  MET A  1        5.991  -2.333  -0.626  0.00  0.00    +0.161 C 
ENDROOT
BRANCH   1   2
ATOM      2  N   MET A  1        6.877  -1.950   0.508  0.00  0.00    -0.318 NA
ATOM      3  H1  MET A  1        7.584  -2.692   0.600  0.00  0.00    +0.119 HD
ATOM      4  H2  MET A  1        6.336  -2.079   1.374  0.00  0.00    +0.119 HD
ENDBRANCH   1   2
BRANCH   1   5
ATOM      5  C   MET A  1        4.981  -1.178  -0.814  0.00  0.00    +0.322 C 
ATOM      6  O   MET A  1        3.882  -1.256  -1.325  0.00  0.00    -0.249 OA
BRANCH   5   7
ATOM      7  OXT MET A  1        5.516  -0.008  -0.355  0.00  0.00    -0.479 OA
ATOM      8  HXT MET A  1        6.385  -0.255   0.053  0.00  0.00    +0.295 HD
ENDBRANCH   5   7
ENDBRANCH   1   5
BRANCH   1   9
ATOM      9  CB  MET A  1        5.292  -3.688  -0.436  0.00  0.00    +0.040 C 
BRANCH   9  10
ATOM     10  CG  MET A  1        6.223  -4.910  -0.385  0.00  0.00    +0.071 C 
BRANCH  10  12
ATOM     11  CE  MET A  1        8.180  -6.506   0.792  0.00  0.00    +0.084 C 
ATOM     12  SD  MET A  1        7.254  -4.984   1.122  0.00  0.00    -0.164 S 
ENDBRANCH  10  12
ENDBRANCH   9  10
ENDBRANCH   1   9
TORSDOF 6
