REMARK  Name = *****
REMARK                            x       y       z     vdW  Elec       q    Type
REMARK                         _______ _______ _______ _____ _____    ______ ____
ROOT
ATOM      1  C   LIG    1        2.389  -0.045  -0.039  0.00  0.00    +0.025 A 
ATOM      2  C   LIG    1        3.016  -1.204  -0.509  0.00  0.00    +0.024 A 
ATOM      3  C   LIG    1        4.380  -1.207  -0.810  0.00  0.00    +0.030 A 
ATOM      4  C   LIG    1        5.135  -0.052  -0.591  0.00  0.00    +0.105 A 
ATOM      5  C   LIG    1        4.538   1.094  -0.064  0.00  0.00    +0.030 A 
ATOM      6  C   LIG    1        3.172   1.084   0.228  0.00  0.00    +0.024 A 
ENDROOT
BRANCH   1   7
ATOM      7  N   LIG    1        1.053  -0.087   0.374  0.00  0.00    -0.358 N 
ATOM      8  H   LIG    1        0.493  -0.777  -0.118  0.00  0.00    +0.142 HD
ATOM      9  H   LIG    1        0.602   0.823   0.395  0.00  0.00    +0.142 HD
ENDBRANCH   1   7
BRANCH   4  10
ATOM     10  S   LIG    1        6.860  -0.059  -0.968  0.00  0.00    +0.056 S 
ATOM     11  O   LIG    1        7.484   1.106  -0.382  0.00  0.00    -0.153 OA
ATOM     12  O   LIG    1        7.028  -0.417  -2.355  0.00  0.00    -0.153 OA
BRANCH  10  13
ATOM     13  N   LIG    1        7.431  -1.361  -0.072  0.00  0.00    -0.203 NA
ATOM     14  H   LIG    1        8.078  -1.028   0.642  0.00  0.00    +0.144 HD
ATOM     15  H   LIG    1        7.834  -2.058  -0.700  0.00  0.00    +0.144 HD
ENDBRANCH  10  13
ENDBRANCH   4  10
TORSDOF 3
