REMARK  Name = *****
REMARK                            x       y       z     vdW  Elec       q    Type
REMARK                         _______ _______ _______ _____ _____    ______ ____
ROOT
ATOM      1  C   LIG    1        1.066  -0.164  -0.528  0.00  0.00    +0.134 C 
ATOM      2  N   LIG    1        2.470  -0.036  -0.117  0.00  0.00    -0.159 NA
ATOM      3  S   LIG    1        3.007   1.532   0.140  0.00  0.00    +0.064 S 
ATOM      4  O   LIG    1        2.331   2.043   1.316  0.00  0.00    -0.153 OA
ATOM      5  O   LIG    1        2.944   2.234  -1.122  0.00  0.00    -0.153 OA
ATOM      6  C   LIG    1        4.698   1.319   0.562  0.00  0.00    +0.128 A 
ATOM      7  C   LIG    1        5.175   0.039   0.835  0.00  0.00    +0.057 A 
ATOM      8  C   LIG    1        6.551  -0.092   1.069  0.00  0.00    +0.047 A 
ATOM      9  C   LIG    1        7.406   1.021   1.121  0.00  0.00    +0.069 A 
ATOM     10  C   LIG    1        6.883   2.297   0.905  0.00  0.00    +0.125 A 
ATOM     11 CL   LIG    1        9.072   0.698   1.439  0.00  0.00    -0.082 Cl
ATOM     12  N   LIG    1        4.396  -1.111   0.751  0.00  0.00    -0.325 N 
ATOM     13  H   LIG    1        4.759  -1.895   1.293  0.00  0.00    +0.148 HD
ATOM     14  C   LIG    1        5.523   2.450   0.613  0.00  0.00    +0.060 A 
ATOM     15  C   LIG    1        2.942  -1.027   0.846  0.00  0.00    +0.172 C 
ENDROOT
BRANCH  10  16
ATOM     16  S   LIG    1        7.892   3.741   1.009  0.00  0.00    +0.057 S 
ATOM     17  O   LIG    1        8.601   3.732   2.266  0.00  0.00    -0.153 OA
ATOM     18  O   LIG    1        7.114   4.881   0.585  0.00  0.00    -0.153 OA
BRANCH  16  19
ATOM     19  N   LIG    1        9.021   3.514  -0.208  0.00  0.00    -0.203 NA
ATOM     20  H   LIG    1        9.954   3.420   0.192  0.00  0.00    +0.144 HD
ATOM     21  H   LIG    1        8.943   4.259  -0.903  0.00  0.00    +0.144 HD
ENDBRANCH  16  19
ENDBRANCH  10  16
BRANCH  15  22
ATOM     22  C   LIG    1        2.458  -0.820   2.308  0.00  0.00    +0.109 C 
BRANCH  22  23
ATOM     23  S   LIG    1        3.032  -2.176   3.419  0.00  0.00    -0.149 S 
BRANCH  23  24
ATOM     24  C   LIG    1        2.280  -1.618   5.008  0.00  0.00    +0.182 C 
BRANCH  24  25
ATOM     25  C   LIG    1        0.755  -1.559   5.084  0.00  0.00    +0.399 C 
ATOM     26  F   LIG    1        0.341  -0.294   5.326  0.00  0.00    -0.170 F 
ATOM     27  F   LIG    1        0.291  -2.336   6.090  0.00  0.00    -0.170 F 
ATOM     28  F   LIG    1        0.150  -1.969   3.949  0.00  0.00    -0.170 F 
ENDBRANCH  24  25
ENDBRANCH  23  24
ENDBRANCH  22  23
ENDBRANCH  15  22
TORSDOF 6
