REMARK  Name = *****
REMARK                            x       y       z     vdW  Elec       q    Type
REMARK                         _______ _______ _______ _____ _____    ______ ____
ROOT
ATOM      1  C   LIG    1       13.719  -3.619  -6.998  0.00  0.00    +0.170 C 
ATOM      2  C   LIG    1       12.233  -3.932  -6.498  0.00  0.00    +0.097 C 
ATOM      3  C   LIG    1       12.042  -5.750  -6.867  0.00  0.00    +0.065 C 
ATOM      4  C   LIG    1       10.702  -6.583  -7.087  0.00  0.00    +0.174 C 
ATOM      5  C   LIG    1        9.309  -6.003  -7.876  0.00  0.00    +0.208 C 
ATOM      6  C   LIG    1        8.709  -4.746  -8.526  0.00  0.00    -0.023 C 
ATOM      7  C   LIG    1        8.304  -3.137  -7.948  0.00  0.00    +0.022 C 
ATOM      8  C   LIG    1        7.634  -2.691  -9.396  0.00  0.00    +0.019 C 
ATOM      9  C   LIG    1        6.976  -2.687  -7.207  0.00  0.00    +0.019 C 
ATOM     10  C   LIG    1        9.651  -2.151  -7.449  0.00  0.00    +0.116 C 
ATOM     11  C   LIG    1       10.491  -2.488  -8.608  0.00  0.00    +0.088 C 
ATOM     12  C   LIG    1       10.590  -3.967  -8.203  0.00  0.00    +0.205 C 
ATOM     13  C   LIG    1        9.834  -4.523  -9.303  0.00  0.00    -0.030 C 
ATOM     14  C   LIG    1       10.134  -5.170 -10.553  0.00  0.00    +0.043 C 
ATOM     15  O   LIG    1       10.728  -7.813  -6.818  0.00  0.00    -0.294 OA
ATOM     16  C   LIG    1       12.453  -6.438  -8.238  0.00  0.00    +0.022 C 
ATOM     17  C   LIG    1       12.967  -6.335  -5.671  0.00  0.00    +0.131 C 
ATOM     18  C   LIG    1       14.435  -5.753  -5.610  0.00  0.00    +0.068 C 
ATOM     19  C   LIG    1       11.090  -2.440  -6.340  0.00  0.00    +0.217 C 
ATOM     20  C   LIG    1       14.394  -4.220  -5.745  0.00  0.00    +0.167 C 
ATOM     21  O   LIG    1       15.536  -3.337  -5.919  0.00  0.00    -0.368 OA
ATOM     22  C   LIG    1       14.662  -2.408  -6.668  0.00  0.00    +0.211 C 
ENDROOT
BRANCH  10  23
ATOM     23  O   LIG    1        9.302  -0.769  -7.461  0.00  0.00    -0.384 OA
ATOM     24  H   LIG    1        8.400  -0.670  -7.824  0.00  0.00    +0.210 HD
ENDBRANCH  10  23
BRANCH   5  25
ATOM     25  O   LIG    1        8.992  -7.125  -8.690  0.00  0.00    -0.380 OA
ATOM     26  H   LIG    1        9.244  -7.909  -8.151  0.00  0.00    +0.211 HD
ENDBRANCH   5  25
BRANCH  17  27
ATOM     27  O   LIG    1       13.071  -7.754  -5.645  0.00  0.00    -0.391 OA
ATOM     28  H   LIG    1       12.161  -8.120  -5.726  0.00  0.00    +0.210 HD
ENDBRANCH  17  27
BRANCH  12  29
ATOM     29  O   LIG    1       10.011  -4.332  -6.423  0.00  0.00    -0.455 OA
BRANCH  29  30
ATOM     30  C   LIG    1        9.750  -5.240  -5.172  0.00  0.00    +0.339 C 
ATOM     31  O   LIG    1        9.917  -6.463  -5.101  0.00  0.00    -0.248 OA
BRANCH  30  32
ATOM     32  C   LIG    1        9.448  -4.870  -3.698  0.00  0.00    +0.247 C 
BRANCH  32  33
ATOM     33  O   LIG    1       10.143  -5.739  -2.721  0.00  0.00    -0.379 OA
ATOM     34  H   LIG    1       10.813  -6.264  -3.195  0.00  0.00    +0.211 HD
ENDBRANCH  32  33
BRANCH  32  35
ATOM     35  C   LIG    1        7.858  -4.918  -3.273  0.00  0.00    +0.146 C 
BRANCH  35  36
ATOM     36  C   LIG    1        7.065  -6.208  -2.886  0.00  0.00    -0.024 A 
ATOM     37  C   LIG    1        5.771  -6.627  -3.298  0.00  0.00    +0.005 A 
ATOM     38  C   LIG    1        5.232  -7.877  -2.940  0.00  0.00    +0.000 A 
ATOM     39  C   LIG    1        5.908  -8.658  -2.034  0.00  0.00    +0.000 A 
ATOM     40  C   LIG    1        7.100  -8.198  -1.510  0.00  0.00    +0.000 A 
ATOM     41  C   LIG    1        7.669  -7.018  -1.953  0.00  0.00    +0.005 A 
ENDBRANCH  35  36
BRANCH  35  42
ATOM     42  N   LIG    1        6.987  -3.991  -3.910  0.00  0.00    -0.271 N 
ATOM     43  H   LIG    1        6.469  -3.257  -3.435  0.00  0.00    +0.153 HD
ATOM     44  C   LIG    1        6.362  -4.440  -5.048  0.00  0.00    +0.401 C 
ATOM     45  O   LIG    1        5.370  -3.916  -5.401  0.00  0.00    -0.226 OA
BRANCH  44  46
ATOM     46  O   LIG    1        7.105  -5.407  -5.627  0.00  0.00    -0.445 OA
BRANCH  46  47
ATOM     47  C   LIG    1        6.615  -6.348  -6.610  0.00  0.00    +0.107 C 
ATOM     48  C   LIG    1        7.548  -7.584  -6.633  0.00  0.00    +0.055 C 
ATOM     49  C   LIG    1        6.257  -5.683  -7.940  0.00  0.00    +0.055 C 
ATOM     50  C   LIG    1        5.392  -7.064  -6.239  0.00  0.00    +0.055 C 
ENDBRANCH  46  47
ENDBRANCH  44  46
ENDBRANCH  35  42
ENDBRANCH  32  35
ENDBRANCH  30  32
ENDBRANCH  29  30
ENDBRANCH  12  29
BRANCH  19  51
ATOM     51  O   LIG    1       10.888  -2.014  -4.883  0.00  0.00    -0.455 OA
BRANCH  51  52
ATOM     52  C   LIG    1        9.734  -2.172  -4.247  0.00  0.00    +0.340 C 
ATOM     53  O   LIG    1        8.767  -2.767  -4.931  0.00  0.00    -0.245 OA
BRANCH  52  54
ATOM     54  C   LIG    1        9.371  -1.711  -2.867  0.00  0.00    +0.059 A 
ATOM     55  C   LIG    1        9.492  -0.341  -2.940  0.00  0.00    +0.015 A 
ATOM     56  C   LIG    1        8.923   0.471  -1.976  0.00  0.00    +0.001 A 
ATOM     57  C   LIG    1        8.241  -0.028  -0.867  0.00  0.00    +0.000 A 
ATOM     58  C   LIG    1        8.127  -1.385  -0.697  0.00  0.00    +0.001 A 
ATOM     59  C   LIG    1        8.645  -2.207  -1.708  0.00  0.00    +0.015 A 
ENDBRANCH  52  54
ENDBRANCH  51  52
ENDBRANCH  19  51
BRANCH   1  60
ATOM     60  O   LIG    1       14.057  -4.254  -8.303  0.00  0.00    -0.453 OA
BRANCH  60  62
ATOM     61  C   LIG    1       15.420  -5.922  -9.468  0.00  0.00    +0.136 C 
ATOM     62  C   LIG    1       15.268  -4.915  -8.392  0.00  0.00    +0.305 C 
ATOM     63  O   LIG    1       16.211  -4.837  -7.616  0.00  0.00    -0.251 OA
ENDBRANCH  60  62
ENDBRANCH   1  60
TORSDOF 17
