REMARK  Name = *****
REMARK                            x       y       z     vdW  Elec       q    Type
REMARK                         _______ _______ _______ _____ _____    ______ ____
ROOT
ATOM      1  C   LIG    1       -2.293  -1.271   0.303  0.00  0.00    +0.256 C 
ATOM      2  C   LIG    1       -3.551  -1.515   1.179  0.00  0.00    +0.048 C 
ATOM      3  C   LIG    1       -4.517  -0.327   1.109  0.00  0.00    +0.013 C 
ATOM      4  C   LIG    1       -3.109  -1.860   2.620  0.00  0.00    +0.037 C 
ATOM      5  C   LIG    1       -2.166  -3.101   2.624  0.00  0.00    +0.161 C 
ATOM      6  C   LIG    1       -2.843  -4.365   3.228  0.00  0.00    +0.032 C 
ATOM      7  C   LIG    1       -3.361  -4.119   4.677  0.00  0.00    -0.008 C 
ATOM      8  C   LIG    1       -4.487  -5.103   5.032  0.00  0.00    +0.008 C 
ATOM      9  C   LIG    1       -3.857  -2.676   4.890  0.00  0.00    +0.004 C 
ATOM     10  C   LIG    1       -1.938  -5.621   3.169  0.00  0.00    +0.012 C 
ATOM     11  C   LIG    1       -0.428  -5.384   3.337  0.00  0.00    +0.068 C 
ATOM     12  C   LIG    1        0.158  -4.343   2.355  0.00  0.00    +0.203 C 
ATOM     13  C   LIG    1        1.604  -4.694   2.015  0.00  0.00    +0.077 C 
ATOM     14  O   LIG    1        0.186  -3.028   2.915  0.00  0.00    -0.199 OA
ATOM     15  O   LIG    1       -0.583  -4.355   1.136  0.00  0.00    -0.314 OA
ATOM     16  C   LIG    1       -1.649  -3.402   1.181  0.00  0.00    +0.292 C 
ATOM     17  O   LIG    1       -1.100  -2.774   3.551  0.00  0.00    -0.220 OA
ATOM     18  C   LIG    1       -4.295  -2.022   3.586  0.00  0.00    +0.007 C 
ATOM     19  O   LIG    1       -1.251  -2.220   0.501  0.00  0.00    -0.319 OA
ENDROOT
BRANCH   1  21
ATOM     20  C   LIG    1       -0.738   0.416  -0.284  0.00  0.00    +0.197 C 
ATOM     21  O   LIG    1       -1.800   0.042   0.582  0.00  0.00    -0.354 OA
ENDBRANCH   1  21
TORSDOF 1
