REMARK  Name = *****
REMARK                            x       y       z     vdW  Elec       q    Type
REMARK                         _______ _______ _______ _____ _____    ______ ____
ROOT
ATOM      1  C   LIG    1        1.954  -5.210   5.568  0.00  0.00    +0.180 C 
ATOM      2  C   LIG    1        2.466  -5.936   7.031  0.00  0.00    +0.021 C 
ATOM      3  C   LIG    1        3.519  -4.958   7.651  0.00  0.00    +0.006 C 
ATOM      4  C   LIG    1        5.034  -5.305   7.548  0.00  0.00    +0.037 C 
ATOM      5  C   LIG    1        5.432  -6.786   7.602  0.00  0.00    +0.153 C 
ATOM      6  C   LIG    1        4.506  -7.613   6.682  0.00  0.00    +0.154 C 
ATOM      7  F   LIG    1        5.190  -7.223   8.887  0.00  0.00    -0.238 F 
ATOM      8  C   LIG    1        7.001  -6.960   7.327  0.00  0.00    +0.047 C 
ATOM      9  C   LIG    1        7.852  -6.008   8.222  0.00  0.00    -0.020 C 
ATOM     10  C   LIG    1        9.198  -6.026   8.057  0.00  0.00    +0.054 C 
ATOM     11  C   LIG    1        9.575  -5.706   6.627  0.00  0.00    +0.179 C 
ATOM     12  C   LIG    1        8.578  -6.044   5.568  0.00  0.00    +0.047 C 
ATOM     13  O   LIG    1       10.689  -5.285   6.344  0.00  0.00    -0.288 OA
ATOM     14  C   LIG    1        7.283  -4.618   8.459  0.00  0.00    +0.194 C 
ATOM     15  F   LIG    1        7.549  -3.817   7.383  0.00  0.00    -0.241 F 
ATOM     16  C   LIG    1        7.418  -8.434   7.578  0.00  0.00    +0.023 C 
ATOM     17  C   LIG    1        7.413  -6.643   5.879  0.00  0.00    -0.009 C 
ATOM     18  C   LIG    1        5.785  -4.562   8.674  0.00  0.00    +0.048 C 
ATOM     19  C   LIG    1        3.298  -3.649   6.887  0.00  0.00    +0.012 C 
ATOM     20  C   LIG    1        1.325  -6.110   8.084  0.00  0.00    +0.016 C 
ATOM     21  C   LIG    1        3.024  -7.389   6.956  0.00  0.00    +0.045 C 
ATOM     22  C   LIG    1        3.038  -4.083   5.442  0.00  0.00    +0.038 C 
ATOM     23  C   LIG    1        2.830  -2.820   4.609  0.00  0.00    +0.012 C 
ENDROOT
BRANCH   1  24
ATOM     24  C   LIG    1        0.434  -4.665   5.594  0.00  0.00    +0.192 C 
ATOM     25  O   LIG    1       -0.302  -4.894   6.564  0.00  0.00    -0.292 OA
BRANCH  24  26
ATOM     26  C   LIG    1       -0.212  -3.766   4.547  0.00  0.00    +0.187 C 
ATOM     27 CL   LIG    1       -0.606  -4.462   2.982  0.00  0.00    -0.117 Cl
ENDBRANCH  24  26
ENDBRANCH   1  24
BRANCH   6  28
ATOM     28  O   LIG    1        4.720  -9.020   6.882  0.00  0.00    -0.389 OA
ATOM     29  H   LIG    1        4.596  -9.199   7.837  0.00  0.00    +0.210 HD
ENDBRANCH   6  28
BRANCH   1  30
ATOM     30  O   LIG    1        2.091  -6.249   4.545  0.00  0.00    -0.450 OA
BRANCH  30  31
ATOM     31  C   LIG    1        2.281  -5.910   3.219  0.00  0.00    +0.308 C 
ATOM     32  O   LIG    1        2.236  -4.822   2.774  0.00  0.00    -0.251 OA
BRANCH  31  34
ATOM     33  C   LIG    1        3.339  -8.178   2.978  0.00  0.00    +0.015 C 
ATOM     34  C   LIG    1        2.508  -7.090   2.337  0.00  0.00    +0.117 C 
ENDBRANCH  31  34
ENDBRANCH  30  31
ENDBRANCH   1  30
TORSDOF 6
