REMARK  Name = *****
REMARK                            x       y       z     vdW  Elec       q    Type
REMARK                         _______ _______ _______ _____ _____    ______ ____
ROOT
ATOM      1  C   LIG    1        2.971  -0.538   1.252  0.00  0.00    +0.059 A 
ATOM      2  C   LIG    1        2.917  -1.913   1.503  0.00  0.00    +0.015 A 
ATOM      3  C   LIG    1        3.683  -2.460   2.533  0.00  0.00    +0.001 A 
ATOM      4  C   LIG    1        4.491  -1.635   3.315  0.00  0.00    +0.000 A 
ATOM      5  C   LIG    1        4.530  -0.259   3.079  0.00  0.00    +0.001 A 
ATOM      6  C   LIG    1        3.766   0.294   2.050  0.00  0.00    +0.015 A 
ENDROOT
BRANCH   1   8
ATOM      7  O   LIG    1        1.018  -0.373  -0.095  0.00  0.00    -0.245 OA
ATOM      8  C   LIG    1        2.147   0.011   0.150  0.00  0.00    +0.337 C 
BRANCH   8   9
ATOM      9  O   LIG    1        2.801   0.937  -0.582  0.00  0.00    -0.477 OA
ATOM     10  H   LIG    1        3.752   1.012  -0.381  0.00  0.00    +0.295 HD
ENDBRANCH   8   9
ENDBRANCH   1   8
TORSDOF 2
