REMARK  Name = *****
REMARK                            x       y       z     vdW  Elec       q    Type
REMARK                         _______ _______ _______ _____ _____    ______ ____
ROOT
ATOM      1  C   UNK    1       14.248   7.614  -9.686  0.00  0.00    +0.213 C 
ATOM      2  N   UNK    1       14.258   8.620  -8.755  0.00  0.00    -0.315 N 
ATOM      3  H   UNK    1       13.651   9.414  -8.872  0.00  0.00    +0.149 HD
ATOM      4  O   UNK    1       15.049   6.679  -9.651  0.00  0.00    -0.276 OA
ENDROOT
BRANCH   1   5
ATOM      5  C   UNK    1       13.177   7.675 -10.774  0.00  0.00    +0.096 C 
BRANCH   5   6
ATOM      6  C   UNK    1       12.190   8.852 -10.813  0.00  0.00    +0.009 C 
BRANCH   6   7
ATOM      7  C   UNK    1       12.773  10.227 -11.209  0.00  0.00    +0.003 C 
BRANCH   7   8
ATOM      8  C   UNK    1       13.418  10.221 -12.599  0.00  0.00    +0.028 C 
BRANCH   8   9
ATOM      9  C   UNK    1       14.022  11.557 -13.055  0.00  0.00    +0.160 C 
BRANCH   9  10
ATOM     10  O   UNK    1       14.588  11.373 -14.370  0.00  0.00    -0.378 OA
BRANCH  10  11
ATOM     11  C   UNK    1       15.188  12.571 -14.886  0.00  0.00    +0.188 C 
BRANCH  11  12
ATOM     12  C   UNK    1       15.807  12.357 -16.286  0.00  0.00    +0.187 C 
BRANCH  12  14
ATOM     13  C   UNK    1       16.992  13.482 -18.039  0.00  0.00    +0.194 C 
ATOM     14  O   UNK    1       16.388  13.584 -16.751  0.00  0.00    -0.381 OA
ENDBRANCH  12  14
ENDBRANCH  11  12
ENDBRANCH  10  11
ENDBRANCH   9  10
ENDBRANCH   8   9
ENDBRANCH   7   8
ENDBRANCH   6   7
ENDBRANCH   5   6
ENDBRANCH   1   5
BRANCH   2  15
ATOM     15  C   UNK    1       15.232   8.703  -7.684  0.00  0.00    +0.104 C 
BRANCH  15  16
ATOM     16  C   UNK    1       16.460   9.507  -8.113  0.00  0.00    +0.019 C 
BRANCH  16  17
ATOM     17  C   UNK    1       17.489   9.706  -7.000  0.00  0.00    +0.003 C 
BRANCH  17  18
ATOM     18  C   UNK    1       18.062   8.407  -6.426  0.00  0.00    +0.030 C 
BRANCH  18  19
ATOM     19  C   UNK    1       19.133   8.645  -5.353  0.00  0.00    +0.161 C 
BRANCH  19  20
ATOM     20  N   UNK    1       19.646   7.325  -4.859  0.00  0.00    -0.318 NA
ATOM     21  H   UNK    1       20.143   6.881  -5.639  0.00  0.00    +0.119 HD
ATOM     22  H   UNK    1       18.847   6.700  -4.702  0.00  0.00    +0.119 HD
ENDBRANCH  19  20
BRANCH  19  23
ATOM     23  C   UNK    1       18.612   9.450  -4.131  0.00  0.00    +0.322 C 
ATOM     24  O   UNK    1       18.081  10.535  -4.161  0.00  0.00    -0.249 OA
BRANCH  23  25
ATOM     25  O   UNK    1       18.859   8.781  -2.969  0.00  0.00    -0.479 OA
ATOM     26  H   UNK    1       19.380   7.981  -3.224  0.00  0.00    +0.295 HD
ENDBRANCH  23  25
ENDBRANCH  19  23
ENDBRANCH  18  19
ENDBRANCH  17  18
ENDBRANCH  16  17
ENDBRANCH  15  16
ENDBRANCH   2  15
TORSDOF 17
