REMARK  Name = *****
REMARK                            x       y       z     vdW  Elec       q    Type
REMARK                         _______ _______ _______ _____ _____    ______ ____
ROOT
ATOM      1  C   LIG    1        6.156   1.486  -2.006  0.00  0.00    -0.047 A 
ATOM      2  C   LIG    1        6.894   2.447  -2.709  0.00  0.00    +0.007 A 
ATOM      3  C   LIG    1        8.259   2.644  -2.431  0.00  0.00    +0.046 A 
ATOM      4  C   LIG    1        8.906   1.889  -1.445  0.00  0.00    +0.121 A 
ATOM      5  C   LIG    1        8.166   0.925  -0.760  0.00  0.00    +0.046 A 
ATOM      6  C   LIG    1        6.814   0.715  -1.046  0.00  0.00    +0.007 A 
ENDROOT
BRANCH   1   7
ATOM      7  C   LIG    1        4.661   1.341  -2.179  0.00  0.00    +0.046 C 
BRANCH   7   8
ATOM      8  C   LIG    1        3.928   2.310  -1.247  0.00  0.00    +0.125 C 
BRANCH   8   9
ATOM      9  C   LIG    1        2.419   2.237  -1.391  0.00  0.00    +0.307 C 
ATOM     10  O   LIG    1        1.757   1.278  -1.730  0.00  0.00    -0.251 OA
BRANCH   9  12
ATOM     11  C   LIG    1        0.509   3.564  -0.905  0.00  0.00    +0.280 C 
ATOM     12  O   LIG    1        1.936   3.474  -0.985  0.00  0.00    -0.468 OA
ENDBRANCH   9  12
ENDBRANCH   8   9
ENDBRANCH   7   8
ENDBRANCH   1   7
BRANCH   4  13
ATOM     13  O   LIG    1       10.244   2.149  -1.250  0.00  0.00    -0.489 OA
BRANCH  13  14
ATOM     14  C   LIG    1       10.865   1.492  -0.127  0.00  0.00    +0.261 C 
BRANCH  14  15
ATOM     15  C   LIG    1       12.397   1.471  -0.260  0.00  0.00    +0.166 C 
BRANCH  15  16
ATOM     16  O   LIG    1       12.752   0.781  -1.470  0.00  0.00    -0.387 OA
ATOM     17  H   LIG    1       12.233   1.196  -2.184  0.00  0.00    +0.210 HD
ENDBRANCH  15  16
BRANCH  15  18
ATOM     18  C   LIG    1       13.005   2.881  -0.258  0.00  0.00    +0.115 C 
BRANCH  18  19
ATOM     19  N   LIG    1       14.472   2.845  -0.367  0.00  0.00    -0.311 NA
ATOM     20  H   LIG    1       14.725   2.333  -1.216  0.00  0.00    +0.122 HD
BRANCH  19  21
ATOM     21  C   LIG    1       15.081   4.180  -0.339  0.00  0.00    +0.048 C 
ATOM     22  C   LIG    1       14.563   5.110  -1.440  0.00  0.00    +0.024 C 
ATOM     23  C   LIG    1       16.601   4.049  -0.459  0.00  0.00    +0.024 C 
ENDBRANCH  19  21
ENDBRANCH  18  19
ENDBRANCH  15  18
ENDBRANCH  14  15
ENDBRANCH  13  14
ENDBRANCH   4  13
TORSDOF 11
