REMARK  Name = *****
REMARK                            x       y       z     vdW  Elec       q    Type
REMARK                         _______ _______ _______ _____ _____    ______ ____
ROOT
ATOM      1  C   UNK    1        2.476  -0.634  -0.314  0.00  0.00    +0.170 C 
ENDROOT
BRANCH   1   2
ATOM      2  N   UNK    1        1.246  -1.487  -0.240  0.00  0.00    -0.318 NA
ATOM      3  H   UNK    1        1.122  -1.804   0.729  0.00  0.00    +0.119 HD
ATOM      4  H   UNK    1        0.438  -0.873  -0.390  0.00  0.00    +0.119 HD
ENDBRANCH   1   2
BRANCH   1   5
ATOM      5  C   UNK    1        3.696  -1.558  -0.444  0.00  0.00    +0.323 C 
ATOM      6  O   UNK    1        4.865  -1.174  -0.500  0.00  0.00    -0.249 OA
BRANCH   5   7
ATOM      7  O   UNK    1        3.345  -2.866  -0.497  0.00  0.00    -0.479 OA
ATOM      8  H   UNK    1        2.356  -2.888  -0.518  0.00  0.00    +0.295 HD
ENDBRANCH   5   7
ENDBRANCH   1   5
BRANCH   1   9
ATOM      9  C   UNK    1        2.648   0.264   0.926  0.00  0.00    +0.099 C 
BRANCH   9  10
ATOM     10  S   UNK    1        1.343   1.552   1.187  0.00  0.00    -0.147 S 
BRANCH  10  11
ATOM     11  C   UNK    1        1.564   2.601  -0.301  0.00  0.00    +0.189 C 
BRANCH  11  12
ATOM     12  C   UNK    1        0.651   3.821  -0.323  0.00  0.00    +0.315 C 
ATOM     13  O   UNK    1        0.601   4.584  -1.279  0.00  0.00    -0.250 OA
BRANCH  12  14
ATOM     14  O   UNK    1       -0.104   4.023   0.780  0.00  0.00    -0.480 OA
ATOM     15  H   UNK    1        0.060   3.339   1.463  0.00  0.00    +0.295 HD
ENDBRANCH  12  14
ENDBRANCH  11  12
ENDBRANCH  10  11
ENDBRANCH   9  10
ENDBRANCH   1   9
TORSDOF 8
