REMARK  Name = *****
REMARK                            x       y       z     vdW  Elec       q    Type
REMARK                         _______ _______ _______ _____ _____    ______ ____
ROOT
ATOM      1  C   LIG    1        4.011  -2.686   1.750  0.00  0.00    +0.201 C 
ATOM      2  C   LIG    1        3.443  -4.030   1.262  0.00  0.00    +0.067 C 
ATOM      3  C   LIG    1        3.515  -2.526   3.210  0.00  0.00    +0.067 C 
ENDROOT
BRANCH   1   4
ATOM      4  C   LIG    1        3.417  -1.457   1.020  0.00  0.00    +0.351 C 
ATOM      5  O   LIG    1        3.919  -0.348   0.986  0.00  0.00    -0.246 OA
BRANCH   4   6
ATOM      6  O   LIG    1        2.184  -1.768   0.516  0.00  0.00    -0.462 OA
BRANCH   6   8
ATOM      7  C   LIG    1        0.537  -0.486   1.660  0.00  0.00    +0.048 C 
ATOM      8  C   LIG    1        1.284  -0.669   0.350  0.00  0.00    +0.229 C 
ENDBRANCH   6   8
ENDBRANCH   4   6
ENDBRANCH   1   4
BRANCH   1   9
ATOM      9  O   LIG    1        5.445  -2.722   1.817  0.00  0.00    -0.475 OA
BRANCH   9  10
ATOM     10  C   LIG    1        6.175  -2.957   0.681  0.00  0.00    +0.122 A 
ATOM     11  C   LIG    1        5.795  -2.631  -0.622  0.00  0.00    +0.047 A 
ATOM     12  C   LIG    1        6.614  -2.958  -1.709  0.00  0.00    +0.023 A 
ATOM     13  C   LIG    1        7.837  -3.586  -1.494  0.00  0.00    +0.041 A 
ATOM     14 CL   LIG    1        8.837  -3.985  -2.835  0.00  0.00    -0.084 Cl
ATOM     15  C   LIG    1        8.249  -3.882  -0.199  0.00  0.00    +0.023 A 
ATOM     16  C   LIG    1        7.420  -3.564   0.885  0.00  0.00    +0.047 A 
ENDBRANCH   9  10
ENDBRANCH   1   9
TORSDOF 5
