REMARK  Name = *****
REMARK                            x       y       z     vdW  Elec       q    Type
REMARK                         _______ _______ _______ _____ _____    ______ ____
ROOT
ATOM      1  C   LIG    1        9.561  -3.937   2.586  0.00  0.00    +0.073 C 
ATOM      2  C   LIG    1        8.581  -3.199   3.503  0.00  0.00    +0.166 C 
ATOM      3  O   LIG    1        7.710  -2.357   2.649  0.00  0.00    -0.332 OA
ATOM      4  C   LIG    1        6.387  -2.667   3.111  0.00  0.00    +0.164 C 
ATOM      5  C   LIG    1        6.609  -4.142   3.403  0.00  0.00    +0.162 C 
ATOM      6  C   LIG    1        5.220  -4.730   3.587  0.00  0.00    +0.039 C 
ATOM      7  C   LIG    1        4.694  -4.223   2.227  0.00  0.00    +0.004 C 
ATOM      8  C   LIG    1        3.304  -4.475   1.660  0.00  0.00    -0.000 C 
ATOM      9  C   LIG    1        3.346  -4.133   0.124  0.00  0.00    +0.035 C 
ATOM     10  C   LIG    1        4.067  -2.759  -0.183  0.00  0.00    +0.120 C 
ATOM     11  C   LIG    1        5.295  -2.371   0.699  0.00  0.00    +0.042 C 
ATOM     12  C   LIG    1        3.827  -5.312  -0.840  0.00  0.00    +0.013 C 
ATOM     13  C   LIG    1        3.406  -6.713  -0.337  0.00  0.00    -0.056 C 
ATOM     14  C   LIG    1        3.729  -7.787  -1.097  0.00  0.00    +0.051 C 
ATOM     15  C   LIG    1        5.231  -7.864  -1.265  0.00  0.00    +0.179 C 
ATOM     16  C   LIG    1        5.979  -6.571  -1.260  0.00  0.00    +0.047 C 
ATOM     17  O   LIG    1        5.796  -8.927  -1.485  0.00  0.00    -0.288 OA
ATOM     18  C   LIG    1        3.483  -6.945   1.157  0.00  0.00    +0.032 C 
ATOM     19  C   LIG    1        3.159  -5.047  -2.223  0.00  0.00    +0.020 C 
ATOM     20  C   LIG    1        5.335  -5.399  -1.096  0.00  0.00    -0.012 C 
ATOM     21  C   LIG    1        2.747  -5.870   1.925  0.00  0.00    +0.008 C 
ATOM     22  C   LIG    1        5.102  -2.702   2.185  0.00  0.00    +0.012 C 
ATOM     23  C   LIG    1        3.973  -1.805   2.777  0.00  0.00    +0.015 C 
ATOM     24  O   LIG    1        7.741  -4.149   4.230  0.00  0.00    -0.343 OA
ATOM     25  C   LIG    1        9.362  -2.360   4.510  0.00  0.00    +0.073 C 
ENDROOT
BRANCH  10  26
ATOM     26  O   LIG    1        3.109  -1.701  -0.075  0.00  0.00    -0.391 OA
ATOM     27  H   LIG    1        2.417  -1.849  -0.742  0.00  0.00    +0.210 HD
ENDBRANCH  10  26
BRANCH   4  28
ATOM     28  C   LIG    1        6.175  -1.788   4.375  0.00  0.00    +0.193 C 
ATOM     29  O   LIG    1        5.719  -2.218   5.439  0.00  0.00    -0.292 OA
BRANCH  28  30
ATOM     30  C   LIG    1        6.532  -0.303   4.246  0.00  0.00    +0.233 C 
BRANCH  30  31
ATOM     31  O   LIG    1        5.907   0.466   5.265  0.00  0.00    -0.387 OA
ATOM     32  H   LIG    1        5.828  -0.126   6.040  0.00  0.00    +0.210 HD
ENDBRANCH  30  31
ENDBRANCH  28  30
ENDBRANCH   4  28
TORSDOF 4
