REMARK  Name = *****
REMARK                            x       y       z     vdW  Elec       q    Type
REMARK                         _______ _______ _______ _____ _____    ______ ____
ROOT
ATOM      1  C   LIG    1        2.366  11.862  -0.036  0.00  0.00    +0.167 A 
ATOM      2  S   LIG    1        3.227  12.712  -1.213  0.00  0.00    -0.037 S 
ATOM      3  C   LIG    1        2.863  14.217  -0.410  0.00  0.00    +0.098 A 
ATOM      4  C   LIG    1        2.210  13.893   0.789  0.00  0.00    +0.108 A 
ATOM      5  N   LIG    1        1.848  12.566   0.933  0.00  0.00    -0.222 NA
ENDROOT
BRANCH   3   6
ATOM      6  N   LIG    1        3.155  15.449  -0.982  0.00  0.00    -0.320 N 
ATOM      7  C   LIG    1        1.975  16.128  -1.594  0.00  0.00    +0.121 C 
ATOM      8  C   LIG    1        2.324  17.496  -2.244  0.00  0.00    +0.103 C 
ATOM      9  N   LIG    1        3.501  17.530  -3.153  0.00  0.00    -0.296 NA
ATOM     10  C   LIG    1        4.621  16.942  -2.372  0.00  0.00    +0.103 C 
ATOM     11  C   LIG    1        4.356  15.515  -1.848  0.00  0.00    +0.121 C 
BRANCH   9  12
ATOM     12  C   LIG    1        3.289  16.887  -4.478  0.00  0.00    +0.057 C 
ATOM     13  C   LIG    1        2.114  17.492  -5.292  0.00  0.00    +0.019 C 
ATOM     14  C   LIG    1        2.370  18.930  -5.747  0.00  0.00    +0.002 C 
ATOM     15  C   LIG    1        3.656  19.047  -6.560  0.00  0.00    +0.000 C 
ATOM     16  C   LIG    1        4.843  18.421  -5.835  0.00  0.00    +0.002 C 
ATOM     17  C   LIG    1        4.536  16.985  -5.402  0.00  0.00    +0.019 C 
ENDBRANCH   9  12
ENDBRANCH   3   6
BRANCH   4  18
ATOM     18  C   LIG    1        1.868  14.839   1.906  0.00  0.00    +0.041 A 
ATOM     19  S   LIG    1        2.679  16.305   2.232  0.00  0.00    -0.094 S 
ATOM     20  C   LIG    1        1.675  16.636   3.575  0.00  0.00    +0.065 A 
ATOM     21  C   LIG    1        0.732  15.653   3.766  0.00  0.00    +0.049 A 
ATOM     22 CL   LIG    1       -0.490  15.698   4.960  0.00  0.00    -0.083 Cl
ATOM     23  C   LIG    1        0.879  14.583   2.839  0.00  0.00    +0.037 A 
ENDBRANCH   4  18
BRANCH   1  25
ATOM     24  C   LIG    1        1.434   9.720   0.451  0.00  0.00    +0.251 C 
ATOM     25  N   LIG    1        2.308  10.512  -0.243  0.00  0.00    -0.261 N 
ATOM     26  H   LIG    1        2.946  10.153  -0.935  0.00  0.00    +0.157 HD
ATOM     27  O   LIG    1        0.601  10.078   1.280  0.00  0.00    -0.270 OA
BRANCH  24  32
ATOM     28  C   LIG    1        1.764   5.523  -0.184  0.00  0.00    +0.140 A 
ATOM     29  C   LIG    1        2.090   6.407  -1.235  0.00  0.00    +0.082 A 
ATOM     30 CL   LIG    1        2.855   5.959  -2.726  0.00  0.00    -0.080 Cl
ATOM     31  C   LIG    1        1.935   7.782  -1.070  0.00  0.00    +0.038 A 
ATOM     32  C   LIG    1        1.515   8.280   0.156  0.00  0.00    +0.057 A 
ATOM     33  C   LIG    1        1.194   7.368   1.145  0.00  0.00    +0.126 A 
ATOM     34  N   LIG    1        1.318   6.027   0.997  0.00  0.00    -0.238 NA
BRANCH  28  38
ATOM     35  C   LIG    1        3.462   1.806  -0.568  0.00  0.00    +0.101 C 
ATOM     36  C   LIG    1        2.943   2.619  -1.765  0.00  0.00    +0.033 C 
ATOM     37  C   LIG    1        1.645   3.359  -1.433  0.00  0.00    +0.107 C 
ATOM     38  N   LIG    1        1.898   4.156  -0.244  0.00  0.00    -0.314 N 
ATOM     39  C   LIG    1        2.161   3.383   0.966  0.00  0.00    +0.107 C 
ATOM     40  C   LIG    1        3.474   2.622   0.736  0.00  0.00    +0.033 C 
BRANCH  35  42
ATOM     41  O   LIG    1        1.462   0.421  -0.620  0.00  0.00    -0.251 OA
ATOM     42  C   LIG    1        2.654   0.530  -0.399  0.00  0.00    +0.308 C 
BRANCH  42  43
ATOM     43  O   LIG    1        3.392  -0.512   0.044  0.00  0.00    -0.480 OA
ATOM     44  H   LIG    1        4.339  -0.318   0.170  0.00  0.00    +0.295 HD
ENDBRANCH  42  43
ENDBRANCH  35  42
ENDBRANCH  28  38
ENDBRANCH  24  32
ENDBRANCH   1  25
TORSDOF 8
