REMARK  Name = *****
REMARK                            x       y       z     vdW  Elec       q    Type
REMARK                         _______ _______ _______ _____ _____    ______ ____
ROOT
ATOM      1  C   LIG    1        6.117   0.593  -0.480  0.00  0.00    +0.179 C 
ATOM      2  C   LIG    1        6.421   0.154  -1.918  0.00  0.00    +0.179 C 
ATOM      3  C   LIG    1        7.743   0.862  -2.190  0.00  0.00    +0.202 C 
ATOM      4  C   LIG    1        7.488   2.204  -1.495  0.00  0.00    +0.293 C 
ATOM      5  O   LIG    1        6.828   1.845  -0.272  0.00  0.00    -0.340 OA
ENDROOT
BRANCH   2   6
ATOM      6  O   LIG    1        5.433   0.642  -2.840  0.00  0.00    -0.386 OA
ATOM      7  H   LIG    1        5.272   1.586  -2.642  0.00  0.00    +0.210 HD
ENDBRANCH   2   6
BRANCH   3   8
ATOM      8  O   LIG    1        8.075   0.947  -3.574  0.00  0.00    -0.384 OA
ATOM      9  H   LIG    1        7.216   0.899  -4.063  0.00  0.00    +0.210 HD
ENDBRANCH   3   8
BRANCH   1  10
ATOM     10  C   LIG    1        6.623  -0.407   0.561  0.00  0.00    +0.206 C 
BRANCH  10  11
ATOM     11  O   LIG    1        6.372   0.103   1.864  0.00  0.00    -0.284 OA
BRANCH  11  13
ATOM     12  O   LIG    1        7.949  -1.738   2.885  0.00  0.00    -0.228 OA
ATOM     13  P   LIG    1        6.790  -0.826   3.096  0.00  0.00    +0.472 P 
BRANCH  13  14
ATOM     14  O   LIG    1        7.004   0.205   4.293  0.00  0.00    -0.303 OA
ATOM     15  H   LIG    1        7.900   0.587   4.272  0.00  0.00    +0.222 HD
ENDBRANCH  13  14
BRANCH  13  16
ATOM     16  O   LIG    1        5.446  -1.560   3.521  0.00  0.00    -0.303 OA
ATOM     17  H   LIG    1        5.601  -2.159   4.272  0.00  0.00    +0.222 HD
ENDBRANCH  13  16
ENDBRANCH  11  13
ENDBRANCH  10  11
ENDBRANCH   1  10
BRANCH   4  18
ATOM     18  O   LIG    1        6.604   3.050  -2.199  0.00  0.00    -0.254 OA
BRANCH  18  19
ATOM     19  P   LIG    1        7.022   3.648  -3.620  0.00  0.00    +0.486 P 
ATOM     20  O   LIG    1        6.725   2.745  -4.777  0.00  0.00    -0.227 OA
BRANCH  19  21
ATOM     21  O   LIG    1        6.053   4.922  -3.682  0.00  0.00    -0.302 OA
ATOM     22  H   LIG    1        5.219   4.695  -4.131  0.00  0.00    +0.222 HD
ENDBRANCH  19  21
BRANCH  19  23
ATOM     23  O   LIG    1        8.460   4.282  -3.519  0.00  0.00    -0.186 OA
BRANCH  23  24
ATOM     24  P   LIG    1        9.848   3.565  -3.792  0.00  0.00    +0.481 P 
ATOM     25  O   LIG    1       10.492   2.878  -2.644  0.00  0.00    -0.227 OA
BRANCH  24  26
ATOM     26  O   LIG    1       10.752   4.747  -4.378  0.00  0.00    -0.302 OA
ATOM     27  H   LIG    1       11.697   4.524  -4.320  0.00  0.00    +0.222 HD
ENDBRANCH  24  26
BRANCH  24  28
ATOM     28  O   LIG    1        9.643   2.642  -5.073  0.00  0.00    -0.302 OA
ATOM     29  H   LIG    1        9.190   1.801  -4.833  0.00  0.00    +0.222 HD
ENDBRANCH  24  28
ENDBRANCH  23  24
ENDBRANCH  19  23
ENDBRANCH  18  19
ENDBRANCH   4  18
TORSDOF 14
