REMARK  Name = *****
REMARK                            x       y       z     vdW  Elec       q    Type
REMARK                         _______ _______ _______ _____ _____    ______ ____
ROOT
ATOM      1  C   LIG    1        4.335   0.626  -0.908  0.00  0.00    +0.299 A 
ATOM      2  N   LIG    1        5.551  -0.024  -0.836  0.00  0.00    -0.289 N 
ATOM      3  C   LIG    1        6.554   0.941  -0.806  0.00  0.00    +0.086 A 
ATOM      4  C   LIG    1        5.823   2.129  -0.981  0.00  0.00    +0.093 A 
ATOM      5  C   LIG    1        6.475   3.373  -1.076  0.00  0.00    +0.030 A 
ATOM      6  C   LIG    1        7.860   3.424  -0.998  0.00  0.00    +0.003 A 
ATOM      7  C   LIG    1        8.588   2.256  -0.781  0.00  0.00    +0.017 A 
ATOM      8  C   LIG    1        7.970   0.990  -0.648  0.00  0.00    +0.085 A 
ATOM      9  N   LIG    1        4.477   1.920  -1.013  0.00  0.00    -0.195 NA
ENDROOT
BRANCH   8  10
ATOM     10  C   LIG    1        8.809  -0.186  -0.295  0.00  0.00    +0.344 C 
ATOM     11  O   LIG    1        8.399  -1.333  -0.283  0.00  0.00    -0.245 OA
BRANCH  10  12
ATOM     12  O   LIG    1       10.067   0.155   0.091  0.00  0.00    -0.421 OA
BRANCH  12  13
ATOM     13  C   LIG    1       10.746  -0.909   0.777  0.00  0.00    +0.371 C 
ATOM     14  C   LIG    1       11.287  -1.934  -0.220  0.00  0.00    +0.101 C 
BRANCH  13  15
ATOM     15  O   LIG    1       11.892  -0.477   1.527  0.00  0.00    -0.394 OA
BRANCH  15  16
ATOM     16  C   LIG    1       11.665   0.438   2.492  0.00  0.00    +0.513 C 
ATOM     17  O   LIG    1       10.645   1.097   2.642  0.00  0.00    -0.203 OA
BRANCH  16  18
ATOM     18  O   LIG    1       12.776   0.497   3.265  0.00  0.00    -0.430 OA
BRANCH  18  19
ATOM     19  C   LIG    1       12.905   1.645   4.120  0.00  0.00    +0.180 C 
ATOM     20  C   LIG    1       13.470   1.216   5.481  0.00  0.00    +0.045 C 
ATOM     21  C   LIG    1       14.929   0.764   5.423  0.00  0.00    +0.003 C 
ATOM     22  C   LIG    1       15.807   1.795   4.721  0.00  0.00    +0.000 C 
ATOM     23  C   LIG    1       15.273   2.109   3.329  0.00  0.00    +0.003 C 
ATOM     24  C   LIG    1       13.834   2.626   3.397  0.00  0.00    +0.045 C 
ENDBRANCH  18  19
ENDBRANCH  16  18
ENDBRANCH  15  16
ENDBRANCH  13  15
ENDBRANCH  12  13
ENDBRANCH  10  12
ENDBRANCH   8  10
BRANCH   1  25
ATOM     25  O   LIG    1        3.171  -0.021  -0.913  0.00  0.00    -0.464 OA
BRANCH  25  27
ATOM     26  C   LIG    1        0.803   0.286  -1.154  0.00  0.00    +0.048 C 
ATOM     27  C   LIG    1        2.057   0.730  -0.424  0.00  0.00    +0.229 C 
ENDBRANCH  25  27
ENDBRANCH   1  25
BRANCH   2  28
ATOM     28  C   LIG    1        5.618  -1.475  -0.787  0.00  0.00    +0.162 C 
BRANCH  28  29
ATOM     29  C   LIG    1        5.707  -2.101  -2.161  0.00  0.00    -0.028 A 
ATOM     30  C   LIG    1        4.604  -2.788  -2.678  0.00  0.00    +0.006 A 
ATOM     31  C   LIG    1        4.667  -3.402  -3.933  0.00  0.00    +0.009 A 
ATOM     32  C   LIG    1        5.820  -3.328  -4.735  0.00  0.00    -0.017 A 
ATOM     33  C   LIG    1        6.902  -2.594  -4.231  0.00  0.00    +0.009 A 
ATOM     34  C   LIG    1        6.857  -2.015  -2.956  0.00  0.00    +0.006 A 
BRANCH  32  35
ATOM     35  C   LIG    1        5.847  -3.973  -6.070  0.00  0.00    -0.007 A 
ATOM     36  C   LIG    1        6.892  -4.801  -6.558  0.00  0.00    +0.028 A 
ATOM     37  C   LIG    1        6.784  -5.344  -7.859  0.00  0.00    +0.012 A 
ATOM     38  C   LIG    1        5.673  -5.107  -8.666  0.00  0.00    +0.001 A 
ATOM     39  C   LIG    1        4.649  -4.301  -8.198  0.00  0.00    +0.001 A 
ATOM     40  C   LIG    1        4.743  -3.736  -6.926  0.00  0.00    +0.009 A 
BRANCH  36  41
ATOM     41  C   LIG    1        8.106  -5.162  -5.817  0.00  0.00    +0.180 A 
ATOM     42  N   LIG    1        8.209  -5.352  -4.465  0.00  0.00    -0.239 N 
ATOM     43  H   LIG    1        7.509  -5.252  -3.742  0.00  0.00    +0.192 HD
ATOM     44  N   LIG    1        9.464  -5.684  -4.131  0.00  0.00    -0.046 NA
ATOM     45  N   LIG    1       10.123  -5.729  -5.277  0.00  0.00    -0.023 NA
ATOM     46  N   LIG    1        9.297  -5.421  -6.329  0.00  0.00    -0.108 NA
ENDBRANCH  36  41
ENDBRANCH  32  35
ENDBRANCH  28  29
ENDBRANCH   2  28
TORSDOF 13
