REMARK  Name = *****
REMARK                            x       y       z     vdW  Elec       q    Type
REMARK                         _______ _______ _______ _____ _____    ______ ____
ROOT
ATOM      1  O   LIG    1        1.046   0.153  -0.090  0.00  0.00    -0.268 OA
ATOM      2  C   LIG    1        2.266   0.082  -0.073  0.00  0.00    +0.252 C 
ATOM      3  N   LIG    1        3.005  -1.080  -0.325  0.00  0.00    -0.312 N 
ATOM      4  C   LIG    1        2.232  -2.272  -0.639  0.00  0.00    +0.130 C 
ATOM      5  C   LIG    1        3.008  -3.588  -0.574  0.00  0.00    +0.023 C 
ATOM      6  C   LIG    1        4.275  -3.414  -1.397  0.00  0.00    +0.017 C 
ATOM      7  C   LIG    1        5.139  -2.397  -0.657  0.00  0.00    +0.050 C 
ATOM      8  C   LIG    1        5.610  -3.074   0.644  0.00  0.00    +0.090 C 
ATOM      9  N   LIG    1        4.528  -3.517   1.522  0.00  0.00    -0.315 NA
ATOM     10  H   LIG    1        4.884  -4.208   2.183  0.00  0.00    +0.122 HD
ATOM     11  C   LIG    1        3.319  -4.027   0.874  0.00  0.00    +0.086 C 
ATOM     12  C   LIG    1        4.403  -1.091  -0.369  0.00  0.00    +0.026 C 
ATOM     13  C   LIG    1        5.081   0.046  -0.127  0.00  0.00    +0.022 C 
ATOM     14  C   LIG    1        4.391   1.267   0.198  0.00  0.00    +0.007 C 
ATOM     15  C   LIG    1        3.056   1.305   0.232  0.00  0.00    +0.070 C 
ENDROOT
TORSDOF 0
