REMARK  Name = *****
REMARK                            x       y       z     vdW  Elec       q    Type
REMARK                         _______ _______ _______ _____ _____    ______ ____
ROOT
ATOM      1  C   LIG    1        4.914   1.207   0.161  0.00  0.00    +0.077 A 
ATOM      2  C   LIG    1        5.416   1.211   1.456  0.00  0.00    +0.125 A 
ATOM      3  N   LIG    1        6.723   1.012   1.763  0.00  0.00    -0.262 NA
ATOM      4  C   LIG    1        7.565   0.800   0.728  0.00  0.00    +0.111 A 
ATOM      5  C   LIG    1        7.162   0.773  -0.598  0.00  0.00    +0.020 A 
ATOM      6  C   LIG    1        5.814   0.980  -0.885  0.00  0.00    +0.018 A 
ENDROOT
BRANCH   1   7
ATOM      7  C   LIG    1        3.468   1.459  -0.038  0.00  0.00    +0.340 C 
ATOM      8  O   LIG    1        2.687   1.662   0.876  0.00  0.00    -0.245 OA
BRANCH   7  10
ATOM      9  C   LIG    1        1.798   1.704  -1.669  0.00  0.00    +0.280 C 
ATOM     10  O   LIG    1        3.169   1.439  -1.360  0.00  0.00    -0.464 OA
ENDBRANCH   7  10
ENDBRANCH   1   7
TORSDOF 2
