REMARK  Name = *****
REMARK                            x       y       z     vdW  Elec       q    Type
REMARK                         _______ _______ _______ _____ _____    ______ ____
ROOT
ATOM      1  C   LIG    1        0.233   0.432  -3.355  0.00  0.00    -0.000 A 
ATOM      2  C   LIG    1       -0.940   0.129  -2.667  0.00  0.00    +0.010 A 
ATOM      3  C   LIG    1       -2.166   0.088  -3.345  0.00  0.00    +0.009 A 
ATOM      4  C   LIG    1       -2.260   0.357  -4.723  0.00  0.00    -0.018 A 
ATOM      5  C   LIG    1       -1.068   0.654  -5.397  0.00  0.00    +0.009 A 
ATOM      6  C   LIG    1        0.155   0.686  -4.729  0.00  0.00    +0.010 A 
ENDROOT
BRANCH   1  10
ATOM      7  C   LIG    1        3.720   0.741  -2.486  0.00  0.00    +0.128 A 
ATOM      8  N   LIG    1        2.608   1.134  -3.172  0.00  0.00    -0.340 N 
ATOM      9  H   LIG    1        2.625   1.719  -3.993  0.00  0.00    +0.167 HD
ATOM     10  C   LIG    1        1.525   0.444  -2.688  0.00  0.00    +0.066 A 
ATOM     11  C   LIG    1        2.025  -0.193  -1.569  0.00  0.00    +0.139 A 
ATOM     12  N   LIG    1        3.378   0.013  -1.441  0.00  0.00    -0.238 NA
BRANCH   7  15
ATOM     13  C   LIG    1        5.185   0.299  -5.287  0.00  0.00    +0.237 C 
ATOM     14  N   LIG    1        5.190   1.358  -4.386  0.00  0.00    -0.290 N 
ATOM     15  C   LIG    1        5.098   1.094  -2.937  0.00  0.00    +0.142 C 
ATOM     16  C   LIG    1        5.609   2.384  -2.276  0.00  0.00    +0.032 C 
ATOM     17  C   LIG    1        5.494   3.444  -3.359  0.00  0.00    +0.021 C 
ATOM     18  C   LIG    1        5.792   2.658  -4.612  0.00  0.00    +0.108 C 
ATOM     19  O   LIG    1        4.647  -0.777  -5.012  0.00  0.00    -0.274 OA
BRANCH  13  20
ATOM     20  C   LIG    1        5.911   0.479  -6.655  0.00  0.00    +0.165 C 
BRANCH  20  22
ATOM     21  C   LIG    1        7.695  -1.026  -7.505  0.00  0.00    +0.401 C 
ATOM     22  N   LIG    1        6.451  -0.848  -6.964  0.00  0.00    -0.270 N 
ATOM     23  H   LIG    1        5.997  -1.658  -6.558  0.00  0.00    +0.153 HD
ATOM     24  O   LIG    1        8.359  -0.171  -8.027  0.00  0.00    -0.227 OA
BRANCH  21  26
ATOM     25  C   LIG    1        9.501  -2.482  -7.420  0.00  0.00    +0.282 C 
ATOM     26  O   LIG    1        8.092  -2.306  -7.267  0.00  0.00    -0.454 OA
ENDBRANCH  21  26
ENDBRANCH  20  22
BRANCH  20  27
ATOM     27  C   LIG    1        5.014   0.986  -7.804  0.00  0.00    +0.012 C 
ATOM     28  C   LIG    1        5.805   1.115  -9.113  0.00  0.00    +0.009 C 
ATOM     29  C   LIG    1        4.386   2.347  -7.523  0.00  0.00    +0.009 C 
ENDBRANCH  20  27
ENDBRANCH  13  20
ENDBRANCH   7  15
ENDBRANCH   1  10
BRANCH   4  30
ATOM     30  C   LIG    1       -3.554   0.359  -5.438  0.00  0.00    -0.018 A 
ATOM     31  C   LIG    1       -3.652   0.042  -6.806  0.00  0.00    +0.009 A 
ATOM     32  C   LIG    1       -4.871   0.109  -7.493  0.00  0.00    +0.010 A 
ATOM     33  C   LIG    1       -6.040   0.478  -6.828  0.00  0.00    -0.000 A 
ATOM     34  C   LIG    1       -5.957   0.764  -5.460  0.00  0.00    +0.010 A 
ATOM     35  C   LIG    1       -4.738   0.716  -4.782  0.00  0.00    +0.009 A 
BRANCH  33  36
ATOM     36  C   LIG    1       -7.321   0.540  -7.524  0.00  0.00    +0.066 A 
ATOM     37  N   LIG    1       -8.500   0.893  -6.912  0.00  0.00    -0.340 N 
ATOM     38  H   LIG    1       -8.607   1.183  -5.952  0.00  0.00    +0.167 HD
ATOM     39  C   LIG    1       -9.528   0.714  -7.796  0.00  0.00    +0.128 A 
ATOM     40  N   LIG    1       -9.062   0.383  -8.983  0.00  0.00    -0.238 NA
ATOM     41  C   LIG    1       -7.703   0.300  -8.831  0.00  0.00    +0.139 A 
BRANCH  39  42
ATOM     42  C   LIG    1      -10.951   0.866  -7.360  0.00  0.00    +0.142 C 
ATOM     43  N   LIG    1      -11.781   1.181  -8.517  0.00  0.00    -0.290 N 
ATOM     44  C   LIG    1      -11.939   2.502  -8.904  0.00  0.00    +0.237 C 
ATOM     45  O   LIG    1      -11.194   3.381  -8.465  0.00  0.00    -0.274 OA
ATOM     46  C   LIG    1      -12.629   0.055  -8.863  0.00  0.00    +0.108 C 
ATOM     47  C   LIG    1      -12.044  -1.128  -8.109  0.00  0.00    +0.021 C 
ATOM     48  C   LIG    1      -11.537  -0.457  -6.837  0.00  0.00    +0.032 C 
BRANCH  44  49
ATOM     49  C   LIG    1      -13.254   2.851  -9.666  0.00  0.00    +0.165 C 
BRANCH  49  50
ATOM     50  N   LIG    1      -14.246   3.339  -8.685  0.00  0.00    -0.270 N 
ATOM     51  H   LIG    1      -14.919   4.035  -8.966  0.00  0.00    +0.153 HD
ATOM     52  C   LIG    1      -14.399   2.858  -7.414  0.00  0.00    +0.401 C 
ATOM     53  O   LIG    1      -13.559   2.278  -6.751  0.00  0.00    -0.227 OA
BRANCH  52  54
ATOM     54  O   LIG    1      -15.652   3.115  -6.957  0.00  0.00    -0.454 OA
ATOM     55  C   LIG    1      -15.910   2.523  -5.673  0.00  0.00    +0.282 C 
ENDBRANCH  52  54
ENDBRANCH  49  50
BRANCH  49  56
ATOM     56  C   LIG    1      -13.040   3.887 -10.813  0.00  0.00    +0.012 C 
ATOM     57  C   LIG    1      -12.550   5.255 -10.329  0.00  0.00    +0.009 C 
ATOM     58  C   LIG    1      -14.329   4.109 -11.628  0.00  0.00    +0.009 C 
ENDBRANCH  49  56
ENDBRANCH  44  49
ENDBRANCH  39  42
ENDBRANCH  33  36
ENDBRANCH   4  30
TORSDOF 13
