REMARK  Name = *****
REMARK                            x       y       z     vdW  Elec       q    Type
REMARK                         _______ _______ _______ _____ _____    ______ ____
ROOT
ATOM      1  C   LIG    1        2.142  -1.499   0.008  0.00  0.00    +0.158 A 
ATOM      2  N   LIG    1        3.418  -1.023  -0.134  0.00  0.00    -0.337 N 
ATOM      3  H   LIG    1        3.652  -0.048  -0.250  0.00  0.00    +0.167 HD
ATOM      4  C   LIG    1        4.281  -2.085  -0.089  0.00  0.00    +0.067 A 
ATOM      5  C   LIG    1        3.451  -3.188   0.083  0.00  0.00    +0.089 A 
ATOM      6  C   LIG    1        4.021  -4.466   0.171  0.00  0.00    +0.030 A 
ATOM      7  C   LIG    1        5.414  -4.588   0.081  0.00  0.00    +0.002 A 
ATOM      8  C   LIG    1        6.222  -3.461  -0.093  0.00  0.00    +0.002 A 
ATOM      9  C   LIG    1        5.671  -2.177  -0.182  0.00  0.00    +0.028 A 
ATOM     10  N   LIG    1        2.130  -2.810   0.142  0.00  0.00    -0.226 NA
ENDROOT
BRANCH   1  14
ATOM     11  C   LIG    1       -0.120   1.305  -0.115  0.00  0.00    +0.156 A 
ATOM     12  S   LIG    1       -1.442   0.229   0.091  0.00  0.00    -0.083 S 
ATOM     13  C   LIG    1       -0.339  -1.083   0.146  0.00  0.00    +0.078 A 
ATOM     14  C   LIG    1        0.949  -0.611   0.004  0.00  0.00    +0.113 A 
ATOM     15  N   LIG    1        1.078   0.761  -0.146  0.00  0.00    -0.244 NA
ENDBRANCH   1  14
TORSDOF 1
