REMARK  Name = *****
REMARK                            x       y       z     vdW  Elec       q    Type
REMARK                         _______ _______ _______ _____ _____    ______ ____
ROOT
ATOM      1 CL   LIG    1        0.931  -0.010  -0.034  0.00  0.00    -0.084 Cl
ATOM      2  C   LIG    1        2.652   0.004  -0.028  0.00  0.00    +0.041 A 
ATOM      3  C   LIG    1        3.334   1.166  -0.394  0.00  0.00    +0.024 A 
ATOM      4  C   LIG    1        4.735   1.186  -0.392  0.00  0.00    -0.038 A 
ATOM      5  C   LIG    1        5.499   2.444  -0.727  0.00  0.00    +0.040 C 
ATOM      6  C   LIG    1        6.201   3.036   0.502  0.00  0.00    +0.042 C 
ATOM      7  C   LIG    1        7.287   2.246   1.207  0.00  0.00    -0.021 A 
ATOM      8  C   LIG    1        7.620   0.903   0.977  0.00  0.00    +0.075 A 
ATOM      9  C   LIG    1        6.923   0.063  -0.035  0.00  0.00    +0.007 C 
ATOM     10  C   LIG    1        7.609  -0.600  -1.006  0.00  0.00    -0.057 C 
ATOM     11  C   LIG    1        9.124  -0.604  -1.170  0.00  0.00    +0.046 C 
ATOM     12  C   LIG    1        9.655  -2.045  -1.136  0.00  0.00    +0.085 C 
ATOM     13  N   LIG    1        9.051  -2.894  -2.179  0.00  0.00    -0.315 NA
ATOM     14  H   LIG    1        9.297  -2.505  -3.089  0.00  0.00    +0.122 HD
ATOM     15  C   LIG    1        7.585  -2.885  -2.050  0.00  0.00    +0.085 C 
ATOM     16  C   LIG    1        6.989  -1.468  -2.094  0.00  0.00    +0.046 C 
ATOM     17  N   LIG    1        8.560   0.243   1.709  0.00  0.00    -0.255 NA
ATOM     18  C   LIG    1        9.213   0.927   2.669  0.00  0.00    +0.111 A 
ATOM     19  C   LIG    1        8.972   2.254   2.958  0.00  0.00    +0.020 A 
ATOM     20  C   LIG    1        7.996   2.914   2.222  0.00  0.00    +0.007 A 
ATOM     21  C   LIG    1        5.441   0.024  -0.035  0.00  0.00    -0.013 A 
ATOM     22  C   LIG    1        4.746  -1.128   0.358  0.00  0.00    +0.010 A 
ATOM     23  C   LIG    1        3.350  -1.139   0.353  0.00  0.00    +0.020 A 
ENDROOT
TORSDOF 0
