REMARK  Name = *****
REMARK                            x       y       z     vdW  Elec       q    Type
REMARK                         _______ _______ _______ _____ _____    ______ ____
ROOT
ATOM      1  C   LIG    1        8.366  -4.279  -0.578  0.00  0.00    +0.152 C 
ENDROOT
BRANCH   1   2
ATOM      2  C   LIG    1        9.050  -3.667   0.681  0.00  0.00    +0.034 C 
BRANCH   2   3
ATOM      3  C   LIG    1        9.097  -4.691   1.839  0.00  0.00    +0.006 C 
BRANCH   3   4
ATOM      4  C   LIG    1        9.811  -4.302   3.152  0.00  0.00    -0.011 C 
BRANCH   4   5
ATOM      5  C   LIG    1       11.325  -4.107   2.925  0.00  0.00    -0.000 C 
ATOM      6  C   LIG    1       12.196  -4.149   4.175  0.00  0.00    +0.004 C 
ENDBRANCH   4   5
BRANCH   4   7
ATOM      7  C   LIG    1        9.136  -3.117   3.863  0.00  0.00    +0.003 C 
BRANCH   7   8
ATOM      8  C   LIG    1        7.672  -3.409   4.227  0.00  0.00    -0.000 C 
BRANCH   8  10
ATOM      9  C   LIG    1        5.589  -2.560   5.330  0.00  0.00    +0.004 C 
ATOM     10  C   LIG    1        7.032  -2.241   4.971  0.00  0.00    -0.003 C 
ENDBRANCH   8  10
ENDBRANCH   7   8
ENDBRANCH   4   7
ENDBRANCH   3   4
ENDBRANCH   2   3
ENDBRANCH   1   2
BRANCH   1  11
ATOM     11  C   LIG    1        6.848  -4.579  -0.301  0.00  0.00    +0.037 C 
BRANCH  11  12
ATOM     12  C   LIG    1        5.986  -5.149  -1.464  0.00  0.00    -0.015 C 
ATOM     13  C   LIG    1        4.503  -5.334  -1.067  0.00  0.00    +0.007 C 
ATOM     14  C   LIG    1        6.480  -6.517  -1.930  0.00  0.00    +0.007 C 
ENDBRANCH  11  12
ENDBRANCH   1  11
BRANCH   1  15
ATOM     15  O   LIG    1        9.038  -5.486  -0.921  0.00  0.00    -0.212 OA
BRANCH  15  16
ATOM     16  S   LIG    1       10.585  -5.530  -1.422  0.00  0.00    +0.208 S 
ATOM     17  O   LIG    1       10.867  -4.337  -2.196  0.00  0.00    -0.118 OA
ATOM     18  O   LIG    1       10.855  -6.838  -1.907  0.00  0.00    -0.118 OA
BRANCH  16  19
ATOM     19  O   LIG    1       11.423  -5.426  -0.042  0.00  0.00    -0.231 OA
ATOM     20  H   LIG    1       11.376  -6.305   0.398  0.00  0.00    +0.247 HD
ENDBRANCH  16  19
ENDBRANCH  15  16
ENDBRANCH   1  15
TORSDOF 12
