REMARK  Name = *****
REMARK                            x       y       z     vdW  Elec       q    Type
REMARK                         _______ _______ _______ _____ _____    ______ ____
ROOT
ATOM      1  N   LIG    1       -1.902   3.520   1.875  0.00  0.00    -0.300 N 
ATOM      2  H   LIG    1       -0.922   3.498   2.163  0.00  0.00    +0.150 HD
ATOM      3  C   LIG    1       -2.282   4.653   1.177  0.00  0.00    +0.235 C 
ATOM      4  O   LIG    1       -3.440   4.833   0.812  0.00  0.00    -0.274 OA
ENDROOT
BRANCH   1  10
ATOM      5  C   LIG    1       -1.246   3.205   5.901  0.00  0.00    +0.025 C 
ATOM      6  C   LIG    1       -1.417   1.709   5.575  0.00  0.00    +0.042 C 
ATOM      7  CA  LIG    1       -2.917   1.327   5.494  0.00  0.00    +0.201 C 
ATOM      8  N   LIG    1       -3.342   1.507   4.096  0.00  0.00    -0.271 N 
ATOM      9  C   LIG    1       -2.327   1.263   3.053  0.00  0.00    +0.165 C 
ATOM     10  CA  LIG    1       -2.879   2.498   2.300  0.00  0.00    +0.190 C 
ATOM     11  C   LIG    1       -3.647   2.764   3.627  0.00  0.00    +0.240 C 
ATOM     12  O   LIG    1       -4.165   3.689   4.201  0.00  0.00    -0.273 OA
ATOM     13  S   LIG    1       -0.705   1.431   3.882  0.00  0.00    -0.127 S 
ATOM     14  C   LIG    1       -0.579   0.910   6.580  0.00  0.00    +0.025 C 
BRANCH   7  15
ATOM     15  C   LIG    1       -3.280  -0.107   5.915  0.00  0.00    +0.327 C 
ATOM     16  O   LIG    1       -3.001  -0.612   6.992  0.00  0.00    -0.249 OA
BRANCH  15  17
ATOM     17  OXT LIG    1       -4.030  -0.769   4.996  0.00  0.00    -0.479 OA
ATOM     18  HXT LIG    1       -4.256  -0.171   4.255  0.00  0.00    +0.295 HD
ENDBRANCH  15  17
ENDBRANCH   7  15
ENDBRANCH   1  10
BRANCH   3  19
ATOM     19  CA  LIG    1       -1.093   5.586   0.827  0.00  0.00    +0.168 C 
BRANCH  19  20
ATOM     20  C   LIG    1       -1.463   7.057   0.760  0.00  0.00    -0.022 A 
ATOM     21  C   LIG    1       -1.302   7.764  -0.444  0.00  0.00    +0.009 A 
ATOM     22  C   LIG    1       -1.638   9.117  -0.529  0.00  0.00    +0.045 A 
ATOM     23  C   LIG    1       -2.130   9.777   0.588  0.00  0.00    +0.117 A 
ATOM     24  C   LIG    1       -2.294   9.104   1.794  0.00  0.00    +0.045 A 
ATOM     25  C   LIG    1       -1.964   7.747   1.878  0.00  0.00    +0.009 A 
BRANCH  23  26
ATOM     26  O   LIG    1       -2.447  11.097   0.458  0.00  0.00    -0.507 OA
ATOM     27  H   LIG    1       -2.815  11.412   1.300  0.00  0.00    +0.292 HD
ENDBRANCH  23  26
ENDBRANCH  19  20
BRANCH  19  28
ATOM     28  N   LIG    1        0.035   5.352   1.769  0.00  0.00    -0.316 NA
ATOM     29  H1  LIG    1        0.825   5.906   1.435  0.00  0.00    +0.119 HD
ATOM     30  H2  LIG    1       -0.213   5.769   2.667  0.00  0.00    +0.119 HD
ENDBRANCH  19  28
ENDBRANCH   3  19
TORSDOF 7
