REMARK  Name = *****
REMARK                            x       y       z     vdW  Elec       q    Type
REMARK                         _______ _______ _______ _____ _____    ______ ____
ROOT
ATOM      1  C   LIG    1        7.293  -5.984  -0.062  0.00  0.00    +0.130 A 
ATOM      2  N   LIG    1        6.192  -5.504   0.554  0.00  0.00    -0.199 NA
ATOM      3  C   LIG    1        5.227  -6.353   0.944  0.00  0.00    +0.221 A 
ATOM      4  N   LIG    1        5.308  -7.680   0.787  0.00  0.00    -0.223 NA
ATOM      5  C   LIG    1        6.418  -8.146   0.193  0.00  0.00    +0.118 A 
ATOM      6  C   LIG    1        7.437  -7.342  -0.263  0.00  0.00    +0.064 A 
ENDROOT
BRANCH   1   7
ATOM      7  N   LIG    1        8.305  -5.076  -0.471  0.00  0.00    -0.288 N 
ATOM      8  C   LIG    1        8.672  -4.132   0.590  0.00  0.00    +0.137 C 
BRANCH   7  16
ATOM      9  C   LIG    1       11.924  -5.759  -6.148  0.00  0.00    +0.066 C 
ATOM     10  C   LIG    1       11.865  -5.458  -4.697  0.00  0.00    +0.044 A 
ATOM     11  N   LIG    1       12.975  -5.114  -3.959  0.00  0.00    -0.271 N 
ATOM     12  C   LIG    1       14.329  -4.960  -4.445  0.00  0.00    +0.172 C 
ATOM     13  N   LIG    1       12.731  -4.895  -2.652  0.00  0.00    -0.171 NA
ATOM     14  C   LIG    1       11.410  -5.078  -2.511  0.00  0.00    +0.095 A 
ATOM     15  C   LIG    1       10.611  -4.967  -1.360  0.00  0.00    +0.053 A 
ATOM     16  C   LIG    1        9.225  -5.215  -1.548  0.00  0.00    +0.037 A 
ATOM     17  C   LIG    1        8.713  -5.556  -2.856  0.00  0.00    +0.024 A 
ATOM     18  C   LIG    1        9.493  -5.686  -4.034  0.00  0.00    +0.013 A 
ATOM     19  C   LIG    1       10.837  -5.430  -3.782  0.00  0.00    +0.023 A 
ENDBRANCH   7  16
ENDBRANCH   1   7
BRANCH   3  20
ATOM     20  N   LIG    1        4.033  -5.898   1.501  0.00  0.00    -0.283 N 
ATOM     21  H   LIG    1        3.414  -6.677   1.669  0.00  0.00    +0.155 HD
BRANCH  20  22
ATOM     22  C   LIG    1        3.569  -4.618   1.815  0.00  0.00    +0.035 A 
ATOM     23  C   LIG    1        4.422  -3.531   2.007  0.00  0.00    +0.052 A 
ATOM     24  C   LIG    1        3.925  -2.242   2.255  0.00  0.00    +0.110 A 
ATOM     25  C   LIG    1        2.540  -2.004   2.293  0.00  0.00    -0.024 A 
ATOM     26  C   LIG    1        1.940  -0.648   2.532  0.00  0.00    +0.045 C 
ATOM     27  C   LIG    1        1.682  -3.093   2.080  0.00  0.00    +0.007 A 
ATOM     28  C   LIG    1        2.190  -4.377   1.848  0.00  0.00    +0.024 A 
BRANCH  24  29
ATOM     29  S   LIG    1        5.117  -0.947   2.484  0.00  0.00    +0.056 S 
ATOM     30  O   LIG    1        4.829   0.133   1.577  0.00  0.00    -0.153 OA
ATOM     31  O   LIG    1        6.445  -1.517   2.606  0.00  0.00    -0.153 OA
BRANCH  29  32
ATOM     32  N   LIG    1        4.769  -0.379   4.027  0.00  0.00    -0.203 NA
ATOM     33  H   LIG    1        4.496   0.602   3.973  0.00  0.00    +0.144 HD
ATOM     34  H   LIG    1        5.562  -0.555   4.644  0.00  0.00    +0.144 HD
ENDBRANCH  29  32
ENDBRANCH  24  29
ENDBRANCH  20  22
ENDBRANCH   3  20
TORSDOF 6
