REMARK  Name = *****
REMARK                            x       y       z     vdW  Elec       q    Type
REMARK                         _______ _______ _______ _____ _____    ______ ____
ROOT
ATOM      1  C   LIG    1        0.312  -1.892  -6.884  0.00  0.00    +0.108 C 
ATOM      2  C   LIG    1        0.484  -0.739  -5.864  0.00  0.00    +0.042 C 
ATOM      3  C   LIG    1        1.017   0.570  -6.448  0.00  0.00    +0.109 C 
ATOM      4  C   LIG    1        1.149   1.686  -5.420  0.00  0.00    +0.153 C 
ATOM      5  C   LIG    1        0.776   1.391  -3.999  0.00  0.00    +0.045 C 
ATOM      6  C   LIG    1       -0.564   0.612  -3.894  0.00  0.00    +0.013 C 
ATOM      7  C   LIG    1       -1.718   1.644  -3.892  0.00  0.00    +0.015 C 
ATOM      8  C   LIG    1       -0.609  -0.305  -2.636  0.00  0.00    +0.120 C 
ATOM      9  O   LIG    1        0.601  -1.079  -2.522  0.00  0.00    -0.458 OA
ATOM     10  C   LIG    1        0.868  -1.339  -1.208  0.00  0.00    +0.308 C 
ATOM     11  O   LIG    1        1.762  -2.069  -0.822  0.00  0.00    -0.251 OA
ATOM     12  C   LIG    1       -0.130  -0.635  -0.339  0.00  0.00    +0.124 C 
ATOM     13  C   LIG    1       -0.727   0.378  -1.289  0.00  0.00    +0.060 C 
ATOM     14  C   LIG    1       -1.742  -1.283  -2.954  0.00  0.00    +0.049 C 
ATOM     15  C   LIG    1       -1.492  -1.636  -4.418  0.00  0.00    +0.008 C 
ATOM     16  O   LIG    1        2.285   0.955  -5.878  0.00  0.00    -0.363 OA
ATOM     17  C   LIG    1        0.875   0.892  -7.954  0.00  0.00    +0.021 C 
ATOM     18  C   LIG    1        2.226   1.384  -8.537  0.00  0.00    +0.019 C 
ATOM     19  C   LIG    1        0.472  -0.336  -8.767  0.00  0.00    -0.057 C 
ATOM     20  C   LIG    1       -0.330  -0.292  -9.845  0.00  0.00    +0.046 C 
ATOM     21  C   LIG    1       -0.878   0.989 -10.351  0.00  0.00    +0.156 C 
ATOM     22  O   LIG    1       -1.554   0.992 -11.377  0.00  0.00    -0.293 OA
ATOM     23  C   LIG    1       -0.542   2.260  -9.612  0.00  0.00    +0.080 C 
ATOM     24  C   LIG    1       -0.205   1.990  -8.149  0.00  0.00    +0.022 C 
ATOM     25  C   LIG    1       -0.814  -0.409  -5.070  0.00  0.00    +0.006 C 
ATOM     26  C   LIG    1        0.989  -1.641  -8.225  0.00  0.00    +0.046 C 
ENDROOT
BRANCH   1  27
ATOM     27  C   LIG    1        0.792  -3.230  -6.337  0.00  0.00    +0.311 C 
ATOM     28  O   LIG    1        0.203  -4.285  -6.537  0.00  0.00    -0.251 OA
BRANCH  27  30
ATOM     29  C   LIG    1        2.215  -4.217  -4.753  0.00  0.00    +0.280 C 
ATOM     30  O   LIG    1        1.923  -3.103  -5.598  0.00  0.00    -0.468 OA
ENDBRANCH  27  30
ENDBRANCH   1  27
TORSDOF 2
