REMARK  Name = *****
REMARK                            x       y       z     vdW  Elec       q    Type
REMARK                         _______ _______ _______ _____ _____    ______ ____
ROOT
ATOM      1  C   LIG    1        6.910  -0.058   2.336  0.00  0.00    +0.176 C 
ENDROOT
BRANCH   1   2
ATOM      2  O   LIG    1        7.833   0.322   1.306  0.00  0.00    -0.387 OA
ATOM      3  H   LIG    1        8.126  -0.510   0.878  0.00  0.00    +0.210 HD
ENDBRANCH   1   2
BRANCH   1   4
ATOM      4  C   LIG    1        7.678  -0.280   3.662  0.00  0.00    +0.181 C 
BRANCH   4   5
ATOM      5  O   LIG    1        8.597  -1.381   3.605  0.00  0.00    -0.386 OA
ATOM      6  H   LIG    1        8.943  -1.443   2.695  0.00  0.00    +0.210 HD
ENDBRANCH   4   5
BRANCH   4   7
ATOM      7  C   LIG    1        8.427   0.969   4.165  0.00  0.00    +0.208 C 
BRANCH   7   9
ATOM      8  O   LIG    1       10.715   0.998   3.336  0.00  0.00    -0.298 OA
ATOM      9  C   LIG    1        9.559   1.389   3.234  0.00  0.00    +0.257 C 
ENDBRANCH   7   9
BRANCH   7  10
ATOM     10  O   LIG    1        8.964   0.688   5.461  0.00  0.00    -0.382 OA
ATOM     11  H   LIG    1        9.590  -0.053   5.319  0.00  0.00    +0.210 HD
ENDBRANCH   7  10
ENDBRANCH   4   7
ENDBRANCH   1   4
BRANCH   1  12
ATOM     12  C   LIG    1        6.131  -1.304   1.869  0.00  0.00    +0.171 C 
BRANCH  12  13
ATOM     13  O   LIG    1        7.072  -2.334   1.513  0.00  0.00    -0.387 OA
ATOM     14  H   LIG    1        6.595  -3.177   1.640  0.00  0.00    +0.210 HD
ENDBRANCH  12  13
BRANCH  12  15
ATOM     15  C   LIG    1        5.292  -1.024   0.617  0.00  0.00    +0.190 C 
BRANCH  15  16
ATOM     16  O   LIG    1        4.612  -2.220   0.232  0.00  0.00    -0.392 OA
ATOM     17  H   LIG    1        5.273  -2.780  -0.215  0.00  0.00    +0.209 HD
ENDBRANCH  15  16
ENDBRANCH  12  15
ENDBRANCH   1  12
TORSDOF 10
