REMARK  Name = *****
REMARK                            x       y       z     vdW  Elec       q    Type
REMARK                         _______ _______ _______ _____ _____    ______ ____
ROOT
ATOM      1  C   LIG    1        7.226  -1.354   1.369  0.00  0.00    +0.270 C 
ATOM      2  C   LIG    1        7.181  -1.773  -0.368  0.00  0.00    +0.187 C 
ATOM      3  O   LIG    1        8.254  -2.219  -0.834  0.00  0.00    -0.292 OA
ATOM      4  C   LIG    1        5.827  -1.770  -1.528  0.00  0.00    +0.066 C 
ATOM      5  C   LIG    1        4.654  -0.329  -1.775  0.00  0.00    +0.097 C 
ATOM      6  C   LIG    1        3.836  -0.645  -3.086  0.00  0.00    +0.170 C 
ATOM      7  C   LIG    1        4.958  -0.614  -4.186  0.00  0.00    +0.167 C 
ATOM      8  C   LIG    1        5.743  -1.882  -4.256  0.00  0.00    +0.068 C 
ATOM      9  O   LIG    1        3.963  -0.384  -5.213  0.00  0.00    -0.368 OA
ATOM     10  C   LIG    1        3.192   0.331  -4.164  0.00  0.00    +0.211 C 
ATOM     11  C   LIG    1        3.541   0.571  -0.602  0.00  0.00    +0.217 C 
ATOM     12  C   LIG    1        3.624   0.584   1.267  0.00  0.00    +0.116 C 
ATOM     13  C   LIG    1        4.973   0.351   2.517  0.00  0.00    +0.023 C 
ATOM     14  C   LIG    1        4.215  -0.046   3.892  0.00  0.00    +0.019 C 
ATOM     15  C   LIG    1        5.612   1.665   3.055  0.00  0.00    +0.019 C 
ATOM     16  C   LIG    1        3.129  -0.787   1.310  0.00  0.00    +0.088 C 
ATOM     17  C   LIG    1        4.439  -1.280   0.793  0.00  0.00    +0.205 C 
ATOM     18  C   LIG    1        5.086  -2.004   1.894  0.00  0.00    -0.029 C 
ATOM     19  C   LIG    1        5.157  -3.489   1.905  0.00  0.00    +0.043 C 
ATOM     20  C   LIG    1        5.247  -3.252  -1.457  0.00  0.00    +0.022 C 
ATOM     21  C   LIG    1        6.613  -1.922  -2.978  0.00  0.00    +0.131 C 
ATOM     22  C   LIG    1        5.951  -1.074   2.299  0.00  0.00    -0.011 C 
ENDROOT
BRANCH  21  23
ATOM     23  O   LIG    1        7.322  -3.169  -3.089  0.00  0.00    -0.391 OA
ATOM     24  H   LIG    1        7.987  -3.187  -2.368  0.00  0.00    +0.210 HD
ENDBRANCH  21  23
BRANCH  12  25
ATOM     25  O   LIG    1        2.616   1.385   1.846  0.00  0.00    -0.384 OA
ATOM     26  H   LIG    1        3.064   2.133   2.285  0.00  0.00    +0.210 HD
ENDBRANCH  12  25
BRANCH  17  27
ATOM     27  O   LIG    1        5.659  -0.049   0.234  0.00  0.00    -0.455 OA
BRANCH  27  28
ATOM     28  C   LIG    1        6.077   1.308   0.083  0.00  0.00    +0.339 C 
ATOM     29  O   LIG    1        5.362   2.266   0.357  0.00  0.00    -0.248 OA
BRANCH  28  30
ATOM     30  C   LIG    1        7.445   1.564  -0.668  0.00  0.00    +0.247 C 
BRANCH  30  31
ATOM     31  O   LIG    1        8.490   0.653  -0.378  0.00  0.00    -0.379 OA
ATOM     32  H   LIG    1        9.034   0.534  -1.179  0.00  0.00    +0.211 HD
ENDBRANCH  30  31
BRANCH  30  33
ATOM     33  C   LIG    1        7.967   3.061  -0.507  0.00  0.00    +0.143 C 
BRANCH  33  34
ATOM     34  C   LIG    1        8.836   3.540  -1.692  0.00  0.00    -0.024 A 
ATOM     35  C   LIG    1        8.255   4.306  -2.722  0.00  0.00    +0.005 A 
ATOM     36  C   LIG    1        9.022   4.790  -3.791  0.00  0.00    +0.000 A 
ATOM     37  C   LIG    1       10.382   4.503  -3.865  0.00  0.00    +0.000 A 
ATOM     38  C   LIG    1       10.985   3.772  -2.847  0.00  0.00    +0.000 A 
ATOM     39  C   LIG    1       10.223   3.305  -1.766  0.00  0.00    +0.005 A 
ENDBRANCH  33  34
BRANCH  33  40
ATOM     40  N   LIG    1        8.718   3.270   0.749  0.00  0.00    -0.301 N 
ATOM     41  H   LIG    1        9.594   2.768   0.821  0.00  0.00    +0.150 HD
ATOM     42  C   LIG    1        8.427   4.204   1.711  0.00  0.00    +0.245 C 
ATOM     43  O   LIG    1        7.436   4.961   1.648  0.00  0.00    -0.270 OA
BRANCH  42  44
ATOM     44  C   LIG    1        9.369   4.308   2.878  0.00  0.00    +0.037 A 
ATOM     45  C   LIG    1       10.741   4.040   2.740  0.00  0.00    +0.013 A 
ATOM     46  C   LIG    1       11.627   4.304   3.793  0.00  0.00    +0.001 A 
ATOM     47  C   LIG    1       11.159   4.830   4.994  0.00  0.00    +0.000 A 
ATOM     48  C   LIG    1        9.791   5.030   5.170  0.00  0.00    +0.001 A 
ATOM     49  C   LIG    1        8.900   4.758   4.124  0.00  0.00    +0.013 A 
ENDBRANCH  42  44
ENDBRANCH  33  40
ENDBRANCH  30  33
ENDBRANCH  28  30
ENDBRANCH  27  28
ENDBRANCH  17  27
BRANCH  11  50
ATOM     50  O   LIG    1        3.257   1.956  -1.022  0.00  0.00    -0.455 OA
BRANCH  50  51
ATOM     51  C   LIG    1        1.933   2.326  -0.898  0.00  0.00    +0.340 C 
ATOM     52  O   LIG    1        1.008   1.725  -1.425  0.00  0.00    -0.245 OA
BRANCH  51  53
ATOM     53  C   LIG    1        1.719   3.411   0.113  0.00  0.00    +0.059 A 
ATOM     54  C   LIG    1        0.636   3.317   1.014  0.00  0.00    +0.015 A 
ATOM     55  C   LIG    1        0.608   4.109   2.171  0.00  0.00    +0.001 A 
ATOM     56  C   LIG    1        1.655   4.992   2.429  0.00  0.00    +0.000 A 
ATOM     57  C   LIG    1        2.680   5.147   1.494  0.00  0.00    +0.001 A 
ATOM     58  C   LIG    1        2.690   4.389   0.318  0.00  0.00    +0.015 A 
ENDBRANCH  51  53
ENDBRANCH  50  51
ENDBRANCH  11  50
BRANCH   6  59
ATOM     59  O   LIG    1        3.187  -1.937  -2.919  0.00  0.00    -0.453 OA
BRANCH  59  60
ATOM     60  C   LIG    1        1.927  -1.951  -2.387  0.00  0.00    +0.305 C 
ATOM     61  O   LIG    1        1.037  -1.223  -2.679  0.00  0.00    -0.251 OA
ATOM     62  C   LIG    1        1.853  -2.991  -1.300  0.00  0.00    +0.136 C 
ENDBRANCH  59  60
ENDBRANCH   6  59
BRANCH   1  63
ATOM     63  O   LIG    1        7.849  -2.516   2.020  0.00  0.00    -0.449 OA
BRANCH  63  65
ATOM     64  C   LIG    1        8.398  -2.997   4.253  0.00  0.00    +0.136 C 
ATOM     65  C   LIG    1        8.769  -2.266   2.988  0.00  0.00    +0.305 C 
ATOM     66  O   LIG    1        9.691  -1.471   2.899  0.00  0.00    -0.251 OA
ENDBRANCH  63  65
ENDBRANCH   1  63
TORSDOF 17
