REMARK  Name = *****
REMARK                            x       y       z     vdW  Elec       q    Type
REMARK                         _______ _______ _______ _____ _____    ______ ____
ROOT
ATOM      1  C   LIG    1        5.178   1.273  -1.960  0.00  0.00    -0.006 A 
ATOM      2  C   LIG    1        6.270   1.591  -1.100  0.00  0.00    +0.007 A 
ATOM      3  C   LIG    1        6.431   1.046   0.195  0.00  0.00    +0.010 A 
ATOM      4  C   LIG    1        7.527   1.348   0.992  0.00  0.00    +0.001 A 
ATOM      5  C   LIG    1        8.472   2.241   0.521  0.00  0.00    +0.014 A 
ATOM      6  C   LIG    1        8.328   2.833  -0.749  0.00  0.00    +0.081 A 
ATOM      7  C   LIG    1        7.247   2.511  -1.571  0.00  0.00    +0.084 A 
ATOM      8  N   LIG    1        7.148   3.072  -2.782  0.00  0.00    -0.242 NA
ATOM      9  C   LIG    1        6.098   2.789  -3.601  0.00  0.00    +0.145 A 
ATOM     10  C   LIG    1        5.109   1.896  -3.216  0.00  0.00    +0.039 A 
ENDROOT
BRANCH   6  11
ATOM     11  C   LIG    1        9.381   3.833  -1.160  0.00  0.00    +0.419 C 
ATOM     12  F   LIG    1       10.628   3.272  -1.165  0.00  0.00    -0.166 F 
ATOM     13  F   LIG    1        9.464   4.861  -0.261  0.00  0.00    -0.166 F 
ATOM     14  F   LIG    1        9.248   4.429  -2.373  0.00  0.00    -0.166 F 
ENDBRANCH   6  11
BRANCH   9  15
ATOM     15  C   LIG    1        6.035   3.465  -4.965  0.00  0.00    +0.434 C 
ATOM     16  F   LIG    1        7.111   3.172  -5.752  0.00  0.00    -0.164 F 
ATOM     17  F   LIG    1        5.983   4.827  -4.890  0.00  0.00    -0.164 F 
ATOM     18  F   LIG    1        4.943   3.102  -5.702  0.00  0.00    -0.164 F 
ENDBRANCH   9  15
BRANCH   1  19
ATOM     19  C   LIG    1        4.084   0.287  -1.567  0.00  0.00    +0.162 C 
BRANCH  19  20
ATOM     20  C   LIG    1        4.335  -1.210  -1.961  0.00  0.00    +0.087 C 
ATOM     21  N   LIG    1        3.134  -1.995  -1.552  0.00  0.00    -0.311 NA
ATOM     22  H   LIG    1        3.027  -1.926  -0.537  0.00  0.00    +0.122 HD
ATOM     23  C   LIG    1        3.271  -3.415  -1.895  0.00  0.00    +0.081 C 
ATOM     24  C   LIG    1        4.499  -4.044  -1.242  0.00  0.00    +0.015 C 
ATOM     25  C   LIG    1        5.761  -3.289  -1.636  0.00  0.00    +0.003 C 
ATOM     26  C   LIG    1        5.606  -1.802  -1.336  0.00  0.00    +0.021 C 
ENDBRANCH  19  20
BRANCH  19  27
ATOM     27  O   LIG    1        2.846   0.695  -2.180  0.00  0.00    -0.386 OA
ATOM     28  H   LIG    1        2.293  -0.114  -2.176  0.00  0.00    +0.210 HD
ENDBRANCH  19  27
ENDBRANCH   1  19
TORSDOF 5
