REMARK  Name = *****
REMARK                            x       y       z     vdW  Elec       q    Type
REMARK                         _______ _______ _______ _____ _____    ______ ____
ROOT
ATOM      1  C   LIG    1        1.056   0.260  -0.455  0.00  0.00    +0.134 C 
ATOM      2  N   LIG    1        2.462   0.234   0.004  0.00  0.00    -0.159 NA
ATOM      3  S   LIG    1        2.909   1.698   0.752  0.00  0.00    +0.064 S 
ATOM      4  O   LIG    1        2.239   1.768   2.036  0.00  0.00    -0.153 OA
ATOM      5  O   LIG    1        2.758   2.753  -0.228  0.00  0.00    -0.153 OA
ATOM      6  C   LIG    1        4.620   1.468   1.045  0.00  0.00    +0.128 A 
ATOM      7  C   LIG    1        5.077   0.162   1.187  0.00  0.00    +0.057 A 
ATOM      8  C   LIG    1        6.457  -0.014   1.357  0.00  0.00    +0.047 A 
ATOM      9  C   LIG    1        7.349   1.070   1.384  0.00  0.00    +0.069 A 
ATOM     10  C   LIG    1        6.859   2.367   1.229  0.00  0.00    +0.125 A 
ATOM     11 CL   LIG    1        9.022   0.679   1.569  0.00  0.00    -0.082 Cl
ATOM     12  N   LIG    1        4.285  -0.954   0.995  0.00  0.00    -0.325 N 
ATOM     13  H   LIG    1        4.613  -1.809   1.444  0.00  0.00    +0.148 HD
ATOM     14  C   LIG    1        5.483   2.574   1.067  0.00  0.00    +0.060 A 
ATOM     15  C   LIG    1        2.834  -0.912   0.859  0.00  0.00    +0.172 C 
ENDROOT
BRANCH  10  16
ATOM     16  S   LIG    1        7.949   3.756   1.230  0.00  0.00    +0.057 S 
ATOM     17  O   LIG    1        8.773   3.713   2.410  0.00  0.00    -0.153 OA
ATOM     18  O   LIG    1        7.198   4.938   0.867  0.00  0.00    -0.153 OA
BRANCH  16  19
ATOM     19  N   LIG    1        8.954   3.471  -0.085  0.00  0.00    -0.203 NA
ATOM     20  H   LIG    1        9.913   3.339   0.242  0.00  0.00    +0.144 HD
ATOM     21  H   LIG    1        8.856   4.219  -0.772  0.00  0.00    +0.144 HD
ENDBRANCH  16  19
ENDBRANCH  10  16
BRANCH  15  22
ATOM     22  C   LIG    1        2.408  -2.274   0.228  0.00  0.00    +0.109 C 
BRANCH  22  23
ATOM     23  S   LIG    1        2.872  -3.715   1.287  0.00  0.00    -0.149 S 
BRANCH  23  24
ATOM     24  C   LIG    1        2.269  -5.094   0.223  0.00  0.00    +0.182 C 
BRANCH  24  25
ATOM     25  C   LIG    1        0.773  -5.157  -0.085  0.00  0.00    +0.399 C 
ATOM     26  F   LIG    1        0.228  -6.305   0.375  0.00  0.00    -0.170 F 
ATOM     27  F   LIG    1        0.570  -5.120  -1.423  0.00  0.00    -0.170 F 
ATOM     28  F   LIG    1        0.071  -4.136   0.451  0.00  0.00    -0.170 F 
ENDBRANCH  24  25
ENDBRANCH  23  24
ENDBRANCH  22  23
ENDBRANCH  15  22
TORSDOF 6
