REMARK  Name = *****
REMARK                            x       y       z     vdW  Elec       q    Type
REMARK                         _______ _______ _______ _____ _____    ______ ____
ROOT
ATOM      1  C   UNK A  3       -6.240  12.857  -1.445  0.00  0.00    +0.194 C 
ATOM      2  C   UNK A  3       -5.810  12.162  -2.760  0.00  0.00    +0.237 C 
ATOM      3  O   UNK A  3       -6.380  12.317  -3.836  0.00  0.00    -0.274 OA
ATOM      4  N   UNK A  3       -4.801  11.228  -2.611  0.00  0.00    -0.311 N 
ATOM      5  H   UNK A  3       -4.154  11.394  -1.843  0.00  0.00    +0.149 HD
ATOM      6  C   UNK A  3       -4.273  10.515  -3.774  0.00  0.00    +0.136 C 
ATOM      7  C   UNK A  3       -3.265   9.407  -3.409  0.00  0.00    +0.176 C 
ATOM      8  C   UNK A  1       -1.999  10.087  -2.856  0.00  0.00    +0.235 C 
ATOM      9  O   UNK A  1       -2.054  11.093  -2.145  0.00  0.00    -0.274 OA
ATOM     10  N   SER A  2       -0.816   9.444  -3.141  0.00  0.00    -0.300 N 
ATOM     11  H   SER A  2       -0.869   8.450  -3.355  0.00  0.00    +0.150 HD
ATOM     12  CA  SER A  2        0.478   9.960  -2.656  0.00  0.00    +0.184 C 
ATOM     13  C   SER A  2        0.422   9.884  -1.113  0.00  0.00    +0.236 C 
ATOM     14  O   SER A  2        0.031   8.858  -0.551  0.00  0.00    -0.274 OA
ATOM     15  N   UNK A  3        0.694  11.034  -0.404  0.00  0.00    -0.300 N 
ATOM     16  H   UNK A  3        0.994  11.874  -0.881  0.00  0.00    +0.150 HD
ATOM     17  C   UNK A  3       -0.036  11.284   0.843  0.00  0.00    +0.185 C 
ATOM     18  C   UNK A  3       -0.906  12.528   0.579  0.00  0.00    +0.240 C 
ATOM     19  O   UNK A  3       -0.429  13.533   0.051  0.00  0.00    -0.273 OA
ATOM     20  N   UNK A  3       -2.223  12.396   0.979  0.00  0.00    -0.279 N 
ATOM     21  H   UNK A  3       -2.590  11.446   0.926  0.00  0.00    +0.155 HD
ATOM     22  C   UNK A  3       -3.202  13.372   0.846  0.00  0.00    +0.110 C 
ATOM     23  C   UNK A  3       -3.117  14.653   1.249  0.00  0.00    +0.104 C 
ATOM     24  C   UNK A  3       -4.533  12.851   0.376  0.00  0.00    +0.260 C 
ATOM     25  O   UNK A  3       -5.013  11.858   0.913  0.00  0.00    -0.269 OA
ATOM     26  N   UNK A  3       -5.026  13.405  -0.781  0.00  0.00    -0.296 N 
ATOM     27  H   UNK A  3       -4.450  14.062  -1.297  0.00  0.00    +0.150 HD
ENDROOT
BRANCH   1  33
ATOM     28  N   UNK A  3       -8.443  14.250   1.746  0.00  0.00    -0.134 NA
ATOM     29  H   UNK A  3       -9.185  13.760   2.247  0.00  0.00    +0.306 HD
ATOM     30  C   UNK A  3       -8.544  13.998   0.490  0.00  0.00    +0.362 C 
ATOM     31  N   UNK A  3       -7.673  14.560  -0.375  0.00  0.00    -0.234 N 
ATOM     32  H   UNK A  3       -6.916  15.021   0.118  0.00  0.00    +0.245 HD
ATOM     33  C   UNK A  3       -7.325  13.952  -1.658  0.00  0.00    +0.168 C 
ATOM     34  C   UNK A  3       -8.643  13.501  -2.304  0.00  0.00    +0.075 C 
ATOM     35  C   UNK A  3       -9.461  12.637  -1.361  0.00  0.00    +0.188 C 
ATOM     36  N   UNK A  3       -9.495  13.195  -0.030  0.00  0.00    -0.238 N 
ATOM     37  H   UNK A  3      -10.061  12.679   0.631  0.00  0.00    +0.244 HD
ENDBRANCH   1  33
BRANCH  23  38
ATOM     38  N   UNK A  3       -2.051  15.176   1.953  0.00  0.00    -0.274 N 
ATOM     39  H   UNK A  3       -1.301  14.549   2.209  0.00  0.00    +0.156 HD
ATOM     40  C   UNK A  3       -1.959  16.464   2.392  0.00  0.00    +0.301 C 
ATOM     41  O   UNK A  3       -2.780  17.363   2.167  0.00  0.00    -0.253 OA
ATOM     42  N   UNK A  3       -0.870  16.700   3.169  0.00  0.00    -0.313 N 
ATOM     43  H   UNK A  3       -0.738  17.668   3.444  0.00  0.00    +0.146 HD
ATOM     44  H   UNK A  3       -0.034  16.144   3.086  0.00  0.00    +0.146 HD
ENDBRANCH  23  38
BRANCH   7  45
ATOM     45  N   UNK A  3       -3.841   8.466  -2.440  0.00  0.00    -0.303 N 
ATOM     46  H   UNK A  1       -4.405   8.855  -1.694  0.00  0.00    +0.149 HD
ATOM     47  C   UNK A  0       -3.467   7.148  -2.394  0.00  0.00    +0.215 C 
ATOM     48  O   UNK A  0       -2.541   6.717  -3.081  0.00  0.00    -0.276 OA
BRANCH  47  49
ATOM     49  C   UNK A  0       -4.238   6.239  -1.445  0.00  0.00    +0.116 C 
BRANCH  49  50
ATOM     50  C   UNK A  0       -5.730   6.557  -1.241  0.00  0.00    +0.088 C 
BRANCH  50  51
ATOM     51  N   UNK A  0       -6.294   5.575  -0.290  0.00  0.00    -0.325 NA
ATOM     52  H   UNK A  0       -7.312   5.645  -0.315  0.00  0.00    +0.119 HD
ATOM     53  H   UNK A  0       -6.060   4.628  -0.584  0.00  0.00    +0.119 HD
ENDBRANCH  50  51
BRANCH  50  54
ATOM     54  C   UNK A  0       -6.566   6.596  -2.555  0.00  0.00    +0.133 C 
BRANCH  54  55
ATOM     55  O   UNK A  0       -7.887   7.062  -2.243  0.00  0.00    -0.390 OA
ATOM     56  H   UNK A  0       -8.511   6.317  -2.275  0.00  0.00    +0.210 HD
ENDBRANCH  54  55
BRANCH  54  57
ATOM     57  C   UNK A  0       -6.620   5.250  -3.297  0.00  0.00    +0.048 C 
BRANCH  57  58
ATOM     58  C   UNK A  0       -7.310   5.319  -4.660  0.00  0.00    +0.080 C 
BRANCH  58  59
ATOM     59  N   UNK A  0       -6.660   6.251  -5.571  0.00  0.00    -0.330 NA
ATOM     60  H   UNK A  0       -6.945   7.205  -5.347  0.00  0.00    +0.118 HD
ATOM     61  H   UNK A  0       -5.647   6.216  -5.452  0.00  0.00    +0.118 HD
ENDBRANCH  58  59
ENDBRANCH  57  58
ENDBRANCH  54  57
ENDBRANCH  50  54
ENDBRANCH  49  50
ENDBRANCH  47  49
ENDBRANCH   7  45
BRANCH  12  62
ATOM     62  CB  SER A  2        0.831  11.330  -3.256  0.00  0.00    +0.187 C 
BRANCH  62  63
ATOM     63  OG  SER A  2        0.839  11.268  -4.684  0.00  0.00    -0.393 OA
ATOM     64  H   SER A  2        0.621  12.159  -5.011  0.00  0.00    +0.209 HD
ENDBRANCH  62  63
ENDBRANCH  12  62
BRANCH  17  65
ATOM     65  C   UNK A  3        0.890  11.586   2.022  0.00  0.00    +0.187 C 
BRANCH  65  66
ATOM     66  O   UNK A  3        1.680  10.447   2.346  0.00  0.00    -0.393 OA
ATOM     67  H   UNK A  3        2.287  10.697   3.063  0.00  0.00    +0.209 HD
ENDBRANCH  65  66
ENDBRANCH  17  65
TORSDOF 15
