REMARK  Name = *****
REMARK                            x       y       z     vdW  Elec       q    Type
REMARK                         _______ _______ _______ _____ _____    ______ ____
ROOT
ATOM      1  C   LIG    1        1.239   1.798   4.339  0.00  0.00    +0.138 A 
ATOM      2  C   LIG    1        2.157   0.856   4.785  0.00  0.00    +0.107 A 
ATOM      3  C   LIG    1        3.289   0.973   5.674  0.00  0.00    +0.221 C 
ATOM      4  C   LIG    1        3.907  -0.422   5.803  0.00  0.00    +0.231 C 
ATOM      5  C   LIG    1        3.791  -0.979   7.243  0.00  0.00    +0.053 C 
ATOM      6  C   LIG    1        4.309  -0.032   8.336  0.00  0.00    +0.013 C 
ATOM      7  C   LIG    1        4.524  -2.325   7.330  0.00  0.00    +0.087 C 
ATOM      8  C   LIG    1        5.959  -2.206   6.870  0.00  0.00    +0.160 C 
ATOM      9  O   LIG    1        6.850  -2.922   7.320  0.00  0.00    -0.293 OA
ATOM     10  C   LIG    1        6.280  -1.248   5.783  0.00  0.00    +0.091 C 
ATOM     11  C   LIG    1        5.334  -0.450   5.258  0.00  0.00    +0.152 C 
ATOM     12  O   LIG    1        3.098  -1.268   4.933  0.00  0.00    -0.467 OA
ATOM     13  O   LIG    1        3.665   2.007   6.202  0.00  0.00    -0.287 OA
ATOM     14  C   LIG    1        2.114  -0.471   4.400  0.00  0.00    +0.159 A 
ATOM     15  C   LIG    1        1.127  -0.919   3.535  0.00  0.00    +0.125 A 
ATOM     16 CL   LIG    1        1.084  -2.583   3.072  0.00  0.00    -0.076 Cl
ATOM     17  C   LIG    1        0.174  -0.000   3.057  0.00  0.00    +0.145 A 
ATOM     18  C   LIG    1        0.245   1.349   3.462  0.00  0.00    +0.093 A 
ENDROOT
BRANCH   1  20
ATOM     19  C   LIG    1        0.442   4.041   4.312  0.00  0.00    +0.277 C 
ATOM     20  O   LIG    1        1.369   3.074   4.793  0.00  0.00    -0.494 OA
ENDBRANCH   1  20
BRANCH  11  21
ATOM     21  O   LIG    1        5.538   0.397   4.181  0.00  0.00    -0.495 OA
ATOM     22  C   LIG    1        6.856   0.898   3.980  0.00  0.00    +0.277 C 
ENDBRANCH  11  21
BRANCH  17  23
ATOM     23  O   LIG    1       -0.791  -0.491   2.212  0.00  0.00    -0.493 OA
ATOM     24  C   LIG    1       -1.767   0.419   1.719  0.00  0.00    +0.277 C 
ENDBRANCH  17  23
TORSDOF 3
