REMARK  Name = *****
REMARK                            x       y       z     vdW  Elec       q    Type
REMARK                         _______ _______ _______ _____ _____    ______ ____
ROOT
ATOM      1  C   LIG    1       -9.870   2.004   0.155  0.00  0.00    +0.044 C 
ATOM      2  C   LIG    1       -9.483   0.538   0.330  0.00  0.00    +0.006 C 
ATOM      3  C   LIG    1       -8.983   0.054  -1.031  0.00  0.00    -0.001 C 
ATOM      4  C   LIG    1       -9.190  -1.468  -0.996  0.00  0.00    +0.034 C 
ATOM      5  C   LIG    1      -10.164  -1.686   0.146  0.00  0.00    -0.073 C 
ATOM      6  C   LIG    1      -10.400  -2.867   0.743  0.00  0.00    -0.027 C 
ATOM      7  C   LIG    1       -9.866   0.811  -2.026  0.00  0.00    +0.036 C 
ATOM      8  C   LIG    1      -10.684  -0.358   0.612  0.00  0.00    +0.035 C 
ATOM      9  C   LIG    1      -10.181   2.156  -1.354  0.00  0.00    +0.122 C 
ENDROOT
BRANCH   1  11
ATOM     10  C   LIG    1       -8.597   3.433   1.795  0.00  0.00    +0.000 C 
ATOM     11  C   LIG    1       -8.718   2.888   0.572  0.00  0.00    -0.022 C 
BRANCH  10  12
ATOM     12  C   LIG    1       -7.466   4.307   2.283  0.00  0.00    +0.141 C 
BRANCH  12  13
ATOM     13  C   LIG    1       -7.921   5.704   2.778  0.00  0.00    +0.030 C 
ATOM     14  C   LIG    1       -8.998   5.638   3.872  0.00  0.00    +0.011 C 
BRANCH  13  15
ATOM     15  C   LIG    1       -6.715   6.554   3.245  0.00  0.00    +0.095 C 
BRANCH  15  18
ATOM     16  C   LIG    1       -5.135   4.761   6.611  0.00  0.00    +0.106 C 
ATOM     17  C   LIG    1       -5.627   5.472   5.428  0.00  0.00    -0.106 C 
ATOM     18  C   LIG    1       -6.078   5.997   4.454  0.00  0.00    -0.102 C 
ENDBRANCH  15  18
ENDBRANCH  13  15
ENDBRANCH  12  13
BRANCH  12  19
ATOM     19  O   LIG    1       -6.518   4.484   1.228  0.00  0.00    -0.388 OA
ATOM     20  H   LIG    1       -7.007   4.857   0.474  0.00  0.00    +0.210 HD
ENDBRANCH  12  19
ENDBRANCH  10  12
ENDBRANCH   1  11
BRANCH   9  21
ATOM     21  O   LIG    1      -11.545   2.505  -1.566  0.00  0.00    -0.391 OA
ATOM     22  H   LIG    1      -12.100   1.774  -1.244  0.00  0.00    +0.210 HD
ENDBRANCH   9  21
BRANCH   6  23
ATOM     23  C   LIG    1      -11.251  -3.055   1.972  0.00  0.00    +0.028 C 
BRANCH  23  24
ATOM     24  C   LIG    1      -12.715  -3.359   1.637  0.00  0.00    +0.015 C 
BRANCH  24  25
ATOM     25  C   LIG    1      -13.571  -3.558   2.893  0.00  0.00    +0.121 C 
BRANCH  25  26
ATOM     26  C   LIG    1      -13.601  -2.338   3.789  0.00  0.00    +0.305 C 
ATOM     27  O   LIG    1      -13.536  -1.185   3.393  0.00  0.00    -0.251 OA
BRANCH  26  28
ATOM     28  O   LIG    1      -13.735  -2.638   5.101  0.00  0.00    -0.481 OA
ATOM     29  H   LIG    1      -13.782  -3.591   5.306  0.00  0.00    +0.295 HD
ENDBRANCH  26  28
ENDBRANCH  25  26
ENDBRANCH  24  25
ENDBRANCH  23  24
ENDBRANCH   6  23
TORSDOF 12
