REMARK  Name = *****
REMARK                            x       y       z     vdW  Elec       q    Type
REMARK                         _______ _______ _______ _____ _____    ______ ____
ROOT
ATOM      1  C   LIG    1        1.155  -0.116   0.704  0.00  0.00    +0.035 C 
ATOM      2  C   LIG    1        2.666   0.071   0.752  0.00  0.00    -0.028 C 
ATOM      3  C   LIG    1        3.277   1.198   0.292  0.00  0.00    -0.042 C 
ATOM      4  C   LIG    1        3.078   2.689   0.687  0.00  0.00    +0.069 C 
ATOM      5  C   LIG    1        4.056   3.671  -0.075  0.00  0.00    -0.004 C 
ATOM      6  C   LIG    1        4.931   3.230  -1.005  0.00  0.00    +0.025 C 
ATOM      7  C   LIG    1        4.965   1.788  -1.409  0.00  0.00    +0.065 C 
ATOM      8  N   LIG    1        5.658   4.107  -1.784  0.00  0.00    -0.326 N 
ATOM      9  H   LIG    1        6.301   3.754  -2.482  0.00  0.00    +0.169 HD
ATOM     10  C   LIG    1        5.451   5.453  -1.805  0.00  0.00    +0.249 C 
ATOM     11  O   LIG    1        6.040   6.208  -2.590  0.00  0.00    -0.268 OA
ATOM     12  C   LIG    1        4.448   5.967  -0.852  0.00  0.00    +0.070 C 
ATOM     13  C   LIG    1        3.842   5.120  -0.002  0.00  0.00    +0.013 C 
ATOM     14  C   LIG    1        1.640   3.016   0.229  0.00  0.00    +0.061 C 
ATOM     15  C   LIG    1        1.459   2.631  -1.246  0.00  0.00    -0.074 C 
ATOM     16  C   LIG    1        0.169   3.105  -1.832  0.00  0.00    +0.038 C 
ATOM     17  C   LIG    1        2.377   1.875  -1.909  0.00  0.00    -0.020 C 
ATOM     18  C   LIG    1        3.572   1.173  -1.204  0.00  0.00    +0.045 C 
ENDROOT
BRANCH   4  19
ATOM     19  N   LIG    1        3.279   2.837   2.132  0.00  0.00    -0.317 NA
ATOM     20  H   LIG    1        4.233   2.542   2.343  0.00  0.00    +0.119 HD
ATOM     21  H   LIG    1        3.237   3.821   2.384  0.00  0.00    +0.119 HD
ENDBRANCH   4  19
TORSDOF 1
