REMARK  Name = *****
REMARK                            x       y       z     vdW  Elec       q    Type
REMARK                         _______ _______ _______ _____ _____    ______ ____
ROOT
ATOM      1  C   LIG    1        4.136   0.726  -3.375  0.00  0.00    +0.173 C 
ENDROOT
BRANCH   1   7
ATOM      2  O   LIG    1        1.009  -2.065  -5.786  0.00  0.00    -0.158 OA
ATOM      3  S   LIG    1        2.074  -2.273  -4.833  0.00  0.00    +0.032 S 
ATOM      4  N   LIG    1        3.444  -1.506  -5.390  0.00  0.00    -0.180 NA
ATOM      5  H   LIG    1        4.314  -1.843  -4.987  0.00  0.00    +0.149 HD
ATOM      6  C   LIG    1        3.329  -0.078  -5.570  0.00  0.00    +0.192 C 
ATOM      7  N   LIG    1        3.044   0.646  -4.338  0.00  0.00    -0.274 NA
ATOM      8  C   LIG    1        1.786   0.173  -3.728  0.00  0.00    +0.111 C 
ATOM      9  C   LIG    1        1.739  -1.308  -3.382  0.00  0.00    +0.200 C 
ATOM     10  O   LIG    1        2.485  -3.596  -4.420  0.00  0.00    -0.158 OA
ENDBRANCH   1   7
BRANCH   1  11
ATOM     11  N   LIG    1        5.358   1.296  -3.933  0.00  0.00    -0.274 NA
ATOM     12  C   LIG    1        5.219   2.585  -4.598  0.00  0.00    +0.192 C 
ATOM     13  N   LIG    1        4.954   3.676  -3.691  0.00  0.00    -0.180 NA
ATOM     14  H   LIG    1        4.005   3.743  -3.331  0.00  0.00    +0.149 HD
ATOM     15  S   LIG    1        6.147   3.986  -2.571  0.00  0.00    +0.032 S 
ATOM     16  O   LIG    1        7.362   4.326  -3.277  0.00  0.00    -0.158 OA
ATOM     17  O   LIG    1        5.564   4.863  -1.583  0.00  0.00    -0.158 OA
ATOM     18  C   LIG    1        6.336   2.374  -1.853  0.00  0.00    +0.200 C 
ATOM     19  C   LIG    1        6.462   1.329  -2.954  0.00  0.00    +0.111 C 
ENDBRANCH   1  11
TORSDOF 2
