REMARK  Name = *****
REMARK                            x       y       z     vdW  Elec       q    Type
REMARK                         _______ _______ _______ _____ _____    ______ ____
ROOT
ATOM      1  C   LIG    1       -9.211   0.169   9.658  0.00  0.00    +0.127 C 
ATOM      2  C   LIG    1       -8.629   1.116   8.577  0.00  0.00    +0.015 C 
ATOM      3  C   LIG    1       -8.200   0.439   7.276  0.00  0.00    +0.010 C 
ATOM      4  C   LIG    1       -7.561   2.059   9.132  0.00  0.00    +0.011 C 
ATOM      5  C   LIG    1       -7.936   2.675  10.490  0.00  0.00    +0.065 C 
ATOM      6  C   LIG    1       -9.284   2.172  11.037  0.00  0.00    +0.174 C 
ATOM      7  O   LIG    1      -10.390   2.619  10.259  0.00  0.00    -0.345 OA
ATOM      8  C   LIG    1      -10.743   3.999  10.304  0.00  0.00    +0.129 C 
ATOM      9  C   LIG    1      -10.299   4.789   9.038  0.00  0.00    +0.059 C 
ATOM     10  C   LIG    1      -11.353   5.816   8.706  0.00  0.00    -0.023 C 
ATOM     11  C   LIG    1      -11.319   7.161   8.576  0.00  0.00    -0.048 C 
ATOM     12  C   LIG    1      -12.660   7.832   8.440  0.00  0.00    +0.041 C 
ATOM     13  C   LIG    1      -10.087   8.065   8.604  0.00  0.00    +0.153 C 
ATOM     14  C   LIG    1      -10.047   9.123   9.757  0.00  0.00    +0.042 C 
ATOM     15  C   LIG    1      -11.062  10.267   9.752  0.00  0.00    +0.014 C 
ATOM     16  C   LIG    1      -10.072   8.438  11.085  0.00  0.00    -0.021 C 
ATOM     17  C   LIG    1       -9.175   8.738  12.027  0.00  0.00    -0.004 C 
ATOM     18  C   LIG    1       -9.013   7.864  13.136  0.00  0.00    +0.004 C 
ATOM     19  C   LIG    1       -8.625   8.212  14.361  0.00  0.00    -0.009 C 
ATOM     20  C   LIG    1       -8.631   7.323  15.565  0.00  0.00    +0.134 C 
ATOM     21  C   LIG    1       -9.638   8.249  16.288  0.00  0.00    +0.188 C 
ATOM     22  C   LIG    1       -9.924   7.804  17.705  0.00  0.00    +0.172 C 
ATOM     23  C   LIG    1      -10.540   6.428  17.608  0.00  0.00    -0.045 C 
ATOM     24  C   LIG    1      -11.610   6.132  18.612  0.00  0.00    +0.041 C 
ATOM     25  C   LIG    1      -10.186   5.557  16.633  0.00  0.00    -0.008 C 
ATOM     26  O   LIG    1       -9.089   9.582  16.198  0.00  0.00    -0.366 OA
ATOM     27  C   LIG    1       -9.033   5.811  15.665  0.00  0.00    +0.159 C 
ATOM     28  C   LIG    1       -9.008   5.006  14.341  0.00  0.00    +0.318 C 
ATOM     29  O   LIG    1       -8.035   4.910  13.641  0.00  0.00    -0.250 OA
ATOM     30  O   LIG    1      -10.216   4.421  14.047  0.00  0.00    -0.461 OA
ATOM     31  C   LIG    1      -10.393   3.736  12.769  0.00  0.00    +0.184 C 
ATOM     32  C   LIG    1       -8.504   9.627  14.871  0.00  0.00    +0.194 C 
ATOM     33  C   LIG    1      -10.353   4.701  11.598  0.00  0.00    +0.076 C 
ATOM     34  C   LIG    1       -9.490   2.519  12.537  0.00  0.00    +0.109 C 
ATOM     35  O   LIG    1       -9.210   0.736  10.979  0.00  0.00    -0.345 OA
ENDROOT
BRANCH   1  36
ATOM     36  C   LIG    1       -8.597  -1.258   9.748  0.00  0.00    +0.015 C 
ATOM     37  C   LIG    1       -7.133  -1.247  10.211  0.00  0.00    +0.010 C 
BRANCH  36  39
ATOM     38  C   LIG    1      -10.872  -2.313  10.357  0.00  0.00    +0.004 C 
ATOM     39  C   LIG    1       -9.393  -2.189  10.699  0.00  0.00    +0.002 C 
ENDBRANCH  36  39
ENDBRANCH   1  36
BRANCH  20  40
ATOM     40  O   LIG    1       -7.309   7.448  16.136  0.00  0.00    -0.380 OA
ATOM     41  H   LIG    1       -7.411   7.289  17.096  0.00  0.00    +0.211 HD
ENDBRANCH  20  40
BRANCH  22  42
ATOM     42  O   LIG    1       -8.724   7.742  18.470  0.00  0.00    -0.385 OA
ATOM     43  H   LIG    1       -8.377   8.657  18.462  0.00  0.00    +0.210 HD
ENDBRANCH  22  42
BRANCH  13  44
ATOM     44  O   LIG    1       -9.947   8.779   7.366  0.00  0.00    -0.343 OA
BRANCH  44  45
ATOM     45  C   LIG    1       -9.685   7.945   6.226  0.00  0.00    +0.254 C 
ATOM     46  O   LIG    1       -8.590   7.071   6.444  0.00  0.00    -0.346 OA
ATOM     47  C   LIG    1       -8.214   6.307   5.292  0.00  0.00    +0.150 C 
ATOM     48  C   LIG    1       -9.260   5.274   4.889  0.00  0.00    +0.040 C 
ATOM     49  C   LIG    1       -7.693   7.254   4.188  0.00  0.00    +0.179 C 
ATOM     50  C   LIG    1       -8.855   8.239   3.801  0.00  0.00    +0.154 C 
ATOM     51  C   LIG    1       -9.463   8.898   5.050  0.00  0.00    +0.095 C 
BRANCH  50  52
ATOM     52  O   LIG    1       -9.872   7.520   3.070  0.00  0.00    -0.377 OA
ATOM     53  C   LIG    1      -10.904   8.318   2.490  0.00  0.00    +0.194 C 
ENDBRANCH  50  52
BRANCH  49  54
ATOM     54  O   LIG    1       -6.518   8.009   4.633  0.00  0.00    -0.343 OA
BRANCH  54  55
ATOM     55  C   LIG    1       -5.355   7.212   4.995  0.00  0.00    +0.254 C 
ATOM     56  O   LIG    1       -5.621   6.452   6.172  0.00  0.00    -0.346 OA
ATOM     57  C   LIG    1       -4.589   5.590   6.649  0.00  0.00    +0.149 C 
ATOM     58  C   LIG    1       -4.291   4.420   5.715  0.00  0.00    +0.040 C 
ATOM     59  C   LIG    1       -3.385   6.450   7.031  0.00  0.00    +0.172 C 
ATOM     60  C   LIG    1       -2.957   7.350   5.856  0.00  0.00    +0.153 C 
ATOM     61  C   LIG    1       -4.168   8.137   5.307  0.00  0.00    +0.095 C 
BRANCH  59  62
ATOM     62  O   LIG    1       -3.756   7.285   8.142  0.00  0.00    -0.387 OA
ATOM     63  H   LIG    1       -4.685   7.555   7.994  0.00  0.00    +0.210 HD
ENDBRANCH  59  62
BRANCH  60  64
ATOM     64  O   LIG    1       -2.370   6.622   4.766  0.00  0.00    -0.377 OA
ATOM     65  C   LIG    1       -1.217   5.860   5.114  0.00  0.00    +0.194 C 
ENDBRANCH  60  64
ENDBRANCH  54  55
ENDBRANCH  49  54
ENDBRANCH  44  45
ENDBRANCH  13  44
TORSDOF 11
