REMARK  Name = *****
REMARK                            x       y       z     vdW  Elec       q    Type
REMARK                         _______ _______ _______ _____ _____    ______ ____
ROOT
ATOM      1  C   LIG    1        4.258  -1.128   0.304  0.00  0.00    +0.064 A 
ATOM      2  C   LIG    1        5.190  -1.973  -0.353  0.00  0.00    +0.049 A 
ATOM      3  I   LIG    1        4.510  -3.353  -1.886  0.00  0.00    -0.041 I 
ATOM      4  C   LIG    1        6.580  -1.722  -0.238  0.00  0.00    +0.065 A 
ATOM      5  C   LIG    1        6.982  -0.427   0.148  0.00  0.00    +0.040 A 
ATOM      6  I   LIG    1        8.854   0.264  -0.639  0.00  0.00    -0.042 I 
ATOM      7  C   LIG    1        6.088   0.433   0.814  0.00  0.00    +0.065 A 
ATOM      8  C   LIG    1        4.780  -0.037   1.041  0.00  0.00    +0.049 A 
ATOM      9  I   LIG    1        3.656   0.757   2.718  0.00  0.00    -0.041 I 
ENDROOT
BRANCH   4  10
ATOM     10  C   LIG    1        7.598  -2.838  -0.359  0.00  0.00    +0.246 C 
ATOM     11  N   LIG    1        8.676  -2.790   0.526  0.00  0.00    -0.309 N 
ATOM     12  H   LIG    1        8.811  -2.009   1.156  0.00  0.00    +0.149 HD
ATOM     13  O   LIG    1        7.471  -3.759  -1.123  0.00  0.00    -0.270 OA
BRANCH  11  14
ATOM     14  C   LIG    1        9.682  -3.850   0.570  0.00  0.00    +0.138 C 
BRANCH  14  15
ATOM     15  C   LIG    1       11.057  -3.323   1.006  0.00  0.00    +0.157 C 
BRANCH  15  16
ATOM     16  O   LIG    1       10.970  -2.734   2.320  0.00  0.00    -0.388 OA
ATOM     17  H   LIG    1       10.634  -3.416   2.931  0.00  0.00    +0.210 HD
ENDBRANCH  15  16
BRANCH  15  18
ATOM     18  C   LIG    1       12.130  -4.422   1.025  0.00  0.00    +0.188 C 
BRANCH  18  19
ATOM     19  O   LIG    1       13.382  -3.861   1.422  0.00  0.00    -0.392 OA
ATOM     20  H   LIG    1       13.184  -3.193   2.106  0.00  0.00    +0.209 HD
ENDBRANCH  18  19
ENDBRANCH  15  18
ENDBRANCH  14  15
ENDBRANCH  11  14
ENDBRANCH   4  10
BRANCH   7  21
ATOM     21  C   LIG    1        6.426   1.834   1.232  0.00  0.00    +0.246 C 
ATOM     22  N   LIG    1        7.669   2.032   1.782  0.00  0.00    -0.309 N 
ATOM     23  H   LIG    1        8.377   1.376   1.485  0.00  0.00    +0.149 HD
ATOM     24  O   LIG    1        5.612   2.745   1.080  0.00  0.00    -0.270 OA
BRANCH  22  25
ATOM     25  C   LIG    1        8.123   3.360   2.197  0.00  0.00    +0.138 C 
BRANCH  25  26
ATOM     26  C   LIG    1        9.557   3.322   2.759  0.00  0.00    +0.157 C 
BRANCH  26  27
ATOM     27  O   LIG    1        9.675   2.305   3.770  0.00  0.00    -0.388 OA
ATOM     28  H   LIG    1        9.044   1.598   3.549  0.00  0.00    +0.210 HD
ENDBRANCH  26  27
BRANCH  26  29
ATOM     29  C   LIG    1       10.607   3.041   1.677  0.00  0.00    +0.188 C 
BRANCH  29  30
ATOM     30  O   LIG    1       11.917   2.999   2.236  0.00  0.00    -0.392 OA
ATOM     31  H   LIG    1       11.889   2.322   2.939  0.00  0.00    +0.209 HD
ENDBRANCH  29  30
ENDBRANCH  26  29
ENDBRANCH  25  26
ENDBRANCH  22  25
ENDBRANCH   7  21
BRANCH   1  34
ATOM     32  O   LIG    1        0.838  -0.492  -0.709  0.00  0.00    -0.273 OA
ATOM     33  C   LIG    1        2.035  -0.298  -0.464  0.00  0.00    +0.245 C 
ATOM     34  N   LIG    1        2.834  -1.282   0.150  0.00  0.00    -0.265 N 
BRANCH  34  35
ATOM     35  C   LIG    1        2.205  -2.563   0.553  0.00  0.00    +0.141 C 
BRANCH  35  36
ATOM     36  C   LIG    1        1.598  -2.569   1.964  0.00  0.00    +0.175 C 
BRANCH  36  37
ATOM     37  O   LIG    1        2.583  -2.344   2.970  0.00  0.00    -0.393 OA
ATOM     38  H   LIG    1        3.208  -3.087   2.967  0.00  0.00    +0.209 HD
ENDBRANCH  36  37
ENDBRANCH  35  36
ENDBRANCH  34  35
BRANCH  33  39
ATOM     39  C   LIG    1        2.685   1.025  -0.945  0.00  0.00    +0.252 C 
BRANCH  39  40
ATOM     40  O   LIG    1        3.287   0.940  -2.223  0.00  0.00    -0.386 OA
ATOM     41  H   LIG    1        2.578   0.700  -2.845  0.00  0.00    +0.210 HD
ENDBRANCH  39  40
ENDBRANCH  33  39
ENDBRANCH   1  34
TORSDOF 18
