REMARK  Name = *****
REMARK                            x       y       z     vdW  Elec       q    Type
REMARK                         _______ _______ _______ _____ _____    ______ ____
ROOT
ATOM      1  CA  HYP A  1        2.952  -1.266   0.508  0.00  0.00    +0.166 C 
ATOM      2  N   HYP A  1        2.755  -1.759   1.888  0.00  0.00    -0.302 NA
ATOM      3  H   HYP A  1        3.201  -1.143   2.567  0.00  0.00    +0.123 HD
ATOM      4  CD  HYP A  1        3.300  -3.116   1.905  0.00  0.00    +0.113 C 
ATOM      5  CG  HYP A  1        2.711  -3.677   0.616  0.00  0.00    +0.130 C 
ATOM      6  CB  HYP A  1        2.795  -2.514  -0.367  0.00  0.00    +0.062 C 
ENDROOT
BRANCH   1   8
ATOM      7  O   HYP A  1        1.289   0.476   0.981  0.00  0.00    -0.249 OA
ATOM      8  C   HYP A  1        1.967  -0.138   0.169  0.00  0.00    +0.322 C 
BRANCH   8   9
ATOM      9  OXT HYP A  1        1.978   0.210  -1.143  0.00  0.00    -0.479 OA
ATOM     10  HXT HYP A  1        2.576  -0.316  -1.704  0.00  0.00    +0.295 HD
ENDBRANCH   8   9
ENDBRANCH   1   8
BRANCH   5  11
ATOM     11  OD  HYP A  1        1.337  -4.014   0.812  0.00  0.00    -0.391 OA
ATOM     12  HD  HYP A  1        0.958  -3.285   1.346  0.00  0.00    +0.210 HD
ENDBRANCH   5  11
TORSDOF 3
