REMARK  Name = *****
REMARK                            x       y       z     vdW  Elec       q    Type
REMARK                         _______ _______ _______ _____ _____    ______ ____
ROOT
ATOM      1  N   LIG    1        5.689   0.019   5.208  0.00  0.00    -0.341 N 
ATOM      2  H   LIG    1        5.646   0.944   5.619  0.00  0.00    +0.146 HD
ENDROOT
BRANCH   1   3
ATOM      3  C   LIG    1        5.096  -0.989   6.010  0.00  0.00    +0.038 A 
ATOM      4  C   LIG    1        4.257  -0.669   7.127  0.00  0.00    +0.021 A 
ATOM      5  C   LIG    1        3.670  -1.735   7.852  0.00  0.00    +0.074 A 
ATOM      6  C   LIG    1        2.878  -1.479   8.962  0.00  0.00    +0.048 A 
ATOM      7  C   LIG    1        2.632  -0.169   9.379  0.00  0.00    +0.043 A 
ATOM      8  C   LIG    1        3.167   0.892   8.680  0.00  0.00    +0.021 A 
ATOM      9 CL   LIG    1        1.658   0.126  10.766  0.00  0.00    -0.084 Cl
ATOM     10  N   LIG    1        3.843  -3.020   7.518  0.00  0.00    -0.255 NA
ATOM     11  C   LIG    1        4.579  -3.299   6.439  0.00  0.00    +0.113 A 
ATOM     12  C   LIG    1        3.968   0.655   7.562  0.00  0.00    +0.013 A 
ATOM     13  C   LIG    1        5.222  -2.349   5.671  0.00  0.00    +0.043 A 
ENDBRANCH   1   3
BRANCH   1  14
ATOM     14  C   LIG    1        6.925  -0.195   4.440  0.00  0.00    +0.067 C 
ATOM     15  C   LIG    1        7.995   0.795   4.929  0.00  0.00    +0.027 C 
BRANCH  14  16
ATOM     16  C   LIG    1        6.685   0.063   2.938  0.00  0.00    +0.023 C 
BRANCH  16  17
ATOM     17  C   LIG    1        5.665  -0.879   2.292  0.00  0.00    +0.017 C 
BRANCH  17  18
ATOM     18  C   LIG    1        5.552  -0.685   0.762  0.00  0.00    +0.084 C 
BRANCH  18  19
ATOM     19  N   LIG    1        5.042   0.618   0.311  0.00  0.00    -0.300 NA
BRANCH  19  21
ATOM     20  C   LIG    1        6.158   0.456  -1.984  0.00  0.00    +0.020 C 
ATOM     21  C   LIG    1        4.917   0.759  -1.151  0.00  0.00    +0.081 C 
ENDBRANCH  19  21
BRANCH  19  22
ATOM     22  C   LIG    1        3.803   1.084   0.980  0.00  0.00    +0.112 C 
BRANCH  22  23
ATOM     23  C   LIG    1        2.468   0.380   0.651  0.00  0.00    +0.171 C 
BRANCH  23  24
ATOM     24  O   LIG    1        2.426  -0.975   1.073  0.00  0.00    -0.394 OA
ATOM     25  H   LIG    1        3.111  -1.450   0.575  0.00  0.00    +0.209 HD
ENDBRANCH  23  24
ENDBRANCH  22  23
ENDBRANCH  19  22
ENDBRANCH  18  19
ENDBRANCH  17  18
ENDBRANCH  16  17
ENDBRANCH  14  16
ENDBRANCH   1  14
TORSDOF 10
