REMARK  Name = *****
REMARK                            x       y       z     vdW  Elec       q    Type
REMARK                         _______ _______ _______ _____ _____    ______ ____
ROOT
ATOM      1  C   LIG    1        6.487   2.133  -2.076  0.00  0.00    +0.157 A 
ATOM      2  C   LIG    1        7.218   3.051  -2.806  0.00  0.00    +0.161 A 
ATOM      3  N   LIG    1        8.517   3.346  -2.581  0.00  0.00    -0.218 NA
ATOM      4  C   LIG    1        9.089   2.637  -1.610  0.00  0.00    +0.235 A 
ATOM      5  N   LIG    1        8.523   1.686  -0.864  0.00  0.00    -0.218 NA
ATOM      6  C   LIG    1        7.209   1.473  -1.103  0.00  0.00    +0.161 A 
ENDROOT
BRANCH   4   7
ATOM      7  N   LIG    1       10.387   2.976  -1.249  0.00  0.00    -0.184 N 
ATOM      8  H   LIG    1       10.877   2.185  -0.844  0.00  0.00    +0.177 HD
BRANCH   7   9
ATOM      9  S   LIG    1       10.458   4.256  -0.169  0.00  0.00    +0.075 S 
ATOM     10  O   LIG    1       11.791   4.210   0.400  0.00  0.00    -0.150 OA
ATOM     11  O   LIG    1        9.298   4.253   0.696  0.00  0.00    -0.150 OA
BRANCH   9  12
ATOM     12  C   LIG    1       10.410   5.723  -1.172  0.00  0.00    +0.109 A 
ATOM     13  C   LIG    1        9.412   6.679  -0.955  0.00  0.00    +0.029 A 
ATOM     14  C   LIG    1        9.460   7.895  -1.638  0.00  0.00    +0.002 A 
ATOM     15  C   LIG    1       10.497   8.149  -2.538  0.00  0.00    +0.000 A 
ATOM     16  C   LIG    1       11.484   7.187  -2.762  0.00  0.00    +0.002 A 
ATOM     17  C   LIG    1       11.448   5.974  -2.076  0.00  0.00    +0.029 A 
ENDBRANCH   9  12
ENDBRANCH   7   9
ENDBRANCH   4   7
BRANCH   1  18
ATOM     18  O   LIG    1        5.170   1.994  -2.386  0.00  0.00    -0.487 OA
BRANCH  18  19
ATOM     19  C   LIG    1        4.415   1.084  -1.582  0.00  0.00    +0.257 C 
BRANCH  19  20
ATOM     20  C   LIG    1        2.964   1.088  -2.058  0.00  0.00    +0.200 C 
BRANCH  20  22
ATOM     21  C   LIG    1        0.854   0.100  -1.699  0.00  0.00    +0.194 C 
ATOM     22  O   LIG    1        2.217   0.144  -1.293  0.00  0.00    -0.380 OA
ENDBRANCH  20  22
ENDBRANCH  19  20
ENDBRANCH  18  19
ENDBRANCH   1  18
TORSDOF 7
