REMARK  Name = *****
REMARK                            x       y       z     vdW  Elec       q    Type
REMARK                         _______ _______ _______ _____ _____    ______ ____
ROOT
ATOM      1  C   LIG    1        6.767   2.821   0.901  0.00  0.00    +0.146 C 
ENDROOT
BRANCH   1   2
ATOM      2  C   LIG    1        7.953   3.716   0.448  0.00  0.00    -0.004 A 
ATOM      3  C   LIG    1        7.828   5.116   0.410  0.00  0.00    +0.007 A 
ATOM      4  C   LIG    1        8.853   5.956  -0.040  0.00  0.00    +0.000 A 
ATOM      5  C   LIG    1       10.083   5.424  -0.396  0.00  0.00    +0.000 A 
ATOM      6  C   LIG    1       10.275   4.050  -0.304  0.00  0.00    +0.000 A 
ATOM      7  C   LIG    1        9.223   3.205   0.100  0.00  0.00    +0.007 A 
ENDBRANCH   1   2
BRANCH   1   8
ATOM      8  C   LIG    1        6.817   2.474   2.464  0.00  0.00    +0.049 C 
ATOM      9  C   LIG    1        5.721   1.427   2.851  0.00  0.00    +0.013 C 
BRANCH   8  10
ATOM     10  C   LIG    1        6.655   3.662   3.482  0.00  0.00    +0.091 C 
BRANCH  10  11
ATOM     11  N   LIG    1        7.557   4.830   3.502  0.00  0.00    -0.308 NA
ATOM     12  C   LIG    1        8.981   4.516   3.643  0.00  0.00    +0.104 C 
ATOM     13  C   LIG    1        7.170   5.747   4.585  0.00  0.00    +0.104 C 
ENDBRANCH  10  11
ENDBRANCH   8  10
ENDBRANCH   1   8
BRANCH   1  14
ATOM     14  O   LIG    1        6.783   1.627   0.041  0.00  0.00    -0.453 OA
BRANCH  14  15
ATOM     15  C   LIG    1        7.507   0.480   0.214  0.00  0.00    +0.308 C 
ATOM     16  O   LIG    1        8.064   0.120   1.223  0.00  0.00    -0.251 OA
BRANCH  15  18
ATOM     17  C   LIG    1        6.816   0.403  -2.253  0.00  0.00    +0.015 C 
ATOM     18  C   LIG    1        7.626  -0.238  -1.136  0.00  0.00    +0.117 C 
ENDBRANCH  15  18
ENDBRANCH  14  15
ENDBRANCH   1  14
BRANCH   1  19
ATOM     19  C   LIG    1        5.344   3.440   0.533  0.00  0.00    +0.088 C 
BRANCH  19  20
ATOM     20  C   LIG    1        4.893   3.701  -0.915  0.00  0.00    -0.043 A 
ATOM     21  C   LIG    1        5.057   4.961  -1.512  0.00  0.00    +0.004 A 
ATOM     22  C   LIG    1        4.432   5.289  -2.723  0.00  0.00    +0.000 A 
ATOM     23  C   LIG    1        3.647   4.353  -3.385  0.00  0.00    +0.000 A 
ATOM     24  C   LIG    1        3.521   3.074  -2.850  0.00  0.00    +0.000 A 
ATOM     25  C   LIG    1        4.136   2.752  -1.628  0.00  0.00    +0.004 A 
ENDBRANCH  19  20
ENDBRANCH   1  19
TORSDOF 9
