REMARK  Name = *****
REMARK                            x       y       z     vdW  Elec       q    Type
REMARK                         _______ _______ _______ _____ _____    ______ ____
ROOT
ATOM      1  C   LIG    1       -2.622  12.968  -9.091  0.00  0.00    +0.064 A 
ATOM      2  C   LIG    1       -3.660  12.010  -8.857  0.00  0.00    +0.049 A 
ATOM      3  I   LIG    1       -5.700  12.747  -8.660  0.00  0.00    -0.041 I 
ATOM      4  C   LIG    1       -3.401  10.610  -8.943  0.00  0.00    +0.065 A 
ATOM      5  C   LIG    1       -2.162  10.205  -9.522  0.00  0.00    +0.040 A 
ATOM      6  I   LIG    1       -1.985   8.255 -10.427  0.00  0.00    -0.042 I 
ATOM      7  C   LIG    1       -1.114  11.131  -9.771  0.00  0.00    +0.065 A 
ATOM      8  C   LIG    1       -1.335  12.488  -9.465  0.00  0.00    +0.049 A 
ATOM      9  I   LIG    1        0.418  13.810  -9.314  0.00  0.00    -0.041 I 
ENDROOT
BRANCH   4  10
ATOM     10  C   LIG    1       -4.393   9.585  -8.362  0.00  0.00    +0.246 C 
ATOM     11  N   LIG    1       -3.813   8.527  -7.668  0.00  0.00    -0.309 N 
ATOM     12  H   LIG    1       -2.813   8.425  -7.631  0.00  0.00    +0.149 HD
ATOM     13  O   LIG    1       -5.594   9.690  -8.449  0.00  0.00    -0.270 OA
BRANCH  11  14
ATOM     14  C   LIG    1       -4.602   7.441  -7.062  0.00  0.00    +0.138 C 
BRANCH  14  15
ATOM     15  C   LIG    1       -3.731   6.304  -6.476  0.00  0.00    +0.157 C 
BRANCH  15  16
ATOM     16  O   LIG    1       -2.892   6.836  -5.441  0.00  0.00    -0.388 OA
ATOM     17  H   LIG    1       -2.197   7.347  -5.899  0.00  0.00    +0.210 HD
ENDBRANCH  15  16
BRANCH  15  18
ATOM     18  C   LIG    1       -2.861   5.589  -7.516  0.00  0.00    +0.188 C 
BRANCH  18  19
ATOM     19  O   LIG    1       -1.819   6.465  -7.931  0.00  0.00    -0.392 OA
ATOM     20  H   LIG    1       -1.500   6.131  -8.793  0.00  0.00    +0.209 HD
ENDBRANCH  18  19
ENDBRANCH  15  18
ENDBRANCH  14  15
ENDBRANCH  11  14
ENDBRANCH   4  10
BRANCH   1  23
ATOM     21  C   LIG    1       -2.707  16.676 -10.078  0.00  0.00    +0.110 C 
ATOM     22  C   LIG    1       -2.682  15.162 -10.165  0.00  0.00    +0.217 C 
ATOM     23  N   LIG    1       -2.842  14.402  -8.998  0.00  0.00    -0.267 N 
ATOM     24  O   LIG    1       -2.508  14.642 -11.272  0.00  0.00    -0.276 OA
BRANCH  23  25
ATOM     25  C   LIG    1       -3.122  14.971  -7.652  0.00  0.00    +0.147 C 
BRANCH  25  26
ATOM     26  C   LIG    1       -1.860  15.237  -6.799  0.00  0.00    +0.158 C 
BRANCH  26  27
ATOM     27  O   LIG    1       -1.176  14.019  -6.492  0.00  0.00    -0.388 OA
ATOM     28  H   LIG    1       -0.492  13.896  -7.174  0.00  0.00    +0.210 HD
ENDBRANCH  26  27
BRANCH  26  29
ATOM     29  C   LIG    1       -2.205  15.861  -5.449  0.00  0.00    +0.188 C 
BRANCH  29  30
ATOM     30  O   LIG    1       -2.936  17.065  -5.602  0.00  0.00    -0.392 OA
ATOM     31  H   LIG    1       -2.293  17.776  -5.763  0.00  0.00    +0.209 HD
ENDBRANCH  29  30
ENDBRANCH  26  29
ENDBRANCH  25  26
ENDBRANCH  23  25
ENDBRANCH   1  23
BRANCH   7  32
ATOM     32  C   LIG    1        0.192  10.688 -10.368  0.00  0.00    +0.246 C 
ATOM     33  N   LIG    1        0.664  11.423 -11.423  0.00  0.00    -0.309 N 
ATOM     34  H   LIG    1        0.291  12.362 -11.550  0.00  0.00    +0.149 HD
ATOM     35  O   LIG    1        0.802   9.698  -9.918  0.00  0.00    -0.270 OA
BRANCH  33  36
ATOM     36  C   LIG    1        1.927  11.139 -12.097  0.00  0.00    +0.138 C 
BRANCH  36  37
ATOM     37  C   LIG    1        2.117  12.054 -13.319  0.00  0.00    +0.157 C 
BRANCH  37  38
ATOM     38  O   LIG    1        1.029  11.907 -14.239  0.00  0.00    -0.388 OA
ATOM     39  H   LIG    1        0.996  10.974 -14.517  0.00  0.00    +0.210 HD
ENDBRANCH  37  38
BRANCH  37  40
ATOM     40  C   LIG    1        3.434  11.763 -14.037  0.00  0.00    +0.188 C 
BRANCH  40  41
ATOM     41  O   LIG    1        4.547  11.944 -13.175  0.00  0.00    -0.392 OA
ATOM     42  H   LIG    1        4.753  12.896 -13.159  0.00  0.00    +0.209 HD
ENDBRANCH  40  41
ENDBRANCH  37  40
ENDBRANCH  36  37
ENDBRANCH  33  36
ENDBRANCH   7  32
TORSDOF 18
