REMARK  Name = *****
REMARK                            x       y       z     vdW  Elec       q    Type
REMARK                         _______ _______ _______ _____ _____    ______ ____
ROOT
ATOM      1  C   LIG    1        6.366   0.735   0.216  0.00  0.00    +0.069 C 
ENDROOT
BRANCH   1   2
ATOM      2  C   LIG    1        5.005   0.784   0.924  0.00  0.00    -0.038 A 
ATOM      3  C   LIG    1        4.117  -0.303   0.844  0.00  0.00    +0.006 A 
ATOM      4  C   LIG    1        2.849  -0.236   1.434  0.00  0.00    +0.020 A 
ATOM      5  C   LIG    1        2.462   0.918   2.108  0.00  0.00    +0.041 A 
ATOM      6 CL   LIG    1        0.888   1.017   2.804  0.00  0.00    -0.084 Cl
ATOM      7  C   LIG    1        3.330   1.999   2.214  0.00  0.00    +0.020 A 
ATOM      8  C   LIG    1        4.595   1.931   1.625  0.00  0.00    +0.006 A 
ENDBRANCH   1   2
BRANCH   1   9
ATOM      9  C   LIG    1        7.535   0.932   1.182  0.00  0.00    +0.049 A 
ATOM     10  N   LIG    1        7.950   2.200   1.437  0.00  0.00    -0.259 NA
ATOM     11  C   LIG    1        9.002   2.365   2.272  0.00  0.00    +0.111 A 
ATOM     12  C   LIG    1        9.673   1.318   2.878  0.00  0.00    +0.020 A 
ATOM     13  C   LIG    1        9.224   0.028   2.637  0.00  0.00    +0.003 A 
ATOM     14  C   LIG    1        8.137  -0.175   1.786  0.00  0.00    +0.024 A 
ENDBRANCH   1   9
BRANCH   1  15
ATOM     15  C   LIG    1        6.386   1.748  -0.960  0.00  0.00    +0.029 C 
BRANCH  15  16
ATOM     16  C   LIG    1        7.585   1.602  -1.917  0.00  0.00    +0.085 C 
BRANCH  16  18
ATOM     17  C   LIG    1        6.576   0.004  -3.467  0.00  0.00    +0.104 C 
ATOM     18  N   LIG    1        7.693   0.280  -2.562  0.00  0.00    -0.308 NA
ATOM     19  C   LIG    1        8.960   0.165  -3.293  0.00  0.00    +0.104 C 
ENDBRANCH  16  18
ENDBRANCH  15  16
ENDBRANCH   1  15
TORSDOF 5
