REMARK  Name = *****
REMARK                            x       y       z     vdW  Elec       q    Type
REMARK                         _______ _______ _______ _____ _____    ______ ____
ROOT
ATOM      1  C   LIG    1        1.355  -4.303  -2.656  0.00  0.00    +0.267 C 
ENDROOT
BRANCH   1   2
ATOM      2  C   LIG    1        0.594  -5.335  -3.446  0.00  0.00    -0.007 A 
ATOM      3  C   LIG    1        0.093  -4.994  -4.708  0.00  0.00    +0.053 A 
ATOM      4  C   LIG    1       -0.744  -5.867  -5.407  0.00  0.00    +0.129 A 
ATOM      5  C   LIG    1       -1.052  -7.111  -4.847  0.00  0.00    +0.046 A 
ATOM      6  C   LIG    1       -0.484  -7.496  -3.630  0.00  0.00    +0.004 A 
ATOM      7  C   LIG    1        0.333  -6.609  -2.929  0.00  0.00    +0.007 A 
BRANCH   4   8
ATOM      8  O   LIG    1       -1.381  -5.541  -6.589  0.00  0.00    -0.456 OA
BRANCH   8   9
ATOM      9  C   LIG    1       -0.819  -4.606  -7.433  0.00  0.00    +0.128 A 
ATOM     10  C   LIG    1       -1.685  -3.727  -8.091  0.00  0.00    +0.046 A 
ATOM     11  C   LIG    1       -1.175  -2.787  -8.993  0.00  0.00    +0.004 A 
ATOM     12  C   LIG    1        0.200  -2.709  -9.220  0.00  0.00    +0.000 A 
ATOM     13  C   LIG    1        1.062  -3.589  -8.570  0.00  0.00    +0.004 A 
ATOM     14  C   LIG    1        0.550  -4.558  -7.708  0.00  0.00    +0.046 A 
ENDBRANCH   8   9
ENDBRANCH   4   8
ENDBRANCH   1   2
BRANCH   1  15
ATOM     15  O   LIG    1        2.753  -4.397  -2.919  0.00  0.00    -0.460 OA
BRANCH  15  16
ATOM     16  C   LIG    1        3.426  -5.267  -2.134  0.00  0.00    +0.312 C 
ATOM     17  O   LIG    1        2.939  -5.923  -1.209  0.00  0.00    -0.251 OA
BRANCH  16  20
ATOM     18  C   LIG    1        5.414  -7.609  -1.267  0.00  0.00    +0.012 C 
ATOM     19  C   LIG    1        5.821  -6.438  -2.134  0.00  0.00    -0.014 C 
ATOM     20  C   LIG    1        4.848  -5.329  -2.516  0.00  0.00    +0.111 C 
ATOM     21  C   LIG    1        5.968  -5.043  -1.540  0.00  0.00    +0.035 C 
ATOM     22  C   LIG    1        6.835  -6.833  -3.183  0.00  0.00    +0.012 C 
BRANCH  21  23
ATOM     23  C   LIG    1        5.686  -4.766  -0.120  0.00  0.00    +0.010 C 
ATOM     24  C   LIG    1        5.772  -3.589   0.519  0.00  0.00    +0.103 C 
ATOM     25 CL   LIG    1        5.423  -3.488   2.209  0.00  0.00    -0.071 Cl
ATOM     26 CL   LIG    1        6.239  -2.133  -0.282  0.00  0.00    -0.071 Cl
ENDBRANCH  21  23
ENDBRANCH  16  20
ENDBRANCH  15  16
ENDBRANCH   1  15
TORSDOF 7
