REMARK  Name = *****
REMARK                            x       y       z     vdW  Elec       q    Type
REMARK                         _______ _______ _______ _____ _____    ______ ____
ROOT
ATOM      1  C   LIG    1       -7.973  -0.179  -3.520  0.00  0.00    +0.186 C 
ATOM      2  O   LIG    1       -7.997   1.299  -3.595  0.00  0.00    -0.459 OA
ATOM      3  C   LIG    1       -9.023   2.063  -3.140  0.00  0.00    +0.328 C 
ATOM      4  O   LIG    1      -10.012   1.628  -2.524  0.00  0.00    -0.249 OA
ATOM      5  C   LIG    1       -8.876   3.565  -3.510  0.00  0.00    +0.185 C 
ATOM      6  N   LIG    1       -7.515   3.977  -3.956  0.00  0.00    -0.281 N 
ATOM      7  C   LIG    1       -7.327   4.102  -5.392  0.00  0.00    +0.109 C 
ATOM      8  C   LIG    1       -8.196   5.248  -5.907  0.00  0.00    +0.019 C 
ATOM      9  C   LIG    1       -9.596   5.246  -5.276  0.00  0.00    +0.004 C 
ATOM     10  C   LIG    1       -6.567   4.586  -3.134  0.00  0.00    +0.288 C 
ATOM     11  O   LIG    1       -5.464   4.971  -3.516  0.00  0.00    -0.267 OA
ATOM     12  C   LIG    1       -6.897   4.806  -1.679  0.00  0.00    +0.276 C 
ATOM     13  O   LIG    1       -7.196   5.941  -1.318  0.00  0.00    -0.281 OA
ATOM     14  C   LIG    1       -6.838   3.547  -0.796  0.00  0.00    +0.240 C 
ATOM     15  O   LIG    1       -7.969   3.753   0.052  0.00  0.00    -0.339 OA
ATOM     16  C   LIG    1       -8.198   2.824   1.110  0.00  0.00    +0.125 C 
ATOM     17  C   LIG    1       -6.904   2.366   1.810  0.00  0.00    +0.032 C 
ATOM     18  C   LIG    1       -5.665   2.255   0.940  0.00  0.00    +0.011 C 
ATOM     19  C   LIG    1       -9.135   1.684   0.667  0.00  0.00    +0.067 C 
ATOM     20  C   LIG    1      -10.015   0.997   1.752  0.00  0.00    +0.146 C 
ATOM     21  C   LIG    1      -10.583  -0.358   1.200  0.00  0.00    -0.044 C 
ATOM     22  C   LIG    1      -10.235  -1.549   2.048  0.00  0.00    +0.041 C 
ATOM     23  C   LIG    1      -11.285  -0.487   0.044  0.00  0.00    +0.001 C 
ATOM     24  C   LIG    1      -11.738  -1.705  -0.655  0.00  0.00    +0.000 C 
ATOM     25  C   LIG    1      -10.915  -2.684  -1.080  0.00  0.00    -0.000 C 
ATOM     26  C   LIG    1      -11.229  -3.845  -1.922  0.00  0.00    -0.004 C 
ATOM     27  C   LIG    1      -10.268  -4.724  -2.283  0.00  0.00    -0.024 C 
ATOM     28  C   LIG    1      -10.352  -5.981  -3.135  0.00  0.00    +0.009 C 
ATOM     29  C   LIG    1       -9.005  -6.195  -3.854  0.00  0.00    +0.012 C 
ATOM     30  C   LIG    1      -10.719  -7.328  -2.443  0.00  0.00    +0.018 C 
ATOM     31  C   LIG    1      -11.136  -7.258  -0.975  0.00  0.00    +0.056 C 
ATOM     32  C   LIG    1      -11.942  -8.500  -0.572  0.00  0.00    +0.015 C 
ATOM     33  C   LIG    1       -9.906  -7.160  -0.064  0.00  0.00    +0.167 C 
ATOM     34  O   LIG    1       -9.066  -8.072  -0.058  0.00  0.00    -0.294 OA
ATOM     35  C   LIG    1       -9.710  -5.947   0.882  0.00  0.00    +0.216 C 
ATOM     36  C   LIG    1       -8.250  -5.376   0.568  0.00  0.00    +0.176 C 
ATOM     37  C   LIG    1       -7.880  -4.048   1.227  0.00  0.00    -0.045 C 
ATOM     38  C   LIG    1       -8.109  -4.072   2.733  0.00  0.00    +0.041 C 
ATOM     39  C   LIG    1       -7.328  -2.929   0.679  0.00  0.00    -0.015 C 
ATOM     40  C   LIG    1       -6.664  -2.551  -0.642  0.00  0.00    +0.075 C 
ATOM     41  C   LIG    1       -5.555  -3.548  -0.997  0.00  0.00    +0.019 C 
ATOM     42  C   LIG    1       -7.473  -2.173  -1.924  0.00  0.00    +0.143 C 
ATOM     43  O   LIG    1       -7.624  -2.995  -2.832  0.00  0.00    -0.297 OA
ATOM     44  C   LIG    1       -5.544   3.468   0.017  0.00  0.00    +0.054 C 
ATOM     45  C   LIG    1       -4.292   3.311  -0.850  0.00  0.00    +0.013 C 
ATOM     46  C   LIG    1       -9.925   3.918  -4.588  0.00  0.00    +0.034 C 
ATOM     47  C   LIG    1       -8.021  -0.741  -2.072  0.00  0.00    +0.119 C 
ENDROOT
BRANCH   1  48
ATOM     48  C   LIG    1       -8.898  -0.784  -4.634  0.00  0.00    +0.027 C 
ATOM     49  C   LIG    1       -8.602  -0.023  -5.936  0.00  0.00    +0.011 C 
BRANCH  48  50
ATOM     50  C   LIG    1      -10.391  -0.770  -4.250  0.00  0.00    +0.010 C 
BRANCH  50  55
ATOM     51  C   LIG    1      -14.049  -0.810  -5.296  0.00  0.00    +0.147 C 
ATOM     52  C   LIG    1      -13.959  -1.593  -6.617  0.00  0.00    +0.147 C 
ATOM     53  C   LIG    1      -12.755  -1.105  -7.422  0.00  0.00    +0.034 C 
ATOM     54  C   LIG    1      -11.544  -0.729  -6.561  0.00  0.00    +0.006 C 
ATOM     55  C   LIG    1      -11.496  -1.353  -5.162  0.00  0.00    -0.008 C 
ATOM     56  C   LIG    1      -12.850  -1.171  -4.405  0.00  0.00    +0.037 C 
BRANCH  51  58
ATOM     57  C   LIG    1      -15.165   1.093  -6.234  0.00  0.00    +0.194 C 
ATOM     58  O   LIG    1      -14.066   0.616  -5.470  0.00  0.00    -0.377 OA
ENDBRANCH  51  58
BRANCH  52  59
ATOM     59  O   LIG    1      -13.781  -3.004  -6.415  0.00  0.00    -0.372 OA
BRANCH  59  60
ATOM     60  C   LIG    1      -14.835  -3.639  -5.702  0.00  0.00    +0.188 C 
BRANCH  60  61
ATOM     61  C   LIG    1      -14.516  -5.123  -5.575  0.00  0.00    +0.184 C 
BRANCH  61  62
ATOM     62  O   LIG    1      -15.532  -5.800  -4.846  0.00  0.00    -0.393 OA
ATOM     63  H   LIG    1      -15.568  -5.406  -3.958  0.00  0.00    +0.209 HD
ENDBRANCH  61  62
ENDBRANCH  60  61
ENDBRANCH  59  60
ENDBRANCH  52  59
ENDBRANCH  50  55
ENDBRANCH  48  50
ENDBRANCH   1  48
BRANCH  14  64
ATOM     64  O   LIG    1       -7.010   2.318  -1.456  0.00  0.00    -0.358 OA
ATOM     65  H   LIG    1       -6.424   2.269  -2.232  0.00  0.00    +0.213 HD
ENDBRANCH  14  64
BRANCH  20  66
ATOM     66  O   LIG    1       -9.234   0.681   2.917  0.00  0.00    -0.375 OA
ATOM     67  C   LIG    1       -9.043   1.660   3.925  0.00  0.00    +0.194 C 
ENDBRANCH  20  66
BRANCH  35  68
ATOM     68  O   LIG    1      -10.682  -4.920   0.814  0.00  0.00    -0.369 OA
ATOM     69  C   LIG    1      -12.008  -5.239   1.214  0.00  0.00    +0.195 C 
ENDBRANCH  35  68
BRANCH  36  70
ATOM     70  O   LIG    1       -7.259  -6.318   1.022  0.00  0.00    -0.385 OA
ATOM     71  H   LIG    1       -7.493  -7.184   0.627  0.00  0.00    +0.210 HD
ENDBRANCH  36  70
TORSDOF 12
