REMARK  Name = *****
REMARK                            x       y       z     vdW  Elec       q    Type
REMARK                         _______ _______ _______ _____ _____    ______ ____
ROOT
ATOM      1  O   LIG    1        9.076   4.285  -1.169  0.00  0.00    -0.284 OA
ENDROOT
BRANCH   1   2
ATOM      2  P   LIG    1        7.523   4.263  -1.640  0.00  0.00    +0.462 P 
ATOM      3  O   LIG    1        6.956   2.880  -1.743  0.00  0.00    -0.228 OA
BRANCH   2   4
ATOM      4  N   LIG    1        6.784   5.248  -0.576  0.00  0.00    -0.199 NA
ATOM      5  H   LIG    1        7.302   6.111  -0.427  0.00  0.00    +0.135 HD
BRANCH   4   6
ATOM      6  C   LIG    1        5.356   5.571  -0.666  0.00  0.00    +0.171 C 
ATOM      7  C   LIG    1        4.445   4.353  -0.497  0.00  0.00    +0.036 C 
BRANCH   6   8
ATOM      8  C   LIG    1        5.018   6.576   0.444  0.00  0.00    +0.325 C 
ATOM      9  O   LIG    1        5.812   7.051   1.246  0.00  0.00    -0.249 OA
BRANCH   8  10
ATOM     10  O   LIG    1        3.695   6.892   0.354  0.00  0.00    -0.461 OA
BRANCH  10  12
ATOM     11  C   LIG    1        3.549   9.227   0.881  0.00  0.00    +0.051 C 
ATOM     12  C   LIG    1        3.183   7.817   1.321  0.00  0.00    +0.170 C 
ATOM     13  C   LIG    1        1.674   7.609   1.343  0.00  0.00    +0.051 C 
ENDBRANCH  10  12
ENDBRANCH   8  10
ENDBRANCH   6   8
ENDBRANCH   4   6
ENDBRANCH   2   4
BRANCH   2  14
ATOM     14  O   LIG    1        7.585   5.046  -3.056  0.00  0.00    -0.413 OA
BRANCH  14  15
ATOM     15  C   LIG    1        8.250   4.571  -4.159  0.00  0.00    +0.131 A 
ATOM     16  C   LIG    1        9.127   3.487  -4.122  0.00  0.00    +0.046 A 
ATOM     17  C   LIG    1        9.752   3.040  -5.287  0.00  0.00    +0.004 A 
ATOM     18  C   LIG    1        9.518   3.686  -6.497  0.00  0.00    +0.000 A 
ATOM     19  C   LIG    1        8.665   4.788  -6.539  0.00  0.00    +0.004 A 
ATOM     20  C   LIG    1        8.030   5.229  -5.372  0.00  0.00    +0.046 A 
ENDBRANCH  14  15
ENDBRANCH   2  14
ENDBRANCH   1   2
BRANCH   1  21
ATOM     21  C   LIG    1        9.407   3.519  -0.016  0.00  0.00    +0.206 C 
BRANCH  21  22
ATOM     22  C   LIG    1       10.919   3.562   0.271  0.00  0.00    +0.179 C 
ATOM     23  C   LIG    1       11.273   2.884   1.616  0.00  0.00    +0.186 C 
ATOM     24  C   LIG    1       12.549   2.098   1.304  0.00  0.00    +0.182 C 
ATOM     25  C   LIG    1       13.769   2.968   1.588  0.00  0.00    +0.055 C 
ATOM     26  F   LIG    1       12.618   1.011   2.122  0.00  0.00    -0.235 F 
ATOM     27  C   LIG    1       12.219   1.689  -0.143  0.00  0.00    +0.263 C 
ATOM     28  O   LIG    1       11.679   2.871  -0.766  0.00  0.00    -0.345 OA
BRANCH  27  29
ATOM     29  N   LIG    1       13.244   1.061  -0.983  0.00  0.00    -0.271 N 
ATOM     30  C   LIG    1       12.993  -0.251  -1.389  0.00  0.00    +0.331 C 
ATOM     31  O   LIG    1       12.029  -0.926  -1.043  0.00  0.00    -0.246 OA
ATOM     32  N   LIG    1       13.921  -0.799  -2.235  0.00  0.00    -0.275 N 
ATOM     33  H   LIG    1       13.744  -1.752  -2.527  0.00  0.00    +0.173 HD
ATOM     34  C   LIG    1       15.130  -0.257  -2.560  0.00  0.00    +0.254 C 
ATOM     35  O   LIG    1       16.001  -0.871  -3.170  0.00  0.00    -0.268 OA
ATOM     36  C   LIG    1       15.332   1.123  -2.123  0.00  0.00    +0.088 C 
ATOM     37  C   LIG    1       14.390   1.727  -1.361  0.00  0.00    +0.098 C 
ENDBRANCH  27  29
BRANCH  23  38
ATOM     38  O   LIG    1       10.243   1.984   2.043  0.00  0.00    -0.386 OA
ATOM     39  H   LIG    1       10.629   1.420   2.745  0.00  0.00    +0.210 HD
ENDBRANCH  23  38
ENDBRANCH  21  22
ENDBRANCH   1  21
TORSDOF 12
