REMARK  Name = *****
REMARK                            x       y       z     vdW  Elec       q    Type
REMARK                         _______ _______ _______ _____ _____    ______ ____
ROOT
ATOM      1  N   LIG    1        7.199  -0.642 -13.950  0.00  0.00    +0.249 N 
ATOM      2  C   LIG    1        5.676  -0.728 -13.620  0.00  0.00    +0.102 C 
ATOM      3  C   LIG    1        5.492  -1.997 -12.800  0.00  0.00    +0.201 C 
ATOM      4  C   LIG    1        6.800  -2.241 -12.113  0.00  0.00    +0.201 C 
ATOM      5  O   LIG    1        5.616  -1.921 -11.380  0.00  0.00    -0.357 OA
ATOM      6  C   LIG    1        5.299   0.526 -12.807  0.00  0.00    +0.102 C 
ATOM      7  C   LIG    1        6.189   0.782 -11.559  0.00  0.00    +0.187 C 
ATOM      8  C   LIG    1        7.565   0.068 -11.539  0.00  0.00    +0.102 C 
ATOM      9  C   LIG    1        7.711  -1.099 -12.530  0.00  0.00    +0.102 C 
ATOM     10  C   LIG    1        7.697   0.725 -14.409  0.00  0.00    +0.193 C 
ENDROOT
BRANCH   1  11
ATOM     11  C   LIG    1        7.649  -1.675 -15.042  0.00  0.00    +0.133 C 
BRANCH  11  12
ATOM     12  C   LIG    1        7.088  -1.379 -16.448  0.00  0.00    +0.051 C 
BRANCH  12  14
ATOM     13  C   LIG    1        7.197  -3.803 -17.235  0.00  0.00    +0.004 C 
ATOM     14  C   LIG    1        7.575  -2.361 -17.526  0.00  0.00    +0.002 C 
ENDBRANCH  12  14
ENDBRANCH  11  12
ENDBRANCH   1  11
BRANCH   7  15
ATOM     15  O   LIG    1        6.479   2.200 -11.485  0.00  0.00    -0.461 OA
BRANCH  15  16
ATOM     16  C   LIG    1        6.718   2.732 -10.242  0.00  0.00    +0.317 C 
ATOM     17  O   LIG    1        6.532   2.124  -9.206  0.00  0.00    -0.250 OA
BRANCH  16  18
ATOM     18  C   LIG    1        7.384   4.111 -10.326  0.00  0.00    +0.153 C 
BRANCH  18  19
ATOM     19  C   LIG    1        7.038   4.926 -11.566  0.00  0.00    -0.032 A 
ATOM     20  C   LIG    1        5.743   4.901 -12.110  0.00  0.00    +0.004 A 
ATOM     21  C   LIG    1        5.452   5.570 -13.295  0.00  0.00    +0.000 A 
ATOM     22  C   LIG    1        6.437   6.320 -13.929  0.00  0.00    +0.000 A 
ATOM     23  C   LIG    1        7.706   6.422 -13.361  0.00  0.00    +0.000 A 
ATOM     24  C   LIG    1        8.008   5.730 -12.185  0.00  0.00    +0.004 A 
ENDBRANCH  18  19
BRANCH  18  25
ATOM     25  C   LIG    1        7.138   4.892  -9.029  0.00  0.00    +0.175 C 
BRANCH  25  26
ATOM     26  O   LIG    1        5.764   5.228  -8.862  0.00  0.00    -0.394 OA
ATOM     27  H   LIG    1        5.309   4.443  -8.508  0.00  0.00    +0.209 HD
ENDBRANCH  25  26
ENDBRANCH  18  25
ENDBRANCH  16  18
ENDBRANCH  15  16
ENDBRANCH   7  15
TORSDOF 9
