REMARK  Name = *****
REMARK                            x       y       z     vdW  Elec       q    Type
REMARK                         _______ _______ _______ _____ _____    ______ ____
ROOT
ATOM      1  C   LIG    1        4.830   0.633   0.927  0.00  0.00    +0.090 A 
ATOM      2  C   LIG    1        5.518  -0.446   0.345  0.00  0.00    +0.157 A 
ATOM      3  C   LIG    1        6.917  -0.467   0.392  0.00  0.00    +0.132 A 
ATOM      4  C   LIG    1        7.614   0.621   0.933  0.00  0.00    +0.277 A 
ATOM      5  C   LIG    1        6.929   1.716   1.470  0.00  0.00    +0.086 A 
ATOM      6  C   LIG    1        5.533   1.716   1.468  0.00  0.00    +0.035 A 
ENDROOT
BRANCH   4   7
ATOM      7  N   LIG    1        9.082   0.603   0.937  0.00  0.00    +0.080 N 
ATOM      8  O   LIG    1        9.648  -0.381   0.442  0.00  0.00    -0.576 OA
ATOM      9  O   LIG    1        9.667   1.574   1.437  0.00  0.00    +0.041 OA
ENDBRANCH   4   7
BRANCH   1  10
ATOM     10  N   LIG    1        3.398   0.686   0.915  0.00  0.00    -0.217 N 
ATOM     11  H   LIG    1        2.962  -0.237   1.017  0.00  0.00    +0.173 HD
BRANCH  10  13
ATOM     12  C   LIG    1        2.591   3.126   0.111  0.00  0.00    +0.218 C 
ATOM     13  S   LIG    1        2.686   1.433  -0.432  0.00  0.00    +0.040 S 
ATOM     14  O   LIG    1        3.595   1.366  -1.558  0.00  0.00    -0.155 OA
ATOM     15  O   LIG    1        1.343   0.912  -0.512  0.00  0.00    -0.155 OA
ENDBRANCH  10  13
ENDBRANCH   1  10
BRANCH   2  16
ATOM     16  O   LIG    1        4.758  -1.473  -0.185  0.00  0.00    -0.454 OA
BRANCH  16  17
ATOM     17  C   LIG    1        5.278  -2.258  -1.193  0.00  0.00    +0.129 A 
ATOM     18  C   LIG    1        6.066  -1.761  -2.237  0.00  0.00    +0.046 A 
ATOM     19  C   LIG    1        6.603  -2.632  -3.186  0.00  0.00    +0.004 A 
ATOM     20  C   LIG    1        6.293  -3.990  -3.142  0.00  0.00    +0.000 A 
ATOM     21  C   LIG    1        5.446  -4.478  -2.148  0.00  0.00    +0.004 A 
ATOM     22  C   LIG    1        4.942  -3.614  -1.171  0.00  0.00    +0.046 A 
ENDBRANCH  16  17
ENDBRANCH   2  16
TORSDOF 5
