REMARK  Name = *****
REMARK                            x       y       z     vdW  Elec       q    Type
REMARK                         _______ _______ _______ _____ _____    ______ ____
ROOT
ATOM      1  C   LIG    1        3.607  -1.050   0.620  0.00  0.00    +0.095 C 
ENDROOT
BRANCH   1   2
ATOM      2  C   LIG    1        3.756  -2.294  -0.375  0.00  0.00    +0.025 C 
ATOM      3  C   LIG    1        2.562  -2.540  -1.338  0.00  0.00    +0.006 C 
ATOM      4  C   LIG    1        2.577  -1.687  -2.600  0.00  0.00    +0.000 C 
ATOM      5  C   LIG    1        3.837  -1.973  -3.398  0.00  0.00    +0.000 C 
ATOM      6  C   LIG    1        5.075  -1.663  -2.567  0.00  0.00    +0.000 C 
ATOM      7  C   LIG    1        5.078  -2.346  -1.192  0.00  0.00    +0.006 C 
ENDBRANCH   1   2
BRANCH   1   8
ATOM      8  C   LIG    1        4.655  -1.083   1.762  0.00  0.00    -0.016 A 
ATOM      9  C   LIG    1        4.767  -2.187   2.623  0.00  0.00    +0.006 A 
ATOM     10  C   LIG    1        5.673  -2.202   3.694  0.00  0.00    +0.000 A 
ATOM     11  C   LIG    1        6.491  -1.095   3.932  0.00  0.00    +0.000 A 
ATOM     12  C   LIG    1        6.393   0.011   3.107  0.00  0.00    +0.000 A 
ATOM     13  C   LIG    1        5.485   0.028   2.038  0.00  0.00    +0.006 A 
ENDBRANCH   1   8
BRANCH   1  14
ATOM     14  O   LIG    1        3.745   0.146  -0.154  0.00  0.00    -0.384 OA
ATOM     15  H   LIG    1        4.677   0.204  -0.424  0.00  0.00    +0.211 HD
ENDBRANCH   1  14
BRANCH   1  16
ATOM     16  C   LIG    1        2.171  -1.025   1.230  0.00  0.00    +0.055 C 
BRANCH  16  17
ATOM     17  C   LIG    1        1.809   0.155   2.154  0.00  0.00    +0.087 C 
BRANCH  17  18
ATOM     18  N   LIG    1        0.430   0.046   2.689  0.00  0.00    -0.302 NA
ATOM     19  C   LIG    1        0.145   1.062   3.713  0.00  0.00    +0.084 C 
ATOM     20  C   LIG    1       -0.110   2.468   3.162  0.00  0.00    +0.015 C 
ATOM     21  C   LIG    1       -1.172   2.480   2.068  0.00  0.00    +0.002 C 
ATOM     22  C   LIG    1       -0.942   1.382   1.036  0.00  0.00    +0.015 C 
ATOM     23  C   LIG    1       -0.647   0.030   1.688  0.00  0.00    +0.084 C 
ENDBRANCH  17  18
ENDBRANCH  16  17
ENDBRANCH   1  16
TORSDOF 6
