REMARK  Name = *****
REMARK                            x       y       z     vdW  Elec       q    Type
REMARK                         _______ _______ _______ _____ _____    ______ ____
ROOT
ATOM      1  C   LIG    1        5.928  -1.859   0.638  0.00  0.00    +0.058 C 
ATOM      2  C   LIG    1        4.495  -2.039   0.096  0.00  0.00    +0.024 C 
ENDROOT
BRANCH   1   3
ATOM      3  N   LIG    1        6.069  -0.569   1.383  0.00  0.00    -0.292 NA
ATOM      4  C   LIG    1        7.415  -0.380   1.944  0.00  0.00    +0.106 C 
BRANCH   3   5
ATOM      5  C   LIG    1        5.709   0.624   0.583  0.00  0.00    +0.173 C 
BRANCH   5   7
ATOM      6  C   LIG    1        7.294   0.956  -1.546  0.00  0.00    +0.005 C 
ATOM      7  C   LIG    1        6.564   0.823  -0.604  0.00  0.00    -0.090 C 
ENDBRANCH   5   7
ENDBRANCH   3   5
ENDBRANCH   1   3
BRANCH   1   8
ATOM      8  C   LIG    1        6.299  -3.103   1.504  0.00  0.00    +0.053 C 
BRANCH   8   9
ATOM      9  C   LIG    1        6.338  -4.420   0.753  0.00  0.00    -0.046 A 
ATOM     10  C   LIG    1        7.243  -4.614  -0.302  0.00  0.00    +0.003 A 
ATOM     11  C   LIG    1        7.325  -5.848  -0.951  0.00  0.00    +0.000 A 
ATOM     12  C   LIG    1        6.506  -6.902  -0.552  0.00  0.00    +0.000 A 
ATOM     13  C   LIG    1        5.591  -6.717   0.483  0.00  0.00    +0.000 A 
ATOM     14  C   LIG    1        5.506  -5.483   1.132  0.00  0.00    +0.003 A 
ENDBRANCH   8   9
ENDBRANCH   1   8
TORSDOF 5
