REMARK  Name = *****
REMARK                            x       y       z     vdW  Elec       q    Type
REMARK                         _______ _______ _______ _____ _____    ______ ____
ROOT
ATOM      1  C   LIG    1        5.810   1.352   0.575  0.00  0.00    +0.037 C 
ATOM      2  C   LIG    1        7.143   0.765   0.199  0.00  0.00    +0.062 C 
ATOM      3  C   LIG    1        8.208   0.751   1.320  0.00  0.00    +0.079 C 
ATOM      4  C   LIG    1        7.800   1.589   2.576  0.00  0.00    +0.122 C 
ATOM      5  C   LIG    1        6.333   1.327   3.021  0.00  0.00    +0.164 C 
ATOM      6  C   LIG    1        5.421   1.547   1.847  0.00  0.00    +0.017 C 
ENDROOT
BRANCH   4   7
ATOM      7  N   LIG    1        8.027   3.035   2.349  0.00  0.00    -0.308 N 
ATOM      8  H   LIG    1        7.265   3.600   1.992  0.00  0.00    +0.149 HD
ATOM      9  C   LIG    1        9.279   3.597   2.458  0.00  0.00    +0.210 C 
ATOM     10  O   LIG    1       10.266   2.970   2.828  0.00  0.00    -0.276 OA
ATOM     11  C   LIG    1        9.352   5.048   2.060  0.00  0.00    +0.109 C 
ENDBRANCH   4   7
BRANCH   3  12
ATOM     12  N   LIG    1        8.580  -0.642   1.631  0.00  0.00    -0.325 NA
ATOM     13  H   LIG    1        9.273  -0.646   2.380  0.00  0.00    +0.118 HD
ATOM     14  H   LIG    1        7.765  -1.152   1.976  0.00  0.00    +0.118 HD
ENDBRANCH   3  12
BRANCH   1  15
ATOM     15  C   LIG    1        4.935   1.701  -0.586  0.00  0.00    +0.335 C 
ATOM     16  O   LIG    1        5.167   1.384  -1.727  0.00  0.00    -0.245 OA
BRANCH  15  17
ATOM     17  O   LIG    1        3.868   2.428  -0.150  0.00  0.00    -0.462 OA
BRANCH  17  19
ATOM     18  C   LIG    1        1.883   1.403  -0.969  0.00  0.00    +0.048 C 
ATOM     19  C   LIG    1        2.818   2.590  -1.103  0.00  0.00    +0.229 C 
ENDBRANCH  17  19
ENDBRANCH  15  17
ENDBRANCH   1  15
BRANCH   5  20
ATOM     20  O   LIG    1        6.029   0.027   3.534  0.00  0.00    -0.367 OA
BRANCH  20  21
ATOM     21  C   LIG    1        6.776  -0.424   4.674  0.00  0.00    +0.119 C 
BRANCH  21  22
ATOM     22  C   LIG    1        6.436  -1.916   4.884  0.00  0.00    +0.028 C 
ATOM     23  C   LIG    1        7.161  -2.596   6.041  0.00  0.00    +0.006 C 
ENDBRANCH  21  22
BRANCH  21  24
ATOM     24  C   LIG    1        6.612   0.457   5.926  0.00  0.00    +0.028 C 
ATOM     25  C   LIG    1        5.197   0.746   6.408  0.00  0.00    +0.006 C 
ENDBRANCH  21  24
ENDBRANCH  20  21
ENDBRANCH   5  20
TORSDOF 9
