REMARK  Name = *****
REMARK                            x       y       z     vdW  Elec       q    Type
REMARK                         _______ _______ _______ _____ _____    ______ ____
ROOT
ATOM      1  N   LIG    1        4.102   6.004  -5.704  0.00  0.00    -0.302 NA
ATOM      2  C   LIG    1        2.761   6.296  -6.227  0.00  0.00    +0.085 C 
ATOM      3  C   LIG    1        2.534   7.798  -6.378  0.00  0.00    +0.022 C 
ATOM      4  C   LIG    1        3.475   8.473  -7.397  0.00  0.00    +0.032 C 
ATOM      5  C   LIG    1        4.918   8.096  -6.963  0.00  0.00    +0.022 C 
ATOM      6  C   LIG    1        5.160   6.643  -6.503  0.00  0.00    +0.085 C 
ENDROOT
BRANCH   1   7
ATOM      7  C   LIG    1        4.292   4.537  -5.632  0.00  0.00    +0.084 C 
BRANCH   7   8
ATOM      8  C   LIG    1        5.609   4.107  -4.966  0.00  0.00    +0.018 C 
BRANCH   8   9
ATOM      9  C   LIG    1        5.724   2.581  -4.932  0.00  0.00    +0.037 C 
BRANCH   9  10
ATOM     10  C   LIG    1        6.999   2.080  -4.235  0.00  0.00    +0.144 C 
BRANCH  10  14
ATOM     11  C   LIG    1        7.379  -2.258  -3.890  0.00  0.00    -0.031 A 
ATOM     12  C   LIG    1        6.317  -1.692  -4.623  0.00  0.00    +0.005 A 
ATOM     13  C   LIG    1        6.207  -0.307  -4.776  0.00  0.00    +0.006 A 
ATOM     14  C   LIG    1        7.145   0.566  -4.209  0.00  0.00    -0.019 A 
ATOM     15  C   LIG    1        8.231   0.002  -3.529  0.00  0.00    +0.006 A 
ATOM     16  C   LIG    1        8.343  -1.385  -3.375  0.00  0.00    +0.005 A 
BRANCH  11  18
ATOM     17  C   LIG    1        6.180  -4.293  -3.010  0.00  0.00    +0.027 C 
ATOM     18  C   LIG    1        7.466  -3.791  -3.721  0.00  0.00    +0.087 C 
ATOM     19  C   LIG    1        8.652  -4.237  -2.862  0.00  0.00    +0.027 C 
BRANCH  18  20
ATOM     20  C   LIG    1        7.591  -4.513  -5.061  0.00  0.00    +0.315 C 
ATOM     21  O   LIG    1        7.194  -5.701  -5.246  0.00  0.00    -0.250 OA
BRANCH  20  22
ATOM     22  O   LIG    1        8.220  -3.843  -6.056  0.00  0.00    -0.480 OA
ATOM     23  H   LIG    1        8.475  -2.943  -5.822  0.00  0.00    +0.295 HD
ENDBRANCH  20  22
ENDBRANCH  18  20
ENDBRANCH  11  18
ENDBRANCH  10  14
BRANCH  10  24
ATOM     24  O   LIG    1        8.144   2.667  -4.850  0.00  0.00    -0.387 OA
ATOM     25  H   LIG    1        8.384   2.122  -5.617  0.00  0.00    +0.210 HD
ENDBRANCH  10  24
ENDBRANCH   9  10
ENDBRANCH   8   9
ENDBRANCH   7   8
ENDBRANCH   1   7
BRANCH   4  26
ATOM     26  C   LIG    1        3.150   8.191  -8.930  0.00  0.00    +0.119 C 
BRANCH  26  27
ATOM     27  C   LIG    1        4.085   9.021  -9.865  0.00  0.00    -0.011 A 
ATOM     28  C   LIG    1        4.885   8.392 -10.842  0.00  0.00    +0.007 A 
ATOM     29  C   LIG    1        5.704   9.123 -11.713  0.00  0.00    +0.000 A 
ATOM     30  C   LIG    1        5.736  10.510 -11.642  0.00  0.00    +0.000 A 
ATOM     31  C   LIG    1        4.985  11.161 -10.671  0.00  0.00    +0.000 A 
ATOM     32  C   LIG    1        4.187  10.425  -9.782  0.00  0.00    +0.007 A 
ENDBRANCH  26  27
BRANCH  26  33
ATOM     33  C   LIG    1        1.634   8.428  -9.299  0.00  0.00    -0.011 A 
ATOM     34  C   LIG    1        0.796   7.421  -9.832  0.00  0.00    +0.007 A 
ATOM     35  C   LIG    1       -0.579   7.620 -10.047  0.00  0.00    +0.000 A 
ATOM     36  C   LIG    1       -1.170   8.838  -9.754  0.00  0.00    +0.000 A 
ATOM     37  C   LIG    1       -0.370   9.877  -9.295  0.00  0.00    +0.000 A 
ATOM     38  C   LIG    1        1.008   9.678  -9.080  0.00  0.00    +0.007 A 
ENDBRANCH  26  33
BRANCH  26  39
ATOM     39  O   LIG    1        3.537   6.816  -9.107  0.00  0.00    -0.379 OA
ATOM     40  H   LIG    1        2.918   6.380  -9.702  0.00  0.00    +0.211 HD
ENDBRANCH  26  39
ENDBRANCH   4  26
TORSDOF 13
