REMARK  Name = *****
REMARK                            x       y       z     vdW  Elec       q    Type
REMARK                         _______ _______ _______ _____ _____    ______ ____
ROOT
ATOM      1  C   LIG    1        2.106  -0.627   0.270  0.00  0.00    -0.043 A 
ATOM      2  C   LIG    1        1.167  -0.915   1.213  0.00  0.00    +0.021 A 
ATOM      3  C   LIG    1       -0.171  -0.486   1.088  0.00  0.00    +0.057 A 
ATOM      4  I   LIG    1       -0.933  -0.795   3.068  0.00  0.00    -0.040 I 
ATOM      5  C   LIG    1       -0.666   0.137  -0.104  0.00  0.00    +0.154 A 
ATOM      6  C   LIG    1        0.327   0.430  -1.061  0.00  0.00    +0.057 A 
ATOM      7  I   LIG    1        0.193   1.455  -2.916  0.00  0.00    -0.040 I 
ATOM      8  C   LIG    1        1.663   0.106  -0.805  0.00  0.00    +0.021 A 
ENDROOT
BRANCH   1   9
ATOM      9  C   LIG    1        3.544  -1.007   0.487  0.00  0.00    +0.065 C 
BRANCH   9  10
ATOM     10  CA  LIG    1        4.479  -0.654  -0.683  0.00  0.00    +0.165 C 
BRANCH  10  11
ATOM     11  N   LIG    1        5.884  -0.928  -0.315  0.00  0.00    -0.318 NA
ATOM     12  H1  LIG    1        6.004  -1.948  -0.301  0.00  0.00    +0.119 HD
ATOM     13  H2  LIG    1        6.480  -0.624  -1.086  0.00  0.00    +0.119 HD
ENDBRANCH  10  11
BRANCH  10  14
ATOM     14  C   LIG    1        4.155  -1.485  -1.966  0.00  0.00    +0.322 C 
ATOM     15  O   LIG    1        4.491  -2.602  -2.107  0.00  0.00    -0.249 OA
BRANCH  14  16
ATOM     16  OXT LIG    1        3.486  -0.821  -2.961  0.00  0.00    -0.479 OA
ATOM     17  HXT LIG    1        3.363   0.124  -2.892  0.00  0.00    +0.295 HD
ENDBRANCH  14  16
ENDBRANCH  10  14
ENDBRANCH   9  10
ENDBRANCH   1   9
BRANCH   5  18
ATOM     18  O   LIG    1       -1.957   0.556  -0.423  0.00  0.00    -0.454 OA
BRANCH  18  19
ATOM     19  C   LIG    1       -3.031   0.201   0.368  0.00  0.00    +0.131 A 
ATOM     20  C   LIG    1       -3.188  -1.093   0.864  0.00  0.00    +0.064 A 
ATOM     21  C   LIG    1       -4.064  -1.340   1.935  0.00  0.00    +0.059 A 
ATOM     22  I   LIG    1       -4.021  -3.232   2.889  0.00  0.00    -0.040 I 
ATOM     23  C   LIG    1       -4.862  -0.312   2.431  0.00  0.00    +0.143 A 
ATOM     24  C   LIG    1       -4.872   0.919   1.767  0.00  0.00    +0.059 A 
ATOM     25  I   LIG    1       -6.213   2.412   2.368  0.00  0.00    -0.040 I 
ATOM     26  C   LIG    1       -3.984   1.170   0.705  0.00  0.00    +0.064 A 
BRANCH  23  27
ATOM     27  O   LIG    1       -5.629  -0.539   3.542  0.00  0.00    -0.505 OA
ATOM     28  H   LIG    1       -6.222   0.222   3.665  0.00  0.00    +0.292 HD
ENDBRANCH  23  27
ENDBRANCH  18  19
ENDBRANCH   5  18
TORSDOF 8
