REMARK  Name = *****
REMARK                            x       y       z     vdW  Elec       q    Type
REMARK                         _______ _______ _______ _____ _____    ______ ____
ROOT
ATOM      1  C   LIG    1        5.353   1.828  -0.480  0.00  0.00    +0.132 C 
ATOM      2  C   LIG    1        5.769   0.583  -1.351  0.00  0.00    +0.014 C 
ATOM      3  C   LIG    1        4.421  -0.188  -1.560  0.00  0.00    +0.002 C 
ATOM      4  C   LIG    1        3.737  -0.124  -2.955  0.00  0.00    -0.003 C 
ATOM      5  C   LIG    1        4.733  -0.030  -4.134  0.00  0.00    -0.000 C 
ATOM      6  C   LIG    1        5.617   1.191  -3.890  0.00  0.00    +0.005 C 
ATOM      7  C   LIG    1        5.481  -1.375  -4.343  0.00  0.00    +0.019 C 
ATOM      8  C   LIG    1        4.437  -2.446  -4.598  0.00  0.00    -0.063 C 
ATOM      9  C   LIG    1        4.318  -3.117  -5.758  0.00  0.00    +0.045 C 
ATOM     10  C   LIG    1        5.153  -2.762  -6.930  0.00  0.00    +0.156 C 
ATOM     11  C   LIG    1        6.008  -1.519  -6.835  0.00  0.00    +0.079 C 
ATOM     12  O   LIG    1        5.064  -3.422  -7.959  0.00  0.00    -0.293 OA
ATOM     13  C   LIG    1        3.470  -2.642  -3.463  0.00  0.00    +0.031 C 
ATOM     14  C   LIG    1        6.570  -1.370  -5.430  0.00  0.00    +0.016 C 
ATOM     15  C   LIG    1        2.764  -1.315  -3.154  0.00  0.00    +0.008 C 
ATOM     16  C   LIG    1        3.453   0.333  -0.467  0.00  0.00    +0.008 C 
ATOM     17  C   LIG    1        6.495   1.023  -2.663  0.00  0.00    +0.011 C 
ATOM     18  C   LIG    1        4.225   1.314   0.410  0.00  0.00    +0.049 C 
ENDROOT
BRANCH   1  20
ATOM     19  C   LIG    1        7.398   2.782   0.879  0.00  0.00    +0.007 C 
ATOM     20  C   LIG    1        6.474   2.351   0.265  0.00  0.00    -0.070 C 
ENDBRANCH   1  20
BRANCH   2  21
ATOM     21  C   LIG    1        6.801  -0.386  -0.637  0.00  0.00    +0.007 C 
ATOM     22  C   LIG    1        6.469  -0.967   0.731  0.00  0.00    +0.004 C 
ENDBRANCH   2  21
BRANCH   1  23
ATOM     23  O   LIG    1        4.812   2.851  -1.314  0.00  0.00    -0.376 OA
ATOM     24  H   LIG    1        4.694   3.638  -0.754  0.00  0.00    +0.211 HD
ENDBRANCH   1  23
TORSDOF 3
