REMARK  Name = *****
REMARK                            x       y       z     vdW  Elec       q    Type
REMARK                         _______ _______ _______ _____ _____    ______ ____
ROOT
ATOM      1 CL   LIG    1        3.323   0.402   1.662  0.00  0.00    -0.119 Cl
ATOM      2  C   LIG    1        2.863  -0.014  -0.031  0.00  0.00    +0.119 C 
ATOM      3  C   LIG    1        3.294  -1.455  -0.375  0.00  0.00    +0.119 C 
ATOM      4 CL   LIG    1        5.044  -1.734  -0.061  0.00  0.00    -0.119 Cl
ATOM      5  C   LIG    1        2.941  -1.830  -1.828  0.00  0.00    +0.119 C 
ATOM      6 CL   LIG    1        1.149  -2.068  -1.937  0.00  0.00    -0.119 Cl
ATOM      7  C   LIG    1        3.357  -0.782  -2.879  0.00  0.00    +0.119 C 
ATOM      8 CL   LIG    1        5.123  -0.889  -3.209  0.00  0.00    -0.119 Cl
ATOM      9  C   LIG    1        2.924   0.642  -2.475  0.00  0.00    +0.119 C 
ATOM     10 CL   LIG    1        3.458   1.845  -3.708  0.00  0.00    -0.119 Cl
ATOM     11  C   LIG    1        3.366   1.031  -1.049  0.00  0.00    +0.119 C 
ATOM     12 CL   LIG    1        2.683   2.654  -0.630  0.00  0.00    -0.119 Cl
ENDROOT
TORSDOF 0
