REMARK  Name = *****
REMARK                            x       y       z     vdW  Elec       q    Type
REMARK                         _______ _______ _______ _____ _____    ______ ____
ROOT
ATOM      1  C   LIG    1       10.575  -3.106   4.419  0.00  0.00    +0.046 A 
ATOM      2  C   LIG    1       10.801  -4.284   5.219  0.00  0.00    +0.105 A 
ATOM      3  N   LIG    1       11.538  -3.967   6.300  0.00  0.00    -0.170 NA
ATOM      4  N   LIG    1       11.770  -2.648   6.215  0.00  0.00    -0.268 N 
ATOM      5  C   LIG    1       11.208  -2.090   5.108  0.00  0.00    +0.119 A 
ENDROOT
BRANCH   2   6
ATOM      6  C   LIG    1       10.407  -5.689   5.003  0.00  0.00    +0.041 A 
ATOM      7  C   LIG    1       10.259  -6.593   6.070  0.00  0.00    +0.155 A 
ATOM      8  F   LIG    1       10.490  -6.225   7.342  0.00  0.00    -0.203 F 
ATOM      9  C   LIG    1        9.908  -7.934   5.848  0.00  0.00    +0.085 A 
ATOM     10  C   LIG    1        9.673  -8.395   4.556  0.00  0.00    +0.047 A 
ATOM     11  C   LIG    1        9.890  -7.533   3.490  0.00  0.00    +0.044 A 
ATOM     12 CL   LIG    1        9.822  -8.142   1.878  0.00  0.00    -0.084 Cl
ATOM     13  C   LIG    1       10.248  -6.197   3.705  0.00  0.00    +0.033 A 
BRANCH   9  14
ATOM     14  N   LIG    1        9.855  -8.863   6.940  0.00  0.00    -0.218 N 
ATOM     15  H   LIG    1       10.572  -8.701   7.649  0.00  0.00    +0.173 HD
BRANCH  14  16
ATOM     16  S   LIG    1        8.356  -9.215   7.631  0.00  0.00    +0.040 S 
ATOM     17  O   LIG    1        8.485 -10.527   8.234  0.00  0.00    -0.155 OA
ATOM     18  O   LIG    1        7.300  -8.917   6.691  0.00  0.00    -0.155 OA
ATOM     19  C   LIG    1        8.280  -8.043   8.972  0.00  0.00    +0.218 C 
ENDBRANCH  14  16
ENDBRANCH   9  14
ENDBRANCH   2   6
BRANCH   1  22
ATOM     20  C   LIG    1        8.096  -3.470   1.815  0.00  0.00    +0.216 A 
ATOM     21  N   LIG    1        8.792  -3.661   2.945  0.00  0.00    -0.214 NA
ATOM     22  C   LIG    1        9.839  -2.854   3.185  0.00  0.00    +0.080 A 
ATOM     23  C   LIG    1       10.198  -1.838   2.324  0.00  0.00    +0.048 A 
ATOM     24  C   LIG    1        9.414  -1.702   1.207  0.00  0.00    +0.116 A 
ATOM     25  N   LIG    1        8.378  -2.513   0.924  0.00  0.00    -0.223 NA
BRANCH  20  26
ATOM     26  N   LIG    1        7.038  -4.317   1.508  0.00  0.00    -0.312 N 
ATOM     27  H   LIG    1        6.863  -4.251   0.511  0.00  0.00    +0.149 HD
BRANCH  26  28
ATOM     28  C   LIG    1        7.183  -5.668   2.043  0.00  0.00    +0.126 C 
BRANCH  28  29
ATOM     29  C   LIG    1        6.096  -6.624   1.508  0.00  0.00    +0.090 C 
ATOM     30  C   LIG    1        6.238  -8.018   2.128  0.00  0.00    +0.029 C 
BRANCH  29  32
ATOM     31  C   LIG    1        5.092  -6.925  -0.755  0.00  0.00    +0.400 C 
ATOM     32  N   LIG    1        6.165  -6.684   0.052  0.00  0.00    -0.277 N 
ATOM     33  H   LIG    1        7.049  -6.577  -0.421  0.00  0.00    +0.152 HD
ATOM     34  O   LIG    1        3.972  -7.202  -0.399  0.00  0.00    -0.227 OA
BRANCH  31  36
ATOM     35  C   LIG    1        4.497  -6.971  -3.021  0.00  0.00    +0.282 C 
ATOM     36  O   LIG    1        5.514  -6.769  -2.041  0.00  0.00    -0.454 OA
ENDBRANCH  31  36
ENDBRANCH  29  32
ENDBRANCH  28  29
ENDBRANCH  26  28
ENDBRANCH  20  26
ENDBRANCH   1  22
BRANCH   4  37
ATOM     37  C   LIG    1       12.499  -1.958   7.282  0.00  0.00    +0.101 C 
ATOM     38  C   LIG    1       13.171  -0.663   6.805  0.00  0.00    +0.032 C 
ATOM     39  C   LIG    1       13.551  -2.855   7.943  0.00  0.00    +0.032 C 
ENDBRANCH   4  37
TORSDOF 10
