REMARK  Name = *****
REMARK                            x       y       z     vdW  Elec       q    Type
REMARK                         _______ _______ _______ _____ _____    ______ ____
ROOT
ATOM      1  C   LIG    1        3.027  -0.828   1.124  0.00  0.00    -0.037 C 
ATOM      2  C   LIG    1        2.216  -1.284   2.115  0.00  0.00    -0.037 C 
ENDROOT
BRANCH   1   3
ATOM      3  C   LIG    1        4.503  -0.875   1.245  0.00  0.00    -0.021 A 
ATOM      4  C   LIG    1        5.219  -1.992   0.797  0.00  0.00    +0.012 A 
ATOM      5  C   LIG    1        6.611  -2.020   0.897  0.00  0.00    +0.046 A 
ATOM      6  C   LIG    1        7.286  -0.936   1.447  0.00  0.00    +0.117 A 
ATOM      7  C   LIG    1        6.591   0.178   1.907  0.00  0.00    +0.046 A 
ATOM      8  C   LIG    1        5.198   0.207   1.804  0.00  0.00    +0.012 A 
BRANCH   6   9
ATOM      9  O   LIG    1        8.646  -1.003   1.515  0.00  0.00    -0.507 OA
ATOM     10  H   LIG    1        8.975  -0.179   1.910  0.00  0.00    +0.292 HD
ENDBRANCH   6   9
ENDBRANCH   1   3
BRANCH   2  11
ATOM     11  C   LIG    1        2.772  -1.849   3.366  0.00  0.00    -0.021 A 
ATOM     12  C   LIG    1        3.032  -1.013   4.461  0.00  0.00    +0.012 A 
ATOM     13  C   LIG    1        3.579  -1.538   5.632  0.00  0.00    +0.046 A 
ATOM     14  C   LIG    1        3.864  -2.896   5.709  0.00  0.00    +0.117 A 
ATOM     15  C   LIG    1        3.604  -3.743   4.636  0.00  0.00    +0.046 A 
ATOM     16  C   LIG    1        3.058  -3.216   3.463  0.00  0.00    +0.012 A 
BRANCH  14  17
ATOM     17  O   LIG    1        4.410  -3.366   6.867  0.00  0.00    -0.507 OA
ATOM     18  H   LIG    1        4.620  -4.307   6.748  0.00  0.00    +0.292 HD
ENDBRANCH  14  17
ENDBRANCH   2  11
BRANCH   1  20
ATOM     19  C   LIG    1        2.384  -1.165  -1.307  0.00  0.00    +0.009 C 
ATOM     20  C   LIG    1        2.553  -0.177  -0.161  0.00  0.00    +0.033 C 
ENDBRANCH   1  20
BRANCH   2  21
ATOM     21  C   LIG    1        0.700  -1.221   2.102  0.00  0.00    +0.033 C 
ATOM     22  C   LIG    1        0.050  -2.483   1.548  0.00  0.00    +0.009 C 
ENDBRANCH   2  21
TORSDOF 6
