REMARK  Name = *****
REMARK                            x       y       z     vdW  Elec       q    Type
REMARK                         _______ _______ _______ _____ _____    ______ ____
ROOT
ATOM      1  C   LIG    1       -2.506   1.330   3.969  0.00  0.00    +0.117 C 
ATOM      2  C   LIG    1       -1.621   1.477   2.703  0.00  0.00    +0.052 C 
ENDROOT
BRANCH   1   3
ATOM      3  C   LIG    1       -2.677   2.775   4.525  0.00  0.00    -0.012 A 
ATOM      4  C   LIG    1       -3.934   3.404   4.586  0.00  0.00    +0.008 A 
ATOM      5  C   LIG    1       -4.061   4.731   5.015  0.00  0.00    +0.020 A 
ATOM      6  C   LIG    1       -2.932   5.454   5.388  0.00  0.00    +0.041 A 
ATOM      7 CL   LIG    1       -3.088   7.096   5.883  0.00  0.00    -0.084 Cl
ATOM      8  C   LIG    1       -1.679   4.854   5.357  0.00  0.00    +0.020 A 
ATOM      9  C   LIG    1       -1.553   3.524   4.941  0.00  0.00    +0.008 A 
ENDBRANCH   1   3
BRANCH   1  10
ATOM     10  C   LIG    1       -1.908   0.391   5.037  0.00  0.00    -0.012 A 
ATOM     11  C   LIG    1       -0.708  -0.315   4.843  0.00  0.00    +0.007 A 
ATOM     12  C   LIG    1       -0.190  -1.173   5.815  0.00  0.00    +0.000 A 
ATOM     13  C   LIG    1       -0.861  -1.346   7.021  0.00  0.00    +0.000 A 
ATOM     14  C   LIG    1       -2.051  -0.660   7.247  0.00  0.00    +0.000 A 
ATOM     15  C   LIG    1       -2.574   0.194   6.273  0.00  0.00    +0.007 A 
ENDBRANCH   1  10
BRANCH   1  16
ATOM     16  O   LIG    1       -3.822   0.860   3.552  0.00  0.00    -0.364 OA
BRANCH  16  17
ATOM     17  C   LIG    1       -3.891  -0.452   2.982  0.00  0.00    +0.163 C 
BRANCH  17  18
ATOM     18  C   LIG    1       -5.324  -0.743   2.501  0.00  0.00    +0.047 C 
BRANCH  18  21
ATOM     19  C   LIG    1       -7.593  -1.654   0.642  0.00  0.00    +0.105 C 
ATOM     20  N   LIG    1       -6.825  -2.560   1.470  0.00  0.00    -0.302 NA
ATOM     21  C   LIG    1       -5.469  -2.145   1.860  0.00  0.00    +0.059 C 
ATOM     22  C   LIG    1       -5.141  -3.299   2.809  0.00  0.00    +0.020 C 
ATOM     23  C   LIG    1       -6.433  -3.536   3.579  0.00  0.00    +0.017 C 
ATOM     24  C   LIG    1       -7.530  -2.981   2.680  0.00  0.00    +0.084 C 
ENDBRANCH  18  21
ENDBRANCH  17  18
ENDBRANCH  16  17
ENDBRANCH   1  16
TORSDOF 6
