REMARK  Name = *****
REMARK                            x       y       z     vdW  Elec       q    Type
REMARK                         _______ _______ _______ _____ _____    ______ ____
ROOT
ATOM      1  C   LIG    1        4.718  -0.785  -0.101  0.00  0.00    +0.140 C 
ATOM      2  C   LIG    1        4.955  -0.509  -1.584  0.00  0.00    +0.239 C 
ATOM      3  O   LIG    1        4.786  -1.391  -2.431  0.00  0.00    -0.274 OA
ATOM      4  N   LIG    1        5.273   0.794  -1.937  0.00  0.00    -0.228 N 
ATOM      5  C   LIG    1        5.255   1.148  -3.344  0.00  0.00    +0.143 C 
ATOM      6  C   LIG    1        5.778   1.726  -1.055  0.00  0.00    +0.315 C 
ATOM      7  O   LIG    1        6.175   2.842  -1.388  0.00  0.00    -0.252 OA
ATOM      8  N   LIG    1        5.867   1.350   0.252  0.00  0.00    -0.239 N 
ATOM      9  H   LIG    1        6.301   2.015   0.876  0.00  0.00    +0.159 HD
ATOM     10  C   LIG    1        5.474   0.166   0.801  0.00  0.00    +0.237 C 
ATOM     11  O   LIG    1        5.679  -0.048   1.996  0.00  0.00    -0.274 OA
ENDROOT
BRANCH   1  12
ATOM     12  C   LIG    1        3.175  -0.616   0.139  0.00  0.00    +0.085 C 
ATOM     13  C   LIG    1        2.678  -1.007   1.535  0.00  0.00    +0.023 C 
BRANCH  12  14
ATOM     14  C   LIG    1        2.716   0.762  -0.150  0.00  0.00    -0.098 C 
ATOM     15  C   LIG    1        2.419   1.901  -0.401  0.00  0.00    -0.102 C 
BRANCH  15  16
ATOM     16  C   LIG    1        2.144   3.308  -0.725  0.00  0.00    +0.085 C 
ATOM     17  C   LIG    1        1.364   3.992   0.384  0.00  0.00    +0.017 C 
ENDBRANCH  15  16
ENDBRANCH  12  14
ENDBRANCH   1  12
BRANCH   1  18
ATOM     18  C   LIG    1        5.165  -2.241   0.215  0.00  0.00    +0.053 C 
BRANCH  18  20
ATOM     19  C   LIG    1        7.462  -2.921   0.973  0.00  0.00    +0.004 C 
ATOM     20  C   LIG    1        6.637  -2.514  -0.001  0.00  0.00    -0.033 C 
ENDBRANCH  18  20
ENDBRANCH   1  18
TORSDOF 5
