REMARK  Name = *****
REMARK                            x       y       z     vdW  Elec       q    Type
REMARK                         _______ _______ _______ _____ _____    ______ ____
ROOT
ATOM      1  C   LIG    1        1.124  -0.105   0.025  0.00  0.00    +0.105 C 
ATOM      2  N   LIG    1        2.540   0.182  -0.241  0.00  0.00    -0.303 NA
ENDROOT
BRANCH   2   3
ATOM      3  C   LIG    1        2.895   1.556   0.202  0.00  0.00    +0.100 C 
BRANCH   3   4
ATOM      4  C   LIG    1        2.936   1.722   1.728  0.00  0.00    +0.124 C 
ATOM      5 CL   LIG    1        3.368   3.396   2.172  0.00  0.00    -0.124 Cl
ENDBRANCH   3   4
ENDBRANCH   2   3
BRANCH   2   6
ATOM      6  C   LIG    1        2.856   0.018  -1.682  0.00  0.00    +0.100 C 
BRANCH   6   7
ATOM      7  C   LIG    1        2.719  -1.419  -2.208  0.00  0.00    +0.124 C 
ATOM      8 CL   LIG    1        3.182  -1.500  -3.931  0.00  0.00    -0.124 Cl
ENDBRANCH   6   7
ENDBRANCH   2   6
TORSDOF 4
