REMARK  Name = *****
REMARK                            x       y       z     vdW  Elec       q    Type
REMARK                         _______ _______ _______ _____ _____    ______ ____
ROOT
ATOM      1  C   LIG    1        1.535  -6.231  -1.367  0.00  0.00    +0.165 C 
ATOM      2  C   LIG    1        2.414  -6.223  -2.595  0.00  0.00    +0.013 A 
ATOM      3  C   LIG    1        1.899  -5.687  -3.781  0.00  0.00    +0.133 A 
ATOM      4  C   LIG    1        2.726  -5.494  -4.885  0.00  0.00    +0.046 A 
ATOM      5  C   LIG    1        4.059  -5.902  -4.832  0.00  0.00    +0.004 A 
ATOM      6  C   LIG    1        4.558  -6.513  -3.681  0.00  0.00    +0.001 A 
ATOM      7  O   LIG    1        0.577  -5.330  -3.922  0.00  0.00    -0.455 OA
ATOM      8  C   LIG    1       -0.318  -5.840  -3.007  0.00  0.00    +0.133 A 
ATOM      9  C   LIG    1       -1.663  -5.849  -3.374  0.00  0.00    +0.046 A 
ATOM     10  C   LIG    1       -2.623  -6.323  -2.480  0.00  0.00    +0.004 A 
ATOM     11  C   LIG    1       -2.242  -6.774  -1.216  0.00  0.00    +0.001 A 
ATOM     12  C   LIG    1       -0.896  -6.766  -0.846  0.00  0.00    +0.008 A 
ATOM     13  C   LIG    1        3.742  -6.667  -2.559  0.00  0.00    +0.008 A 
ATOM     14  C   LIG    1        0.075  -6.307  -1.748  0.00  0.00    +0.013 A 
ENDROOT
BRANCH   1  15
ATOM     15  C   LIG    1        1.780  -4.985  -0.531  0.00  0.00    +0.319 C 
ATOM     16  O   LIG    1        2.233  -4.993   0.624  0.00  0.00    -0.250 OA
BRANCH  15  17
ATOM     17  O   LIG    1        1.443  -3.826  -1.178  0.00  0.00    -0.459 OA
BRANCH  17  18
ATOM     18  C   LIG    1        1.189  -2.718  -0.323  0.00  0.00    +0.282 C 
BRANCH  18  19
ATOM     19  C   LIG    1        2.421  -1.927   0.125  0.00  0.00    +0.175 C 
BRANCH  19  20
ATOM     20  N   LIG    1        3.343  -1.232  -0.949  0.00  0.00    +0.247 N 
ATOM     21  C   LIG    1        4.369  -0.431  -0.084  0.00  0.00    +0.193 C 
BRANCH  20  23
ATOM     22  C   LIG    1        1.567  -0.745  -2.837  0.00  0.00    +0.063 C 
ATOM     23  C   LIG    1        2.585  -0.165  -1.855  0.00  0.00    +0.060 C 
ATOM     24  C   LIG    1        1.911   0.945  -1.023  0.00  0.00    +0.063 C 
ENDBRANCH  20  23
BRANCH  20  25
ATOM     25  C   LIG    1        4.139  -2.326  -1.819  0.00  0.00    +0.060 C 
ATOM     26  C   LIG    1        4.844  -3.379  -0.945  0.00  0.00    +0.063 C 
ATOM     27  C   LIG    1        5.186  -1.716  -2.768  0.00  0.00    +0.063 C 
ENDBRANCH  20  25
ENDBRANCH  19  20
ENDBRANCH  18  19
ENDBRANCH  17  18
ENDBRANCH  15  17
ENDBRANCH   1  15
TORSDOF 7
