REMARK  Name = *****
REMARK                            x       y       z     vdW  Elec       q    Type
REMARK                         _______ _______ _______ _____ _____    ______ ____
ROOT
ATOM      1  C   LIG    1        2.979   0.965  -0.881  0.00  0.00    +0.185 C 
ENDROOT
BRANCH   1   2
ATOM      2  C   LIG    1        4.471   1.052  -0.994  0.00  0.00    +0.395 C 
ATOM      3  F   LIG    1        4.821   2.218  -1.587  0.00  0.00    -0.171 F 
ATOM      4  F   LIG    1        4.977   0.052  -1.746  0.00  0.00    -0.171 F 
ATOM      5  F   LIG    1        5.067   1.020   0.211  0.00  0.00    -0.171 F 
ENDBRANCH   1   2
BRANCH   1   7
ATOM      6  F   LIG    1        1.276  -0.195   0.192  0.00  0.00    -0.209 F 
ATOM      7  C   LIG    1        2.631  -0.107   0.111  0.00  0.00    +0.350 C 
ATOM      8  F   LIG    1        3.065  -1.312  -0.321  0.00  0.00    -0.209 F 
ENDBRANCH   1   7
TORSDOF 2
