REMARK  Name = *****
REMARK                            x       y       z     vdW  Elec       q    Type
REMARK                         _______ _______ _______ _____ _____    ______ ____
ROOT
ATOM      1  C   LIG    1        4.370  -8.802  -7.282  0.00  0.00    +0.107 C 
ENDROOT
BRANCH   1   2
ATOM      2  N   LIG    1        4.878  -9.297  -6.003  0.00  0.00    -0.308 N 
ATOM      3  H   LIG    1        5.809  -9.705  -6.016  0.00  0.00    +0.149 HD
ATOM      4  C   LIG    1        4.497  -8.763  -4.785  0.00  0.00    +0.234 C 
ATOM      5  O   LIG    1        3.711  -7.825  -4.669  0.00  0.00    -0.274 OA
BRANCH   4   6
ATOM      6  C   LIG    1        5.239  -9.359  -3.582  0.00  0.00    +0.168 C 
BRANCH   6   7
ATOM      7  N   LIG    1        6.407  -8.506  -3.441  0.00  0.00    -0.298 N 
ATOM      8  H   LIG    1        6.321  -7.501  -3.488  0.00  0.00    +0.150 HD
ATOM      9  C   LIG    1        7.594  -9.031  -2.970  0.00  0.00    +0.263 C 
ATOM     10  O   LIG    1        7.754 -10.204  -2.736  0.00  0.00    -0.269 OA
BRANCH   9  11
ATOM     11  C   LIG    1        8.698  -8.047  -2.821  0.00  0.00    +0.126 A 
ATOM     12  N   LIG    1        8.378  -6.753  -2.586  0.00  0.00    -0.242 NA
ATOM     13  C   LIG    1        9.402  -5.891  -2.418  0.00  0.00    +0.072 A 
ATOM     14  C   LIG    1       10.753  -6.298  -2.554  0.00  0.00    +0.000 A 
ATOM     15  C   LIG    1       11.801  -5.383  -2.374  0.00  0.00    +0.010 A 
ATOM     16  C   LIG    1       11.528  -4.063  -2.031  0.00  0.00    +0.001 A 
ATOM     17  C   LIG    1       10.208  -3.652  -1.881  0.00  0.00    +0.002 A 
ATOM     18  C   LIG    1       11.029  -7.634  -2.852  0.00  0.00    +0.012 A 
ATOM     19  C   LIG    1        9.163  -4.563  -2.083  0.00  0.00    +0.028 A 
ATOM     20  C   LIG    1        9.985  -8.536  -2.970  0.00  0.00    +0.034 A 
ENDBRANCH   9  11
ENDBRANCH   6   7
BRANCH   6  21
ATOM     21  C   LIG    1        4.423  -9.327  -2.287  0.00  0.00    +0.127 C 
BRANCH  21  22
ATOM     22  C   LIG    1        3.277 -10.302  -2.385  0.00  0.00    +0.213 C 
ATOM     23  O   LIG    1        3.314 -11.452  -2.010  0.00  0.00    -0.276 OA
ATOM     24  N   LIG    1        2.165  -9.758  -2.983  0.00  0.00    -0.329 N 
ATOM     25  H   LIG    1        1.422 -10.408  -3.193  0.00  0.00    +0.145 HD
ATOM     26  H   LIG    1        2.209  -8.904  -3.519  0.00  0.00    +0.145 HD
ENDBRANCH  21  22
ENDBRANCH   6  21
ENDBRANCH   4   6
ENDBRANCH   1   2
BRANCH   1  27
ATOM     27  C   LIG    1        2.813  -8.593  -7.369  0.00  0.00    +0.149 C 
BRANCH  27  28
ATOM     28  O   LIG    1        2.578  -7.994  -8.658  0.00  0.00    -0.389 OA
ATOM     29  H   LIG    1        2.834  -7.058  -8.581  0.00  0.00    +0.210 HD
ENDBRANCH  27  28
BRANCH  27  30
ATOM     30  C   LIG    1        1.891  -9.850  -7.132  0.00  0.00    +0.118 C 
BRANCH  30  32
ATOM     31  C   LIG    1       -0.446 -10.854  -7.019  0.00  0.00    +0.143 C 
ATOM     32  N   LIG    1        0.394  -9.610  -7.105  0.00  0.00    -0.289 NA
ATOM     33  C   LIG    1       -0.074  -8.966  -8.380  0.00  0.00    +0.089 C 
ATOM     34  C   LIG    1        0.188  -9.784  -9.677  0.00  0.00    +0.006 C 
ATOM     35  C   LIG    1       -0.297 -11.246  -9.572  0.00  0.00    -0.005 C 
ATOM     36  C   LIG    1       -1.749 -11.440 -10.028  0.00  0.00    +0.004 C 
ATOM     37  C   LIG    1       -1.964 -10.893 -11.428  0.00  0.00    +0.000 C 
ATOM     38  C   LIG    1       -1.699  -9.398 -11.444  0.00  0.00    +0.000 C 
ATOM     39  C   LIG    1       -0.286  -9.072 -10.966  0.00  0.00    +0.005 C 
ATOM     40  C   LIG    1       -0.122 -11.840  -8.168  0.00  0.00    +0.032 C 
BRANCH  31  43
ATOM     41  N   LIG    1       -0.865 -10.982  -4.496  0.00  0.00    -0.309 N 
ATOM     42  H   LIG    1       -1.131 -10.007  -4.583  0.00  0.00    +0.149 HD
ATOM     43  C   LIG    1       -0.548 -11.635  -5.685  0.00  0.00    +0.231 C 
ATOM     44  O   LIG    1       -0.513 -12.866  -5.743  0.00  0.00    -0.274 OA
BRANCH  41  46
ATOM     45  C   LIG    1       -1.024 -10.892  -1.984  0.00  0.00    +0.031 C 
ATOM     46  C   LIG    1       -1.303 -11.723  -3.256  0.00  0.00    +0.026 C 
ATOM     47  C   LIG    1       -2.815 -12.047  -3.279  0.00  0.00    +0.031 C 
ATOM     48  C   LIG    1       -0.517 -13.036  -3.049  0.00  0.00    +0.031 C 
ENDBRANCH  41  46
ENDBRANCH  31  43
ENDBRANCH  30  32
ENDBRANCH  27  30
ENDBRANCH   1  27
BRANCH   1  49
ATOM     49  C   LIG    1        5.022  -9.515  -8.509  0.00  0.00    +0.060 C 
BRANCH  49  50
ATOM     50  C   LIG    1        4.884 -11.012  -8.652  0.00  0.00    -0.045 A 
ATOM     51  C   LIG    1        5.860 -11.887  -8.161  0.00  0.00    +0.003 A 
ATOM     52  C   LIG    1        5.756 -13.263  -8.392  0.00  0.00    +0.000 A 
ATOM     53  C   LIG    1        4.664 -13.782  -9.085  0.00  0.00    +0.000 A 
ATOM     54  C   LIG    1        3.663 -12.930  -9.530  0.00  0.00    +0.000 A 
ATOM     55  C   LIG    1        3.805 -11.555  -9.360  0.00  0.00    +0.003 A 
ENDBRANCH  49  50
ENDBRANCH   1  49
TORSDOF 14
