REMARK  Name = *****
REMARK                            x       y       z     vdW  Elec       q    Type
REMARK                         _______ _______ _______ _____ _____    ______ ____
ROOT
ATOM      1  N   LIG    1        5.297  -2.428  -0.618  0.00  0.00    -0.234 N 
ATOM      2  C   LIG    1        6.368  -2.576  -1.487  0.00  0.00    +0.408 C 
ATOM      3  O   LIG    1        6.895  -1.747  -2.208  0.00  0.00    -0.226 OA
ATOM      4  O   LIG    1        6.835  -3.866  -1.438  0.00  0.00    -0.443 OA
ATOM      5  C   LIG    1        5.953  -4.655  -0.629  0.00  0.00    +0.221 C 
ATOM      6  C   LIG    1        5.056  -3.660   0.070  0.00  0.00    +0.164 C 
ENDROOT
BRANCH   1  10
ATOM      7  C   LIG    1        1.721  -0.125   1.959  0.00  0.00    +0.044 C 
ATOM      8  C   LIG    1        2.831  -0.069   0.951  0.00  0.00    -0.049 A 
ATOM      9  C   LIG    1        3.539  -1.238   0.619  0.00  0.00    +0.027 A 
ATOM     10  C   LIG    1        4.592  -1.230  -0.315  0.00  0.00    +0.040 A 
ATOM     11  C   LIG    1        4.915  -0.005  -0.910  0.00  0.00    +0.024 A 
ATOM     12  C   LIG    1        4.226   1.167  -0.579  0.00  0.00    +0.002 A 
ATOM     13  C   LIG    1        3.190   1.137   0.349  0.00  0.00    +0.003 A 
ENDBRANCH   1  10
BRANCH   5  14
ATOM     14  C   LIG    1        6.777  -5.486   0.350  0.00  0.00    +0.202 C 
BRANCH  14  15
ATOM     15  O   LIG    1        7.527  -6.477  -0.347  0.00  0.00    -0.391 OA
ATOM     16  H   LIG    1        8.118  -6.002  -0.961  0.00  0.00    +0.210 HD
ENDBRANCH  14  15
ENDBRANCH   5  14
TORSDOF 3
