REMARK  Name = *****
REMARK                            x       y       z     vdW  Elec       q    Type
REMARK                         _______ _______ _______ _____ _____    ______ ____
ROOT
ATOM      1  N   LIG    1        3.042   0.678  -0.184  0.00  0.00    -0.296 NA
ATOM      2  C   LIG    1        2.869  -0.787  -0.195  0.00  0.00    +0.100 C 
ATOM      3  C   LIG    1        1.651  -1.271  -1.009  0.00  0.00    +0.100 C 
ATOM      4  N   LIG    1        1.620  -0.829  -2.425  0.00  0.00    -0.289 NA
ATOM      5  C   LIG    1        1.890   0.630  -2.468  0.00  0.00    +0.100 C 
ATOM      6  C   LIG    1        3.059   1.145  -1.587  0.00  0.00    +0.100 C 
ENDROOT
BRANCH   1   7
ATOM      7  C   LIG    1        1.991   1.377   0.585  0.00  0.00    +0.119 C 
BRANCH   7  11
ATOM      8  C   LIG    1       -0.632  -0.523   4.463  0.00  0.00    +0.044 C 
ATOM      9  C   LIG    1        0.647   0.039   3.916  0.00  0.00    -0.050 A 
ATOM     10  C   LIG    1        0.729   0.426   2.571  0.00  0.00    +0.008 A 
ATOM     11  C   LIG    1        1.911   0.971   2.045  0.00  0.00    -0.033 A 
ATOM     12  C   LIG    1        3.013   1.142   2.895  0.00  0.00    +0.005 A 
ATOM     13  C   LIG    1        2.938   0.773   4.236  0.00  0.00    +0.001 A 
ATOM     14  C   LIG    1        1.757   0.226   4.746  0.00  0.00    +0.003 A 
ENDBRANCH   7  11
ENDBRANCH   1   7
BRANCH   4  15
ATOM     15  C   LIG    1        2.525  -1.625  -3.310  0.00  0.00    +0.117 C 
BRANCH  15  16
ATOM     16  C   LIG    1        2.253  -3.142  -3.246  0.00  0.00    -0.026 A 
ATOM     17  C   LIG    1        3.323  -4.053  -3.283  0.00  0.00    +0.007 A 
ATOM     18  C   LIG    1        3.088  -5.431  -3.231  0.00  0.00    +0.020 A 
ATOM     19  C   LIG    1        1.783  -5.910  -3.140  0.00  0.00    +0.041 A 
ATOM     20 CL   LIG    1        1.498  -7.605  -3.056  0.00  0.00    -0.084 Cl
ATOM     21  C   LIG    1        0.708  -5.027  -3.118  0.00  0.00    +0.020 A 
ATOM     22  C   LIG    1        0.942  -3.651  -3.188  0.00  0.00    +0.007 A 
ENDBRANCH  15  16
BRANCH  15  23
ATOM     23  C   LIG    1        2.470  -1.197  -4.787  0.00  0.00    -0.026 A 
ATOM     24  C   LIG    1        3.637  -1.224  -5.571  0.00  0.00    +0.005 A 
ATOM     25  C   LIG    1        3.600  -0.862  -6.920  0.00  0.00    +0.000 A 
ATOM     26  C   LIG    1        2.399  -0.464  -7.504  0.00  0.00    +0.000 A 
ATOM     27  C   LIG    1        1.230  -0.445  -6.747  0.00  0.00    +0.000 A 
ATOM     28  C   LIG    1        1.262  -0.822  -5.403  0.00  0.00    +0.005 A 
ENDBRANCH  15  23
ENDBRANCH   4  15
TORSDOF 5
