REMARK  Name = *****
REMARK                            x       y       z     vdW  Elec       q    Type
REMARK                         _______ _______ _______ _____ _____    ______ ____
ROOT
ATOM      1  S   LIG    1        3.661  -4.381  -4.913  0.00  0.00    +0.073 S 
ATOM      2  O   LIG    1        4.421  -4.527  -6.137  0.00  0.00    -0.150 OA
ATOM      3  O   LIG    1        2.239  -4.634  -4.871  0.00  0.00    -0.150 OA
ENDROOT
BRANCH   1   4
ATOM      4  C   LIG    1        4.448  -5.394  -3.685  0.00  0.00    +0.109 A 
ATOM      5  C   LIG    1        5.822  -5.277  -3.467  0.00  0.00    +0.030 A 
ATOM      6  C   LIG    1        6.428  -6.059  -2.481  0.00  0.00    +0.024 A 
ATOM      7  C   LIG    1        5.672  -6.930  -1.689  0.00  0.00    +0.025 A 
ATOM      8  C   LIG    1        4.312  -7.088  -1.974  0.00  0.00    +0.024 A 
ATOM      9  C   LIG    1        3.692  -6.315  -2.958  0.00  0.00    +0.030 A 
BRANCH   7  10
ATOM     10  N   LIG    1        6.306  -7.803  -0.800  0.00  0.00    -0.358 N 
ATOM     11  H   LIG    1        7.182  -7.454  -0.425  0.00  0.00    +0.142 HD
ATOM     12  H   LIG    1        5.699  -8.178  -0.077  0.00  0.00    +0.142 HD
ENDBRANCH   7  10
ENDBRANCH   1   4
BRANCH   1  13
ATOM     13  N   LIG    1        3.941  -2.848  -4.343  0.00  0.00    -0.199 N 
ATOM     14  H   LIG    1        4.603  -2.324  -4.911  0.00  0.00    +0.175 HD
BRANCH  13  19
ATOM     15  N   LIG    1        2.475  -0.835  -1.144  0.00  0.00    -0.299 N 
ATOM     16  C   LIG    1        3.326  -0.204  -2.062  0.00  0.00    +0.350 C 
ATOM     17  O   LIG    1        3.645   0.976  -1.928  0.00  0.00    -0.244 OA
ATOM     18  N   LIG    1        3.809  -0.944  -3.116  0.00  0.00    -0.177 NA
ATOM     19  C   LIG    1        3.395  -2.151  -3.258  0.00  0.00    +0.145 C 
ATOM     20  C   LIG    1        2.441  -2.840  -2.384  0.00  0.00    +0.063 C 
ATOM     21  C   LIG    1        2.036  -2.123  -1.337  0.00  0.00    +0.094 C 
BRANCH  15  23
ATOM     22  C   LIG    1        0.726   0.710  -0.305  0.00  0.00    +0.027 C 
ATOM     23  C   LIG    1        1.987  -0.080   0.010  0.00  0.00    +0.123 C 
ENDBRANCH  15  23
ENDBRANCH  13  19
ENDBRANCH   1  13
TORSDOF 5
