REMARK  Name = *****
REMARK                            x       y       z     vdW  Elec       q    Type
REMARK                         _______ _______ _______ _____ _____    ______ ____
ROOT
ATOM      1  C   LIG    1        0.457  -3.318   0.281  0.00  0.00    +0.170 C 
ENDROOT
BRANCH   1   2
ATOM      2  C   LIG    1       -1.066  -3.250   0.376  0.00  0.00    +0.001 A 
ATOM      3  C   LIG    1       -1.921  -3.684  -0.656  0.00  0.00    +0.048 A 
ATOM      4 CL   LIG    1       -1.321  -4.432  -2.094  0.00  0.00    -0.083 Cl
ATOM      5  C   LIG    1       -3.312  -3.531  -0.560  0.00  0.00    +0.040 A 
ATOM      6  C   LIG    1       -3.870  -2.963   0.580  0.00  0.00    +0.042 A 
ATOM      7 CL   LIG    1       -5.577  -2.782   0.701  0.00  0.00    -0.084 Cl
ATOM      8  C   LIG    1       -3.053  -2.546   1.624  0.00  0.00    +0.020 A 
ATOM      9  C   LIG    1       -1.664  -2.679   1.519  0.00  0.00    +0.009 A 
ENDBRANCH   1   2
BRANCH   1  10
ATOM     10  O   LIG    1        0.966  -1.981   0.429  0.00  0.00    -0.365 OA
BRANCH  10  11
ATOM     11  C   LIG    1        1.144  -1.319  -0.825  0.00  0.00    +0.198 C 
BRANCH  11  14
ATOM     12 CL   LIG    1       -0.673   1.396  -0.349  0.00  0.00    -0.075 Cl
ATOM     13  C   LIG    1        1.037   1.205  -0.417  0.00  0.00    +0.083 A 
ATOM     14  C   LIG    1        1.739   0.037  -0.619  0.00  0.00    +0.004 A 
ATOM     15  C   LIG    1        3.153   0.308  -0.603  0.00  0.00    +0.015 A 
ATOM     16  C   LIG    1        3.438   1.643  -0.402  0.00  0.00    +0.047 A 
ATOM     17  S   LIG    1        2.015   2.576  -0.227  0.00  0.00    -0.085 S 
ENDBRANCH  11  14
ENDBRANCH  10  11
ENDBRANCH   1  10
BRANCH   1  18
ATOM     18  C   LIG    1        1.083  -4.189   1.389  0.00  0.00    +0.159 C 
BRANCH  18  19
ATOM     19  N   LIG    1        2.529  -4.317   1.240  0.00  0.00    -0.334 N 
ATOM     20  C   LIG    1        3.188  -5.285   0.541  0.00  0.00    +0.199 A 
ATOM     21  N   LIG    1        4.494  -5.120   0.607  0.00  0.00    -0.244 NA
ATOM     22  C   LIG    1        4.681  -4.020   1.400  0.00  0.00    +0.130 A 
ATOM     23  C   LIG    1        3.471  -3.506   1.811  0.00  0.00    +0.107 A 
ENDBRANCH  18  19
ENDBRANCH   1  18
TORSDOF 6
