REMARK  Name = *****
REMARK                            x       y       z     vdW  Elec       q    Type
REMARK                         _______ _______ _______ _____ _____    ______ ____
ROOT
ATOM      1  C   LIG    1        4.697   0.075  -1.015  0.00  0.00    +0.133 C 
ATOM      2  C   LIG    1        5.112  -1.295  -1.613  0.00  0.00    +0.012 C 
ATOM      3  C   LIG    1        6.648  -1.464  -1.769  0.00  0.00    +0.011 C 
ATOM      4  C   LIG    1        7.302  -2.203  -0.581  0.00  0.00    +0.089 C 
ATOM      5  N   LIG    1        6.638  -3.451  -0.202  0.00  0.00    -0.293 NA
ATOM      6  C   LIG    1        5.412  -3.731  -0.975  0.00  0.00    +0.104 C 
ATOM      7  C   LIG    1        4.800  -5.001  -0.486  0.00  0.00    +0.038 C 
ATOM      8  C   LIG    1        5.465  -6.005   0.189  0.00  0.00    -0.016 C 
ATOM      9  C   LIG    1        4.556  -7.084   0.365  0.00  0.00    +0.003 C 
ATOM     10  C   LIG    1        3.350  -6.696  -0.224  0.00  0.00    +0.047 C 
ATOM     11  C   LIG    1        2.220  -7.521  -0.252  0.00  0.00    +0.026 C 
ATOM     12  C   LIG    1        2.324  -8.782   0.342  0.00  0.00    +0.002 C 
ATOM     13  C   LIG    1        3.513  -9.197   0.938  0.00  0.00    +0.001 C 
ATOM     14  C   LIG    1        4.635  -8.360   0.958  0.00  0.00    +0.010 C 
ATOM     15  C   LIG    1        6.891  -5.838   0.598  0.00  0.00    +0.053 C 
ATOM     16  N   LIG    1        3.526  -5.428  -0.731  0.00  0.00    -0.356 NA
ATOM     17  H   LIG    1        2.814  -4.910  -1.226  0.00  0.00    +0.166 HD
ATOM     18  C   LIG    1        7.540  -4.618  -0.117  0.00  0.00    +0.090 C 
ATOM     19  C   LIG    1        7.391  -0.155  -2.066  0.00  0.00    +0.052 C 
ATOM     20  C   LIG    1        6.484   0.911  -2.673  0.00  0.00    +0.206 C 
ATOM     21  C   LIG    1        4.503  -2.501  -0.852  0.00  0.00    +0.030 C 
ATOM     22  C   LIG    1        5.392   1.307  -1.657  0.00  0.00    +0.172 C 
ENDROOT
BRANCH   1  23
ATOM     23  C   LIG    1        3.187   0.247  -1.119  0.00  0.00    +0.313 C 
ATOM     24  O   LIG    1        2.564   0.337  -2.169  0.00  0.00    -0.250 OA
BRANCH  23  26
ATOM     25  C   LIG    1        1.229  -0.139   0.151  0.00  0.00    +0.280 C 
ATOM     26  O   LIG    1        2.627   0.156   0.121  0.00  0.00    -0.468 OA
ENDBRANCH  23  26
ENDBRANCH   1  23
BRANCH  22  27
ATOM     27  O   LIG    1        5.962   2.048  -0.553  0.00  0.00    -0.375 OA
ATOM     28  C   LIG    1        6.633   3.246  -0.923  0.00  0.00    +0.194 C 
ENDBRANCH  22  27
BRANCH  20  29
ATOM     29  O   LIG    1        5.944   0.414  -3.906  0.00  0.00    -0.455 OA
BRANCH  29  30
ATOM     30  C   LIG    1        5.520   1.351  -4.770  0.00  0.00    +0.340 C 
ATOM     31  O   LIG    1        5.385   2.555  -4.539  0.00  0.00    -0.245 OA
BRANCH  30  32
ATOM     32  C   LIG    1        5.479   0.765  -6.114  0.00  0.00    +0.066 A 
ATOM     33  C   LIG    1        5.877   1.556  -7.195  0.00  0.00    +0.064 A 
ATOM     34  C   LIG    1        6.016   1.013  -8.471  0.00  0.00    +0.166 A 
ATOM     35  C   LIG    1        5.677  -0.349  -8.677  0.00  0.00    +0.203 A 
ATOM     36  C   LIG    1        5.271  -1.148  -7.569  0.00  0.00    +0.166 A 
ATOM     37  C   LIG    1        5.173  -0.577  -6.302  0.00  0.00    +0.064 A 
BRANCH  34  38
ATOM     38  O   LIG    1        6.494   1.782  -9.510  0.00  0.00    -0.491 OA
ATOM     39  C   LIG    1        7.239   2.951  -9.136  0.00  0.00    +0.277 C 
ENDBRANCH  34  38
BRANCH  35  40
ATOM     40  O   LIG    1        5.767  -1.031  -9.867  0.00  0.00    -0.488 OA
ATOM     41  C   LIG    1        5.530  -0.311 -11.070  0.00  0.00    +0.277 C 
ENDBRANCH  35  40
BRANCH  36  42
ATOM     42  O   LIG    1        5.001  -2.482  -7.793  0.00  0.00    -0.491 OA
ATOM     43  C   LIG    1        4.612  -3.271  -6.665  0.00  0.00    +0.277 C 
ENDBRANCH  36  42
ENDBRANCH  30  32
ENDBRANCH  29  30
ENDBRANCH  20  29
TORSDOF 9
