REMARK  Name = *****
REMARK                            x       y       z     vdW  Elec       q    Type
REMARK                         _______ _______ _______ _____ _____    ______ ____
ROOT
ATOM      1  C   LIG    1        2.405   3.728   0.600  0.00  0.00    +0.035 C 
ATOM      2  C   LIG    1        3.423   2.772   1.223  0.00  0.00    +0.110 C 
ATOM      3  S   LIG    1        4.688   3.515   2.276  0.00  0.00    -0.131 S 
ATOM      4  C   LIG    1        4.939   4.905   1.156  0.00  0.00    +0.169 C 
ATOM      5  N   LIG    1        3.691   5.639   1.124  0.00  0.00    -0.249 N 
ATOM      6  C   LIG    1        4.209   6.838   1.492  0.00  0.00    +0.244 C 
ATOM      7  O   LIG    1        3.775   7.961   1.585  0.00  0.00    -0.273 OA
ATOM      8  CA  LIG    1        5.615   6.189   1.695  0.00  0.00    +0.191 C 
ATOM      9  CA  LIG    1        2.523   5.086   0.665  0.00  0.00    +0.128 C 
ENDROOT
BRANCH   8  10
ATOM     10  N   LIG    1        6.240   6.140   3.040  0.00  0.00    -0.296 N 
ATOM     11  H   LIG    1        7.226   5.922   3.154  0.00  0.00    +0.150 HD
ATOM     12  C   LIG    1        5.603   6.608   4.178  0.00  0.00    +0.270 C 
ATOM     13  O   LIG    1        4.457   7.014   4.199  0.00  0.00    -0.268 OA
BRANCH  12  14
ATOM     14  C   LIG    1        6.476   6.646   5.425  0.00  0.00    +0.208 C 
ATOM     15  N   LIG    1        7.754   6.839   5.191  0.00  0.00    -0.075 NA
BRANCH  14  16
ATOM     16  C   LIG    1        5.850   6.523   6.752  0.00  0.00    +0.197 C 
ATOM     17  N   LIG    1        6.597   6.657   7.931  0.00  0.00    -0.202 NA
ATOM     18  C   LIG    1        5.820   6.470   8.968  0.00  0.00    +0.176 C 
ATOM     19  S   LIG    1        4.183   6.256   8.501  0.00  0.00    +0.049 S 
ATOM     20  N   LIG    1        4.538   6.295   6.877  0.00  0.00    -0.185 NA
BRANCH  18  21
ATOM     21  N   LIG    1        6.253   6.453  10.234  0.00  0.00    -0.336 NA
ATOM     22  H   LIG    1        7.192   6.789  10.411  0.00  0.00    +0.144 HD
ATOM     23  H   LIG    1        5.596   6.627  10.988  0.00  0.00    +0.144 HD
ENDBRANCH  18  21
ENDBRANCH  14  16
BRANCH  15  24
ATOM     24  O   LIG    1        8.543   6.901   6.346  0.00  0.00    -0.376 OA
BRANCH  24  25
ATOM     25  C   LIG    1        9.743   7.678   6.166  0.00  0.00    +0.228 C 
ATOM     26  C   LIG    1        9.892   8.313   4.779  0.00  0.00    +0.070 C 
ATOM     27  C   LIG    1       10.924   6.759   6.475  0.00  0.00    +0.070 C 
BRANCH  25  28
ATOM     28  C   LIG    1        9.704   8.810   7.204  0.00  0.00    +0.351 C 
ATOM     29  O   LIG    1       10.691   9.365   7.666  0.00  0.00    -0.246 OA
BRANCH  28  30
ATOM     30  O   LIG    1        8.447   9.196   7.541  0.00  0.00    -0.478 OA
ATOM     31  H   LIG    1        7.786   8.578   7.162  0.00  0.00    +0.295 HD
ENDBRANCH  28  30
ENDBRANCH  25  28
ENDBRANCH  24  25
ENDBRANCH  15  24
ENDBRANCH  12  14
ENDBRANCH   8  10
BRANCH   9  32
ATOM     32  C   LIG    1        1.382   5.985   0.259  0.00  0.00    +0.352 C 
ATOM     33  O   LIG    1        0.290   5.612  -0.113  0.00  0.00    -0.244 OA
BRANCH  32  34
ATOM     34  OXT LIG    1        1.685   7.282   0.296  0.00  0.00    -0.476 OA
ATOM     35  HXT LIG    1        0.868   7.808   0.190  0.00  0.00    +0.295 HD
ENDBRANCH  32  34
ENDBRANCH   9  32
BRANCH   1  36
ATOM     36  C   LIG    1        1.247   2.949  -0.029  0.00  0.00    +0.420 C 
BRANCH  36  39
ATOM     37  C   LIG    1        1.428   3.805  -3.006  0.00  0.00    +0.223 C 
ATOM     38  N   LIG    1        2.009   2.603  -2.411  0.00  0.00    -0.138 NA
ATOM     39  N   LIG    1        1.783   2.138  -1.149  0.00  0.00    -0.106 NA
ATOM     40  C   LIG    1        2.231   0.789  -1.091  0.00  0.00    +0.363 C 
ATOM     41  C   LIG    1        2.879   0.432  -2.325  0.00  0.00    +0.144 C 
ATOM     42  C   LIG    1        2.759   1.637  -3.125  0.00  0.00    +0.179 C 
BRANCH  41  43
ATOM     43  N   LIG    1        3.473  -0.800  -2.587  0.00  0.00    -0.262 N 
ATOM     44  H   LIG    1        3.465  -1.500  -1.857  0.00  0.00    +0.157 HD
ATOM     45  C   LIG    1        4.123  -1.133  -3.753  0.00  0.00    +0.304 C 
ATOM     46  N   LIG    1        4.637  -2.405  -3.737  0.00  0.00    -0.298 N 
ATOM     47  H   LIG    1        4.281  -3.095  -3.093  0.00  0.00    +0.150 HD
ATOM     48  O   LIG    1        4.288  -0.384  -4.713  0.00  0.00    -0.253 OA
BRANCH  46  49
ATOM     49  C   LIG    1        5.399  -2.901  -4.879  0.00  0.00    +0.120 C 
BRANCH  49  50
ATOM     50  C   LIG    1        4.512  -3.566  -5.943  0.00  0.00    +0.096 C 
BRANCH  50  51
ATOM     51  N   LIG    1        5.296  -4.053  -7.075  0.00  0.00    -0.329 NA
ATOM     52  H   LIG    1        4.687  -4.557  -7.721  0.00  0.00    +0.118 HD
ATOM     53  H   LIG    1        5.665  -3.265  -7.608  0.00  0.00    +0.118 HD
ENDBRANCH  50  51
ENDBRANCH  49  50
ENDBRANCH  46  49
ENDBRANCH  41  43
BRANCH  42  54
ATOM     54  N   LIG    1        3.293   1.885  -4.348  0.00  0.00    -0.339 NA
ATOM     55  H   LIG    1        3.869   1.165  -4.811  0.00  0.00    +0.144 HD
ATOM     56  H   LIG    1        3.413   2.783  -4.798  0.00  0.00    +0.144 HD
ENDBRANCH  42  54
ENDBRANCH  36  39
ENDBRANCH   1  36
TORSDOF 17
