REMARK  Name = *****
REMARK                            x       y       z     vdW  Elec       q    Type
REMARK                         _______ _______ _______ _____ _____    ______ ____
ROOT
ATOM      1  C   LIG    1        7.655   1.409  -2.410  0.00  0.00    +0.299 A 
ATOM      2  N   LIG    1        8.681   1.891  -1.577  0.00  0.00    -0.289 N 
ATOM      3  C   LIG    1        8.201   3.121  -1.096  0.00  0.00    +0.086 A 
ATOM      4  C   LIG    1        7.248   3.469  -2.051  0.00  0.00    +0.093 A 
ATOM      5  C   LIG    1        6.726   4.772  -2.081  0.00  0.00    +0.030 A 
ATOM      6  C   LIG    1        7.094   5.693  -1.099  0.00  0.00    +0.003 A 
ATOM      7  C   LIG    1        7.898   5.302  -0.049  0.00  0.00    +0.017 A 
ATOM      8  C   LIG    1        8.421   4.008  -0.006  0.00  0.00    +0.085 A 
ATOM      9  N   LIG    1        6.895   2.400  -2.815  0.00  0.00    -0.195 NA
ENDROOT
BRANCH   8  10
ATOM     10  C   LIG    1        9.207   3.679   1.154  0.00  0.00    +0.342 C 
ATOM     11  O   LIG    1       10.186   3.091   0.942  0.00  0.00    -0.245 OA
BRANCH  10  12
ATOM     12  O   LIG    1        8.688   4.093   2.333  0.00  0.00    -0.453 OA
BRANCH  12  13
ATOM     13  C   LIG    1        8.970   3.407   3.583  0.00  0.00    +0.310 C 
BRANCH  13  14
ATOM     14  C   LIG    1       10.392   3.101   3.982  0.00  0.00    +0.187 A 
ATOM     15  C   LIG    1       11.363   2.358   3.477  0.00  0.00    +0.151 A 
ATOM     16  C   LIG    1       11.512   1.550   2.253  0.00  0.00    +0.090 C 
ATOM     17  O   LIG    1       12.522   2.441   4.218  0.00  0.00    -0.396 OA
ATOM     18  C   LIG    1       12.144   3.271   5.244  0.00  0.00    +0.521 A 
ATOM     19  O   LIG    1       12.910   3.605   6.137  0.00  0.00    -0.202 OA
ATOM     20  O   LIG    1       10.821   3.674   5.178  0.00  0.00    -0.392 OA
ENDBRANCH  13  14
ENDBRANCH  12  13
ENDBRANCH  10  12
ENDBRANCH   8  10
BRANCH   1  21
ATOM     21  O   LIG    1        7.378   0.158  -2.822  0.00  0.00    -0.464 OA
BRANCH  21  23
ATOM     22  C   LIG    1        8.388  -2.045  -3.500  0.00  0.00    +0.048 C 
ATOM     23  C   LIG    1        8.485  -0.703  -2.837  0.00  0.00    +0.229 C 
ENDBRANCH  21  23
ENDBRANCH   1  21
BRANCH   2  24
ATOM     24  C   LIG    1       10.032   1.325  -1.373  0.00  0.00    +0.162 C 
BRANCH  24  25
ATOM     25  C   LIG    1       11.200   2.118  -1.940  0.00  0.00    -0.028 A 
ATOM     26  C   LIG    1       11.226   2.617  -3.231  0.00  0.00    +0.006 A 
ATOM     27  C   LIG    1       12.277   3.468  -3.643  0.00  0.00    +0.009 A 
ATOM     28  C   LIG    1       13.497   3.629  -2.945  0.00  0.00    -0.017 A 
ATOM     29  C   LIG    1       13.501   3.014  -1.696  0.00  0.00    +0.009 A 
ATOM     30  C   LIG    1       12.365   2.329  -1.199  0.00  0.00    +0.006 A 
BRANCH  28  31
ATOM     31  C   LIG    1       14.670   4.323  -3.614  0.00  0.00    -0.007 A 
ATOM     32  C   LIG    1       15.677   5.151  -3.035  0.00  0.00    +0.028 A 
ATOM     33  C   LIG    1       16.705   5.704  -3.854  0.00  0.00    +0.012 A 
ATOM     34  C   LIG    1       16.730   5.540  -5.235  0.00  0.00    +0.001 A 
ATOM     35  C   LIG    1       15.745   4.782  -5.831  0.00  0.00    +0.001 A 
ATOM     36  C   LIG    1       14.767   4.167  -5.035  0.00  0.00    +0.009 A 
BRANCH  32  37
ATOM     37  C   LIG    1       15.775   5.577  -1.615  0.00  0.00    +0.183 C 
ATOM     38  N   LIG    1       16.221   6.811  -1.300  0.00  0.00    -0.271 N 
ATOM     39  H   LIG    1       16.505   7.577  -1.884  0.00  0.00    +0.174 HD
ATOM     40  C   LIG    1       16.316   6.868   0.036  0.00  0.00    +0.440 C 
ATOM     41  O   LIG    1       16.780   7.796   0.678  0.00  0.00    -0.221 OA
ATOM     42  O   LIG    1       15.835   5.696   0.551  0.00  0.00    -0.295 OA
ATOM     43  N   LIG    1       15.524   4.867  -0.570  0.00  0.00    -0.054 NA
ENDBRANCH  32  37
ENDBRANCH  28  31
ENDBRANCH  24  25
ENDBRANCH   2  24
TORSDOF 10
