REMARK  Name = *****
REMARK                            x       y       z     vdW  Elec       q    Type
REMARK                         _______ _______ _______ _____ _____    ______ ____
ROOT
ATOM      1  O   LIG    1       -0.578  -0.179  -0.407  0.00  0.00    -0.274 OA
ATOM      2  C   LIG    1        0.549   0.302  -0.480  0.00  0.00    +0.231 C 
ATOM      3  N   LIG    1        0.798   1.585  -0.917  0.00  0.00    -0.284 N 
ATOM      4  H   LIG    1        1.696   1.614  -1.398  0.00  0.00    +0.155 HD
ATOM      5  C   LIG    1        0.836   2.592   0.078  0.00  0.00    +0.041 A 
ATOM      6  C   LIG    1        1.645   2.534   1.233  0.00  0.00    +0.026 A 
ATOM      7  C   LIG    1        1.714   3.732   2.000  0.00  0.00    +0.030 A 
ATOM      8  C   LIG    1        0.993   4.879   1.664  0.00  0.00    +0.042 A 
ATOM      9 CL   LIG    1        1.112   6.285   2.648  0.00  0.00    -0.084 Cl
ATOM     10  C   LIG    1        0.188   4.892   0.537  0.00  0.00    +0.022 A 
ATOM     11  C   LIG    1        2.490   1.333   1.729  0.00  0.00    +0.179 C 
ATOM     12  N   LIG    1        2.088  -0.042   1.393  0.00  0.00    -0.256 NA
ATOM     13  C   LIG    1        1.039  -0.389   2.342  0.00  0.00    +0.116 C 
ATOM     14  C   LIG    1        1.593   0.221   3.601  0.00  0.00    +0.178 C 
ATOM     15  O   LIG    1        2.260   1.415   3.182  0.00  0.00    -0.349 OA
ATOM     16  C   LIG    1        0.123   3.755  -0.261  0.00  0.00    +0.025 A 
ATOM     17  C   LIG    1        1.790  -0.411   0.021  0.00  0.00    +0.184 C 
ENDROOT
BRANCH  11  18
ATOM     18  C   LIG    1        4.024   1.493   1.544  0.00  0.00    +0.022 A 
ATOM     19  C   LIG    1        4.674   1.954   0.382  0.00  0.00    +0.049 A 
ATOM     20 CL   LIG    1        3.873   2.412  -1.077  0.00  0.00    -0.083 Cl
ATOM     21  C   LIG    1        6.077   2.050   0.322  0.00  0.00    +0.020 A 
ATOM     22  C   LIG    1        6.872   1.674   1.399  0.00  0.00    +0.001 A 
ATOM     23  C   LIG    1        6.268   1.189   2.546  0.00  0.00    +0.001 A 
ATOM     24  C   LIG    1        4.875   1.096   2.611  0.00  0.00    +0.009 A 
ENDBRANCH  11  18
TORSDOF 1
