REMARK  Name = *****
REMARK                            x       y       z     vdW  Elec       q    Type
REMARK                         _______ _______ _______ _____ _____    ______ ____
ROOT
ATOM      1  C   LIG    1        5.111   0.660  -4.605  0.00  0.00    +0.039 A 
ATOM      2  C   LIG    1        5.026  -0.690  -4.980  0.00  0.00    +0.155 A 
ATOM      3  F   LIG    1        4.259  -1.555  -4.291  0.00  0.00    -0.203 F 
ATOM      4  C   LIG    1        5.741  -1.197  -6.074  0.00  0.00    +0.084 A 
ATOM      5  C   LIG    1        6.552  -0.355  -6.829  0.00  0.00    +0.027 A 
ATOM      6  C   LIG    1        6.660   0.986  -6.473  0.00  0.00    +0.003 A 
ATOM      7  C   LIG    1        5.970   1.479  -5.356  0.00  0.00    +0.013 A 
ENDROOT
BRANCH   1  11
ATOM      8  C   LIG    1        3.326   0.836  -1.467  0.00  0.00    +0.085 A 
ATOM      9  S   LIG    1        2.906   2.456  -1.808  0.00  0.00    -0.069 S 
ATOM     10  C   LIG    1        3.797   2.431  -3.291  0.00  0.00    +0.065 A 
ATOM     11  C   LIG    1        4.340   1.155  -3.455  0.00  0.00    +0.090 A 
ATOM     12  N   LIG    1        4.099   0.284  -2.379  0.00  0.00    -0.243 NA
BRANCH  10  13
ATOM     13  C   LIG    1        3.783   3.665  -4.096  0.00  0.00    +0.085 A 
ATOM     14  N   LIG    1        3.793   3.498  -5.432  0.00  0.00    -0.214 NA
ATOM     15  C   LIG    1        3.751   4.602  -6.184  0.00  0.00    +0.213 A 
ATOM     16  N   LIG    1        3.713   5.850  -5.713  0.00  0.00    -0.223 NA
ATOM     17  C   LIG    1        3.690   5.986  -4.379  0.00  0.00    +0.116 A 
ATOM     18  C   LIG    1        3.736   4.921  -3.517  0.00  0.00    +0.049 A 
BRANCH  15  19
ATOM     19  N   LIG    1        3.808   4.452  -7.552  0.00  0.00    -0.328 N 
ATOM     20  H   LIG    1        4.262   3.584  -7.796  0.00  0.00    +0.145 HD
ATOM     21  H   LIG    1        4.155   5.301  -7.977  0.00  0.00    +0.145 HD
ENDBRANCH  15  19
ENDBRANCH  10  13
BRANCH   8  23
ATOM     22  C   LIG    1        1.480   0.673   0.300  0.00  0.00    +0.018 C 
ATOM     23  C   LIG    1        2.855   0.154  -0.178  0.00  0.00    +0.011 C 
ATOM     24  C   LIG    1        2.725  -1.363  -0.406  0.00  0.00    +0.018 C 
ATOM     25  C   LIG    1        3.882   0.403   0.942  0.00  0.00    +0.018 C 
ENDBRANCH   8  23
ENDBRANCH   1  11
BRANCH   4  26
ATOM     26  N   LIG    1        5.711  -2.602  -6.369  0.00  0.00    -0.213 N 
ATOM     27  H   LIG    1        4.818  -3.051  -6.147  0.00  0.00    +0.174 HD
BRANCH  26  28
ATOM     28  S   LIG    1        6.985  -3.541  -5.729  0.00  0.00    +0.078 S 
ATOM     29  O   LIG    1        8.243  -2.918  -6.057  0.00  0.00    -0.150 OA
ATOM     30  O   LIG    1        6.728  -4.906  -6.161  0.00  0.00    -0.150 OA
BRANCH  28  31
ATOM     31  C   LIG    1        6.734  -3.459  -3.994  0.00  0.00    +0.178 A 
ATOM     32  C   LIG    1        5.932  -4.398  -3.354  0.00  0.00    +0.153 A 
ATOM     33  F   LIG    1        5.328  -5.385  -4.026  0.00  0.00    -0.203 F 
ATOM     34  C   LIG    1        5.712  -4.324  -1.978  0.00  0.00    +0.040 A 
ATOM     35  C   LIG    1        6.306  -3.310  -1.231  0.00  0.00    +0.006 A 
ATOM     36  C   LIG    1        7.128  -2.380  -1.866  0.00  0.00    +0.040 A 
ATOM     37  C   LIG    1        7.345  -2.466  -3.241  0.00  0.00    +0.153 A 
ATOM     38  F   LIG    1        8.128  -1.538  -3.807  0.00  0.00    -0.203 F 
ENDBRANCH  28  31
ENDBRANCH  26  28
ENDBRANCH   4  26
TORSDOF 7
