REMARK  Name = *****
REMARK                            x       y       z     vdW  Elec       q    Type
REMARK                         _______ _______ _______ _____ _____    ______ ____
ROOT
ATOM      1  N   LIG    1        6.698   1.726  -2.256  0.00  0.00    -0.298 N 
ATOM      2  C   LIG    1        7.312   1.652  -3.540  0.00  0.00    +0.049 A 
ATOM      3  C   LIG    1        8.670   1.316  -3.700  0.00  0.00    +0.034 A 
ATOM      4  C   LIG    1        9.249   1.213  -4.983  0.00  0.00    +0.018 A 
ATOM      5  C   LIG    1        8.502   1.462  -6.130  0.00  0.00    +0.021 A 
ATOM      6  C   LIG    1        7.181   1.835  -5.995  0.00  0.00    +0.043 A 
ATOM      7 CL   LIG    1        6.238   2.175  -7.395  0.00  0.00    -0.084 Cl
ATOM      8  S   LIG    1        9.765   0.965  -2.345  0.00  0.00    -0.086 S 
ATOM      9  C   LIG    1        8.762   1.377  -0.935  0.00  0.00    +0.034 A 
ATOM     10  C   LIG    1        9.434   1.354   0.305  0.00  0.00    +0.017 A 
ATOM     11  C   LIG    1        8.761   1.621   1.491  0.00  0.00    +0.001 A 
ATOM     12  C   LIG    1        7.410   1.904   1.450  0.00  0.00    +0.002 A 
ATOM     13  C   LIG    1        6.736   1.923   0.221  0.00  0.00    +0.024 A 
ATOM     14  C   LIG    1        6.599   1.937  -4.725  0.00  0.00    +0.044 A 
ATOM     15  C   LIG    1        7.386   1.665  -1.008  0.00  0.00    +0.048 A 
ENDROOT
BRANCH   1  16
ATOM     16  C   LIG    1        5.223   1.570  -2.209  0.00  0.00    +0.112 C 
BRANCH  16  17
ATOM     17  C   LIG    1        4.507   2.923  -2.079  0.00  0.00    +0.035 C 
BRANCH  17  18
ATOM     18  C   LIG    1        2.988   2.746  -1.942  0.00  0.00    +0.085 C 
BRANCH  18  20
ATOM     19  C   LIG    1        0.923   1.879  -2.827  0.00  0.00    +0.104 C 
ATOM     20  N   LIG    1        2.352   2.073  -3.087  0.00  0.00    -0.308 NA
ATOM     21  C   LIG    1        2.519   2.822  -4.334  0.00  0.00    +0.104 C 
ENDBRANCH  18  20
ENDBRANCH  17  18
ENDBRANCH  16  17
ENDBRANCH   1  16
TORSDOF 4
