REMARK  Name = *****
REMARK                            x       y       z     vdW  Elec       q    Type
REMARK                         _______ _______ _______ _____ _____    ______ ____
ROOT
ATOM      1  C   LIG    1        1.225   0.233   0.863  0.00  0.00    +0.134 C 
ATOM      2  N   LIG    1        2.309   0.083  -0.104  0.00  0.00    -0.279 N 
ATOM      3  C   LIG    1        2.926  -1.265  -0.197  0.00  0.00    +0.249 C 
ATOM      4  S   LIG    1        4.283  -1.509  -1.378  0.00  0.00    -0.007 S 
ATOM      5  O   LIG    1        5.168  -2.549  -0.886  0.00  0.00    -0.172 OA
ATOM      6  O   LIG    1        3.790  -1.528  -2.743  0.00  0.00    -0.172 OA
ATOM      7  C   LIG    1        5.120   0.029  -1.157  0.00  0.00    +0.177 C 
ATOM      8  C   LIG    1        4.156   1.164  -1.390  0.00  0.00    +0.118 C 
ATOM      9  C   LIG    1        3.046   1.236  -0.361  0.00  0.00    +0.218 C 
ATOM     10  O   LIG    1        2.770   2.323   0.147  0.00  0.00    -0.276 OA
ENDROOT
BRANCH   3  11
ATOM     11  C   LIG    1        1.923  -2.384  -0.442  0.00  0.00    -0.006 A 
ATOM     12  C   LIG    1        0.991  -2.312  -1.492  0.00  0.00    +0.008 A 
ATOM     13  C   LIG    1        0.076  -3.346  -1.706  0.00  0.00    +0.020 A 
ATOM     14  C   LIG    1        0.086  -4.462  -0.874  0.00  0.00    +0.041 A 
ATOM     15 CL   LIG    1       -1.042  -5.734  -1.135  0.00  0.00    -0.084 Cl
ATOM     16  C   LIG    1        1.006  -4.556   0.168  0.00  0.00    +0.020 A 
ATOM     17  C   LIG    1        1.922  -3.523   0.383  0.00  0.00    +0.008 A 
ENDBRANCH   3  11
TORSDOF 1
