REMARK  Name = *****
REMARK                            x       y       z     vdW  Elec       q    Type
REMARK                         _______ _______ _______ _____ _____    ______ ____
ROOT
ATOM      1  C   LIG    1        2.151 -11.452  -5.602  0.00  0.00    +0.121 A 
ATOM      2  C   LIG    1        1.884 -10.534  -6.620  0.00  0.00    +0.046 A 
ATOM      3  C   LIG    1        1.200  -9.341  -6.345  0.00  0.00    +0.007 A 
ATOM      4  C   LIG    1        0.764  -9.059  -5.044  0.00  0.00    -0.046 A 
ATOM      5  C   LIG    1        1.003 -10.004  -4.038  0.00  0.00    +0.007 A 
ATOM      6  C   LIG    1        1.680 -11.194  -4.316  0.00  0.00    +0.046 A 
ENDROOT
BRANCH   1   7
ATOM      7  O   LIG    1        2.873 -12.567  -5.956  0.00  0.00    -0.490 OA
BRANCH   7   8
ATOM      8  C   LIG    1        3.635 -13.142  -4.882  0.00  0.00    +0.248 C 
BRANCH   8   9
ATOM      9  C   LIG    1        4.817 -13.951  -5.439  0.00  0.00    +0.147 C 
BRANCH   9  11
ATOM     10  C   LIG    1        6.321 -13.620  -3.475  0.00  0.00    +0.131 C 
ATOM     11  N   LIG    1        5.650 -14.558  -4.380  0.00  0.00    -0.315 N 
BRANCH  11  12
ATOM     12  C   LIG    1        5.221 -15.748  -3.781  0.00  0.00    +0.121 A 
ATOM     13  N   LIG    1        5.463 -15.952  -2.465  0.00  0.00    -0.240 NA
ATOM     14  C   LIG    1        5.058 -17.111  -1.894  0.00  0.00    +0.113 A 
ATOM     15  C   LIG    1        4.384 -18.110  -2.567  0.00  0.00    +0.020 A 
ATOM     16  C   LIG    1        4.151 -17.922  -3.917  0.00  0.00    +0.005 A 
ATOM     17  C   LIG    1        4.593 -16.748  -4.527  0.00  0.00    +0.043 A 
ENDBRANCH  11  12
ENDBRANCH   9  11
ENDBRANCH   8   9
ENDBRANCH   7   8
ENDBRANCH   1   7
BRANCH   4  18
ATOM     18  C   LIG    1        0.048  -7.774  -4.701  0.00  0.00    +0.059 C 
BRANCH  18  19
ATOM     19  C   LIG    1        0.974  -6.619  -4.299  0.00  0.00    +0.146 C 
ATOM     20  C   LIG    1        1.705  -6.866  -2.990  0.00  0.00    +0.234 C 
ATOM     21  O   LIG    1        2.693  -7.572  -2.851  0.00  0.00    -0.274 OA
ATOM     22  N   LIG    1        1.117  -6.214  -1.948  0.00  0.00    -0.246 N 
ATOM     23  H   LIG    1        1.474  -6.318  -1.007  0.00  0.00    +0.158 HD
ATOM     24  C   LIG    1        0.155  -5.305  -2.214  0.00  0.00    +0.279 C 
ATOM     25  O   LIG    1       -0.471  -4.660  -1.376  0.00  0.00    -0.263 OA
ATOM     26  S   LIG    1       -0.074  -5.152  -3.933  0.00  0.00    -0.054 S 
ENDBRANCH  18  19
ENDBRANCH   4  18
TORSDOF 7
