REMARK  Name = *****
REMARK                            x       y       z     vdW  Elec       q    Type
REMARK                         _______ _______ _______ _____ _____    ______ ____
ROOT
ATOM      1  CA  TYR A  1        4.399   0.749   0.475  0.00  0.00    +0.186 C 
ENDROOT
BRANCH   1   4
ATOM      2  C   UNK A  0        5.497  -1.266   3.535  0.00  0.00    +0.109 C 
ATOM      3  C   UNK A  0        5.336  -0.047   2.659  0.00  0.00    +0.211 C 
ATOM      4  N   TYR A  1        4.684  -0.300   1.471  0.00  0.00    -0.302 N 
ATOM      5  H   TYR A  1        4.652  -1.259   1.139  0.00  0.00    +0.149 HD
ATOM      6  O   UNK A  0        5.673   1.065   3.017  0.00  0.00    -0.276 OA
ENDBRANCH   1   4
BRANCH   1   7
ATOM      7  C   TYR A  1        2.889   0.991   0.282  0.00  0.00    +0.326 C 
ATOM      8  O   TYR A  1        2.389   1.484  -0.717  0.00  0.00    -0.249 OA
BRANCH   7   9
ATOM      9  OXT TYR A  1        2.143   0.722   1.383  0.00  0.00    -0.479 OA
ATOM     10  HXT TYR A  1        2.697   0.429   2.132  0.00  0.00    +0.295 HD
ENDBRANCH   7   9
ENDBRANCH   1   7
BRANCH   1  11
ATOM     11  CB  TYR A  1        5.103   0.506  -0.874  0.00  0.00    +0.069 C 
BRANCH  11  12
ATOM     12  CG  TYR A  1        4.767  -0.801  -1.563  0.00  0.00    -0.045 A 
ATOM     13  CD2 TYR A  1        5.525  -1.954  -1.310  0.00  0.00    +0.007 A 
ATOM     14  CE2 TYR A  1        5.211  -3.162  -1.937  0.00  0.00    +0.045 A 
ATOM     15  CZ  TYR A  1        4.138  -3.225  -2.816  0.00  0.00    +0.117 A 
ATOM     16  CE1 TYR A  1        3.380  -2.095  -3.093  0.00  0.00    +0.045 A 
ATOM     17  CD1 TYR A  1        3.700  -0.883  -2.472  0.00  0.00    +0.007 A 
BRANCH  15  18
ATOM     18  OH  TYR A  1        3.857  -4.427  -3.396  0.00  0.00    -0.507 OA
ATOM     19  HH  TYR A  1        3.092  -4.314  -3.984  0.00  0.00    +0.292 HD
ENDBRANCH  15  18
ENDBRANCH  11  12
ENDBRANCH   1  11
TORSDOF 6
