REMARK  Name = *****
REMARK                            x       y       z     vdW  Elec       q    Type
REMARK                         _______ _______ _______ _____ _____    ______ ____
ROOT
ATOM      1  C   LIG    1        3.127   3.558  -4.879  0.00  0.00    +0.167 C 
ATOM      2  O   LIG    1        2.449   4.562  -5.070  0.00  0.00    -0.292 OA
ENDROOT
BRANCH   1   6
ATOM      3  C   LIG    1        5.416   3.259  -1.223  0.00  0.00    -0.048 A 
ATOM      4  C   LIG    1        5.450   2.223  -2.157  0.00  0.00    +0.004 A 
ATOM      5  C   LIG    1        4.710   2.310  -3.335  0.00  0.00    +0.012 A 
ATOM      6  C   LIG    1        3.918   3.433  -3.607  0.00  0.00    +0.018 A 
ATOM      7  C   LIG    1        3.868   4.465  -2.661  0.00  0.00    +0.012 A 
ATOM      8  C   LIG    1        4.612   4.377  -1.478  0.00  0.00    +0.004 A 
BRANCH   3  10
ATOM      9  C   LIG    1        5.425   2.482   1.163  0.00  0.00    +0.009 C 
ATOM     10  C   LIG    1        6.215   3.150   0.049  0.00  0.00    +0.032 C 
ENDBRANCH   3  10
ENDBRANCH   1   6
BRANCH   1  11
ATOM     11  C   LIG    1        3.171   2.404  -5.885  0.00  0.00    +0.071 C 
ATOM     12  C   LIG    1        2.056   1.406  -5.574  0.00  0.00    +0.017 C 
BRANCH  11  13
ATOM     13  C   LIG    1        3.147   2.927  -7.332  0.00  0.00    +0.095 C 
BRANCH  13  14
ATOM     14  N   LIG    1        3.197   1.867  -8.362  0.00  0.00    -0.302 NA
ATOM     15  C   LIG    1        3.035   2.429  -9.715  0.00  0.00    +0.084 C 
ATOM     16  C   LIG    1        4.269   3.180 -10.224  0.00  0.00    +0.015 C 
ATOM     17  C   LIG    1        5.515   2.304 -10.156  0.00  0.00    +0.002 C 
ATOM     18  C   LIG    1        5.677   1.694  -8.768  0.00  0.00    +0.015 C 
ATOM     19  C   LIG    1        4.388   1.005  -8.316  0.00  0.00    +0.084 C 
ENDBRANCH  13  14
ENDBRANCH  11  13
ENDBRANCH   1  11
TORSDOF 5
