REMARK  Name = *****
REMARK                            x       y       z     vdW  Elec       q    Type
REMARK                         _______ _______ _______ _____ _____    ______ ____
ROOT
ATOM      1  C   LIG    1        5.685  -1.940   0.532  0.00  0.00    +0.084 C 
ATOM      2  C   LIG    1        7.110  -1.527   0.141  0.00  0.00    +0.027 C 
ENDROOT
BRANCH   1   3
ATOM      3  N   LIG    1        4.683  -0.820   0.352  0.00  0.00    -0.308 NA
ATOM      4  H   LIG    1        3.784  -1.113   0.735  0.00  0.00    +0.122 HD
BRANCH   3   6
ATOM      5  C   LIG    1        5.629   0.341  -1.680  0.00  0.00    +0.024 C 
ATOM      6  C   LIG    1        4.432  -0.394  -1.058  0.00  0.00    +0.051 C 
BRANCH   6   7
ATOM      7  C   LIG    1        3.153   0.491  -1.193  0.00  0.00    +0.023 C 
BRANCH   7   8
ATOM      8  C   LIG    1        2.819   1.022  -2.615  0.00  0.00    +0.036 C 
BRANCH   8   9
ATOM      9  C   LIG    1        2.478  -0.016  -3.661  0.00  0.00    -0.047 A 
ATOM     10  C   LIG    1        1.235   0.000  -4.304  0.00  0.00    +0.003 A 
ATOM     11  C   LIG    1        0.962  -0.882  -5.357  0.00  0.00    +0.000 A 
ATOM     12  C   LIG    1        1.942  -1.788  -5.779  0.00  0.00    +0.000 A 
ATOM     13  C   LIG    1        3.165  -1.837  -5.135  0.00  0.00    +0.000 A 
ATOM     14  C   LIG    1        3.430  -0.952  -4.090  0.00  0.00    +0.003 A 
ENDBRANCH   8   9
ENDBRANCH   7   8
ENDBRANCH   6   7
ENDBRANCH   3   6
ENDBRANCH   1   3
BRANCH   1  15
ATOM     15  C   LIG    1        5.707  -2.506   2.019  0.00  0.00    +0.161 C 
BRANCH  15  16
ATOM     16  C   LIG    1        6.816  -3.517   2.325  0.00  0.00    -0.018 A 
ATOM     17  C   LIG    1        6.935  -4.706   1.575  0.00  0.00    +0.010 A 
ATOM     18  C   LIG    1        8.005  -5.582   1.792  0.00  0.00    +0.046 A 
ATOM     19  C   LIG    1        8.947  -5.304   2.762  0.00  0.00    +0.117 A 
ATOM     20  C   LIG    1        8.823  -4.170   3.567  0.00  0.00    +0.046 A 
ATOM     21  C   LIG    1        7.761  -3.281   3.336  0.00  0.00    +0.010 A 
BRANCH  19  22
ATOM     22  O   LIG    1       10.002  -6.160   2.904  0.00  0.00    -0.507 OA
ATOM     23  H   LIG    1       10.668  -5.742   3.467  0.00  0.00    +0.292 HD
ENDBRANCH  19  22
ENDBRANCH  15  16
BRANCH  15  24
ATOM     24  O   LIG    1        4.478  -3.173   2.325  0.00  0.00    -0.386 OA
ATOM     25  H   LIG    1        3.786  -2.777   1.778  0.00  0.00    +0.210 HD
ENDBRANCH  15  24
ENDBRANCH   1  15
TORSDOF 9
