REMARK  Name = *****
REMARK                            x       y       z     vdW  Elec       q    Type
REMARK                         _______ _______ _______ _____ _____    ______ ____
ROOT
ATOM      1  C   LIG    1        2.937  -0.662  -1.253  0.00  0.00    -0.034 A 
ATOM      2  C   LIG    1        2.804  -2.057  -1.367  0.00  0.00    +0.007 A 
ATOM      3  C   LIG    1        3.009  -2.696  -2.590  0.00  0.00    +0.029 A 
ATOM      4  C   LIG    1        3.355  -1.936  -3.709  0.00  0.00    +0.105 A 
ATOM      5  C   LIG    1        3.482  -0.547  -3.619  0.00  0.00    +0.029 A 
ATOM      6  C   LIG    1        3.275   0.085  -2.391  0.00  0.00    +0.007 A 
ENDROOT
BRANCH   4   7
ATOM      7  S   LIG    1        3.604  -2.734  -5.271  0.00  0.00    +0.056 S 
ATOM      8  O   LIG    1        3.363  -1.775  -6.323  0.00  0.00    -0.153 OA
ATOM      9  O   LIG    1        2.962  -4.028  -5.236  0.00  0.00    -0.153 OA
BRANCH   7  10
ATOM     10  N   LIG    1        5.259  -3.048  -5.228  0.00  0.00    -0.203 NA
ATOM     11  H   LIG    1        5.730  -2.598  -4.444  0.00  0.00    +0.144 HD
ATOM     12  H   LIG    1        5.400  -4.060  -5.226  0.00  0.00    +0.144 HD
ENDBRANCH   7  10
ENDBRANCH   4   7
BRANCH   1  13
ATOM     13  C   LIG    1        2.689   0.019   0.070  0.00  0.00    +0.113 C 
BRANCH  13  14
ATOM     14  N   LIG    1        3.618  -0.448   1.092  0.00  0.00    -0.326 NA
ATOM     15  H   LIG    1        4.569  -0.237   0.794  0.00  0.00    +0.118 HD
ATOM     16  H   LIG    1        3.462   0.080   1.948  0.00  0.00    +0.118 HD
ENDBRANCH  13  14
ENDBRANCH   1  13
TORSDOF 4
