REMARK  Name = *****
REMARK                            x       y       z     vdW  Elec       q    Type
REMARK                         _______ _______ _______ _____ _____    ______ ____
ROOT
ATOM      1  C   LIG    1        4.328  -0.669  -3.643  0.00  0.00    +0.325 C 
ATOM      2  C   LIG    1        5.422   0.089  -4.330  0.00  0.00    +0.109 A 
ATOM      3  C   LIG    1        5.461   0.217  -5.719  0.00  0.00    +0.144 A 
ATOM      4  C   LIG    1        6.441   1.005  -6.329  0.00  0.00    +0.048 A 
ATOM      5  C   LIG    1        7.412   1.635  -5.549  0.00  0.00    +0.023 A 
ATOM      6  C   LIG    1        7.392   1.480  -4.163  0.00  0.00    +0.042 A 
ATOM      7 CL   LIG    1        8.590   2.256  -3.203  0.00  0.00    -0.084 Cl
ATOM      8  O   LIG    1        4.542  -0.381  -6.543  0.00  0.00    -0.451 OA
ATOM      9  C   LIG    1        4.557  -1.754  -6.457  0.00  0.00    +0.179 A 
ATOM     10  C   LIG    1        4.265  -2.425  -5.263  0.00  0.00    +0.218 A 
ATOM     11  C   LIG    1        4.298  -3.824  -5.271  0.00  0.00    +0.059 A 
ATOM     12  C   LIG    1        4.619  -4.534  -6.433  0.00  0.00    +0.004 A 
ATOM     13  C   LIG    1        4.894  -3.849  -7.614  0.00  0.00    +0.004 A 
ATOM     14  C   LIG    1        4.856  -2.456  -7.630  0.00  0.00    +0.051 A 
ATOM     15  C   LIG    1        6.404   0.714  -3.549  0.00  0.00    +0.039 A 
ATOM     16  N   LIG    1        3.846  -1.800  -4.080  0.00  0.00    -0.038 NA
ENDROOT
BRANCH   1  21
ATOM     17  C   LIG    1        0.894   0.925  -0.424  0.00  0.00    +0.105 C 
ATOM     18  N   LIG    1        2.321   0.919  -0.108  0.00  0.00    -0.298 NA
ATOM     19  C   LIG    1        2.882  -0.449  -0.154  0.00  0.00    +0.127 C 
ATOM     20  C   LIG    1        3.053  -1.049  -1.567  0.00  0.00    +0.241 C 
ATOM     21  N   LIG    1        3.830  -0.142  -2.443  0.00  0.00    -0.217 N 
ATOM     22  C   LIG    1        3.264   1.226  -2.463  0.00  0.00    +0.241 C 
ATOM     23  C   LIG    1        3.089   1.780  -1.032  0.00  0.00    +0.127 C 
ENDBRANCH   1  21
TORSDOF 1
