REMARK  Name = *****
REMARK                            x       y       z     vdW  Elec       q    Type
REMARK                         _______ _______ _______ _____ _____    ______ ____
ROOT
ATOM      1  C   LIG    1       -8.270  -9.011  -2.015  0.00  0.00    +0.163 C 
ATOM      2  C   LIG    1       -7.469 -10.155  -1.399  0.00  0.00    +0.209 C 
ATOM      3  N   LIG    1       -8.033 -10.313  -0.059  0.00  0.00    -0.281 N 
ATOM      4  C   LIG    1       -7.147 -10.506   1.004  0.00  0.00    +0.269 C 
ATOM      5  O   LIG    1       -5.990 -10.871   0.798  0.00  0.00    -0.268 OA
ATOM      6  C   LIG    1       -7.615 -10.222   2.359  0.00  0.00    +0.164 A 
ATOM      7  N   LIG    1       -8.925 -10.294   2.804  0.00  0.00    -0.208 NA
ATOM      8  C   LIG    1       -8.839 -10.065   4.101  0.00  0.00    +0.203 A 
ATOM      9  C   LIG    1       -9.888 -10.230   5.133  0.00  0.00    +0.170 C 
ATOM     10  C   LIG    1       -9.514 -11.387   6.038  0.00  0.00    +0.145 C 
ATOM     11  O   LIG    1       -8.953 -11.171   7.120  0.00  0.00    -0.297 OA
ATOM     12  C   LIG    1       -9.904 -12.818   5.677  0.00  0.00    +0.110 C 
ATOM     13  C   LIG    1       -9.839 -13.137   4.189  0.00  0.00    +0.145 C 
ATOM     14  C   LIG    1       -9.487 -14.562   3.869  0.00  0.00    +0.007 C 
ATOM     15  C   LIG    1       -8.434 -14.935   3.114  0.00  0.00    -0.052 C 
ATOM     16  C   LIG    1       -7.435 -13.981   2.504  0.00  0.00    +0.043 C 
ATOM     17  C   LIG    1       -8.171 -16.318   2.775  0.00  0.00    +0.000 C 
ATOM     18  C   LIG    1       -8.948 -17.018   1.934  0.00  0.00    -0.008 C 
ATOM     19  C   LIG    1       -8.510 -18.305   1.305  0.00  0.00    +0.132 C 
ATOM     20  N   LIG    1       -7.897 -17.911   0.057  0.00  0.00    -0.308 N 
ATOM     21  H   LIG    1       -7.093 -17.303   0.116  0.00  0.00    +0.149 HD
ATOM     22  C   LIG    1       -8.604 -17.940  -1.112  0.00  0.00    +0.237 C 
ATOM     23  O   LIG    1       -9.581 -18.647  -1.326  0.00  0.00    -0.271 OA
ATOM     24  C   LIG    1       -8.138 -16.991  -2.155  0.00  0.00    +0.063 C 
ATOM     25  C   LIG    1       -7.810 -15.713  -1.880  0.00  0.00    -0.015 C 
ATOM     26  C   LIG    1       -7.638 -14.667  -2.959  0.00  0.00    +0.050 C 
ATOM     27  C   LIG    1       -6.162 -14.261  -3.005  0.00  0.00    +0.015 C 
ATOM     28  C   LIG    1       -8.600 -13.431  -2.872  0.00  0.00    +0.186 C 
ATOM     29  O   LIG    1       -8.201 -12.449  -1.871  0.00  0.00    -0.459 OA
ATOM     30  O   LIG    1       -7.576  -9.774   4.536  0.00  0.00    -0.447 OA
ATOM     31  C   LIG    1       -6.804  -9.886   3.421  0.00  0.00    +0.230 A 
ATOM     32  C   LIG    1       -9.318  -9.635   0.058  0.00  0.00    +0.111 C 
ATOM     33  C   LIG    1       -7.548 -11.350  -2.355  0.00  0.00    +0.330 C 
ATOM     34  O   LIG    1       -7.122 -11.247  -3.504  0.00  0.00    -0.249 OA
ATOM     35  C   LIG    1       -9.639  -9.139  -1.345  0.00  0.00    +0.047 C 
ENDROOT
BRANCH   1  36
ATOM     36  S   LIG    1       -7.553  -7.414  -1.649  0.00  0.00    -0.025 S 
ATOM     37  O   LIG    1       -8.404  -6.419  -2.290  0.00  0.00    -0.174 OA
ATOM     38  O   LIG    1       -7.308  -7.331  -0.229  0.00  0.00    -0.174 OA
BRANCH  36  39
ATOM     39  C   LIG    1       -5.970  -7.339  -2.455  0.00  0.00    +0.181 C 
BRANCH  39  40
ATOM     40  C   LIG    1       -6.050  -7.388  -3.974  0.00  0.00    +0.107 C 
BRANCH  40  41
ATOM     41  N   LIG    1       -4.761  -7.366  -4.703  0.00  0.00    -0.301 NA
BRANCH  41  43
ATOM     42  C   LIG    1       -5.833  -8.623  -6.674  0.00  0.00    +0.020 C 
ATOM     43  C   LIG    1       -4.993  -7.452  -6.174  0.00  0.00    +0.081 C 
ENDBRANCH  41  43
BRANCH  41  44
ATOM     44  C   LIG    1       -3.913  -6.167  -4.491  0.00  0.00    +0.081 C 
ATOM     45  C   LIG    1       -3.390  -5.869  -3.089  0.00  0.00    +0.020 C 
ENDBRANCH  41  44
ENDBRANCH  40  41
ENDBRANCH  39  40
ENDBRANCH  36  39
ENDBRANCH   1  36
BRANCH  28  46
ATOM     46  C   LIG    1      -10.130 -13.729  -2.739  0.00  0.00    +0.024 C 
ATOM     47  C   LIG    1      -10.568 -14.559  -1.529  0.00  0.00    +0.011 C 
ATOM     48  C   LIG    1      -10.928 -12.421  -2.697  0.00  0.00    +0.011 C 
ENDBRANCH  28  46
BRANCH  13  49
ATOM     49  O   LIG    1      -11.111 -12.864   3.611  0.00  0.00    -0.387 OA
ATOM     50  H   LIG    1      -11.029 -13.057   2.659  0.00  0.00    +0.210 HD
ENDBRANCH  13  49
TORSDOF 8
