REMARK  Name = *****
REMARK                            x       y       z     vdW  Elec       q    Type
REMARK                         _______ _______ _______ _____ _____    ______ ____
ROOT
ATOM      1  O   LIG    1        6.803   4.344  -2.353  0.00  0.00    -0.461 OA
ENDROOT
BRANCH   1   2
ATOM      2  C   LIG    1        5.955   4.712  -1.253  0.00  0.00    +0.187 C 
ATOM      3  C   LIG    1        4.593   5.046  -1.877  0.00  0.00    +0.099 C 
ATOM      4  C   LIG    1        3.714   5.926  -0.987  0.00  0.00    +0.070 C 
ATOM      5  N   LIG    1        4.465   7.225  -0.643  0.00  0.00    +0.243 N 
ATOM      6  C   LIG    1        5.519   6.671   0.339  0.00  0.00    +0.070 C 
ATOM      7  C   LIG    1        4.688   5.748   1.246  0.00  0.00    +0.060 C 
ATOM      8  C   LIG    1        5.045   7.978  -1.843  0.00  0.00    +0.192 C 
ATOM      9  C   LIG    1        3.527   8.239   0.045  0.00  0.00    +0.192 C 
ATOM     10  C   LIG    1        3.515   5.266   0.386  0.00  0.00    +0.060 C 
ATOM     11  C   LIG    1        6.570   5.865  -0.441  0.00  0.00    +0.099 C 
ENDBRANCH   1   2
BRANCH   1  12
ATOM     12  C   LIG    1        7.840   3.502  -2.083  0.00  0.00    +0.310 C 
ATOM     13  O   LIG    1        8.121   3.103  -0.966  0.00  0.00    -0.251 OA
BRANCH  12  14
ATOM     14  C   LIG    1        8.542   3.071  -3.367  0.00  0.00    +0.098 C 
BRANCH  14  15
ATOM     15  C   LIG    1        7.792   1.832  -3.911  0.00  0.00    +0.014 C 
BRANCH  15  17
ATOM     16  C   LIG    1        7.694  -0.059  -5.614  0.00  0.00    +0.004 C 
ATOM     17  C   LIG    1        8.446   1.179  -5.134  0.00  0.00    -0.003 C 
ENDBRANCH  15  17
ENDBRANCH  14  15
BRANCH  14  18
ATOM     18  C   LIG    1        8.643   4.229  -4.385  0.00  0.00    +0.014 C 
BRANCH  18  19
ATOM     19  C   LIG    1        9.386   5.450  -3.822  0.00  0.00    -0.003 C 
ATOM     20  C   LIG    1        9.471   6.583  -4.834  0.00  0.00    +0.004 C 
ENDBRANCH  18  19
ENDBRANCH  14  18
ENDBRANCH  12  14
ENDBRANCH   1  12
TORSDOF 7
