REMARK  Name = *****
REMARK                            x       y       z     vdW  Elec       q    Type
REMARK                         _______ _______ _______ _____ _____    ______ ____
ROOT
ATOM      1  C   LIG    1        4.604  -1.787  -2.586  0.00  0.00    +0.011 A 
ATOM      2  C   LIG    1        4.785  -3.178  -2.504  0.00  0.00    +0.026 A 
ATOM      3 BR   LIG    1        4.683  -4.134  -0.866  0.00  0.00    -0.050 Br
ATOM      4  C   LIG    1        5.089  -3.930  -3.647  0.00  0.00    +0.016 A 
ATOM      5  C   LIG    1        5.247  -3.300  -4.881  0.00  0.00    +0.001 A 
ATOM      6  C   LIG    1        5.127  -1.922  -4.973  0.00  0.00    +0.001 A 
ATOM      7  C   LIG    1        4.815  -1.170  -3.838  0.00  0.00    +0.010 A 
ENDROOT
BRANCH   1   8
ATOM      8  C   LIG    1        4.220  -0.912  -1.411  0.00  0.00    +0.170 C 
BRANCH   8   9
ATOM      9  N   LIG    1        2.718  -0.521  -1.265  0.00  0.00    +0.242 N 
ATOM     10  C   LIG    1        2.200   0.205  -2.498  0.00  0.00    +0.192 C 
ATOM     11  C   LIG    1        1.873  -1.785  -1.073  0.00  0.00    +0.192 C 
BRANCH   9  13
ATOM     12  C   LIG    1        3.140   1.731  -0.093  0.00  0.00    +0.060 C 
ATOM     13  C   LIG    1        2.516   0.346  -0.001  0.00  0.00    +0.129 C 
ENDBRANCH   9  13
ENDBRANCH   8   9
ENDBRANCH   1   8
TORSDOF 3
