REMARK  Name = *****
REMARK                            x       y       z     vdW  Elec       q    Type
REMARK                         _______ _______ _______ _____ _____    ______ ____
ROOT
ATOM      1  C   LIG    1       -9.306  -8.858  -2.034  0.00  0.00    +0.168 C 
ATOM      2  C   LIG    1       -8.724  -8.733  -3.469  0.00  0.00    +0.237 C 
ATOM      3  O   LIG    1       -9.478  -8.873  -4.441  0.00  0.00    -0.274 OA
ATOM      4  N   LIG    1       -7.445  -8.253  -3.675  0.00  0.00    -0.285 N 
ATOM      5  C   LIG    1       -7.071  -7.929  -5.052  0.00  0.00    +0.153 C 
ATOM      6  C   LIG    1       -5.726  -7.234  -4.937  0.00  0.00    +0.195 C 
ATOM      7  C   LIG    1       -5.074  -8.017  -3.779  0.00  0.00    +0.078 C 
ATOM      8  O   LIG    1       -5.933  -5.884  -4.519  0.00  0.00    -0.470 OA
ATOM      9  C   LIG    1       -5.701  -4.862  -5.411  0.00  0.00    +0.244 A 
ATOM     10  C   LIG    1       -5.760  -3.558  -4.929  0.00  0.00    +0.175 A 
ATOM     11  N   LIG    1       -5.423  -2.495  -5.723  0.00  0.00    -0.239 NA
ATOM     12  C   LIG    1       -5.111  -2.752  -6.999  0.00  0.00    +0.090 A 
ATOM     13  C   LIG    1       -5.148  -4.071  -7.514  0.00  0.00    +0.093 A 
ATOM     14  C   LIG    1       -4.907  -4.236  -8.878  0.00  0.00    +0.030 A 
ATOM     15  C   LIG    1       -4.601  -3.152  -9.712  0.00  0.00    +0.002 A 
ATOM     16  C   LIG    1       -4.516  -1.874  -9.178  0.00  0.00    +0.002 A 
ATOM     17  C   LIG    1       -4.774  -1.686  -7.823  0.00  0.00    +0.030 A 
ATOM     18  C   LIG    1       -6.337  -3.245  -3.559  0.00  0.00    +0.314 C 
ATOM     19  F   LIG    1       -5.620  -2.261  -2.931  0.00  0.00    -0.194 F 
ATOM     20  F   LIG    1       -6.301  -4.282  -2.675  0.00  0.00    -0.194 F 
ATOM     21  C   LIG    1       -7.749  -2.725  -3.696  0.00  0.00    +0.052 C 
ATOM     22  C   LIG    1       -8.883  -3.443  -3.617  0.00  0.00    +0.003 C 
ATOM     23  C   LIG    1      -10.241  -2.839  -3.803  0.00  0.00    +0.187 C 
ATOM     24  O   LIG    1      -11.256  -3.679  -3.289  0.00  0.00    -0.369 OA
ATOM     25  C   LIG    1      -11.818  -3.501  -1.986  0.00  0.00    +0.159 C 
ATOM     26  C   LIG    1      -11.324  -4.581  -0.995  0.00  0.00    +0.207 C 
ATOM     27  C   LIG    1      -10.042  -3.969  -0.436  0.00  0.00    +0.047 C 
ATOM     28  C   LIG    1      -10.236  -2.453  -0.478  0.00  0.00    +0.006 C 
ATOM     29  O   LIG    1      -11.171  -5.827  -1.687  0.00  0.00    -0.445 OA
ATOM     30  C   LIG    1      -10.438  -6.816  -1.122  0.00  0.00    +0.401 C 
ATOM     31  O   LIG    1       -9.960  -6.825  -0.013  0.00  0.00    -0.227 OA
ATOM     32  C   LIG    1      -11.543  -2.205  -1.228  0.00  0.00    +0.035 C 
ATOM     33  N   LIG    1       -5.417  -5.135  -6.708  0.00  0.00    -0.210 NA
ATOM     34  C   LIG    1       -6.241  -8.463  -2.857  0.00  0.00    +0.166 C 
ATOM     35  N   LIG    1      -10.316  -7.798  -2.051  0.00  0.00    -0.269 N 
ATOM     36  H   LIG    1      -10.765  -7.598  -2.938  0.00  0.00    +0.153 HD
ENDROOT
BRANCH   1  38
ATOM     37  C   LIG    1       -8.870 -11.339  -1.686  0.00  0.00    +0.013 C 
ATOM     38  C   LIG    1       -9.951 -10.242  -1.702  0.00  0.00    -0.011 C 
ATOM     39  C   LIG    1      -10.595 -10.190  -0.297  0.00  0.00    +0.013 C 
ATOM     40  C   LIG    1      -11.052 -10.660  -2.700  0.00  0.00    +0.013 C 
ENDBRANCH   1  38
BRANCH  34  41
ATOM     41  C   LIG    1       -6.114  -7.743  -1.492  0.00  0.00    +0.234 C 
ATOM     42  N   LIG    1       -5.339  -8.420  -0.558  0.00  0.00    -0.299 N 
ATOM     43  H   LIG    1       -4.925  -9.321  -0.776  0.00  0.00    +0.150 HD
ATOM     44  O   LIG    1       -6.615  -6.652  -1.243  0.00  0.00    -0.274 OA
BRANCH  42  45
ATOM     45  C   LIG    1       -5.113  -7.895   0.789  0.00  0.00    +0.121 C 
ATOM     46  C   LIG    1       -6.315  -7.666   1.700  0.00  0.00    +0.090 C 
ATOM     47  C   LIG    1       -5.431  -8.853   1.944  0.00  0.00    +0.047 C 
BRANCH  45  48
ATOM     48  C   LIG    1       -3.878  -7.028   0.944  0.00  0.00    +0.256 C 
ATOM     49  N   LIG    1       -4.063  -5.660   0.704  0.00  0.00    -0.188 N 
ATOM     50  H   LIG    1       -5.000  -5.295   0.535  0.00  0.00    +0.176 HD
ATOM     51  O   LIG    1       -2.817  -7.553   1.251  0.00  0.00    -0.272 OA
BRANCH  49  52
ATOM     52  S   LIG    1       -2.849  -4.540   0.949  0.00  0.00    +0.051 S 
ATOM     53  O   LIG    1       -1.622  -5.049   0.379  0.00  0.00    -0.155 OA
ATOM     54  O   LIG    1       -2.933  -4.148   2.340  0.00  0.00    -0.155 OA
BRANCH  52  55
ATOM     55  C   LIG    1       -3.241  -3.070  -0.047  0.00  0.00    +0.104 C 
ATOM     56  C   LIG    1       -4.033  -1.974   0.616  0.00  0.00    +0.033 C 
ATOM     57  C   LIG    1       -2.546  -1.815   0.425  0.00  0.00    +0.033 C 
ATOM     58  C   LIG    1       -3.313  -3.356  -1.500  0.00  0.00    +0.037 C 
ENDBRANCH  52  55
ENDBRANCH  49  52
ENDBRANCH  45  48
BRANCH  46  59
ATOM     59  C   LIG    1       -6.388  -6.597   2.731  0.00  0.00    +0.347 C 
ATOM     60  F   LIG    1       -7.170  -5.593   2.266  0.00  0.00    -0.209 F 
ATOM     61  F   LIG    1       -7.002  -7.103   3.830  0.00  0.00    -0.209 F 
ENDBRANCH  46  59
ENDBRANCH  42  45
ENDBRANCH  34  41
TORSDOF 7
