REMARK  Name = *****
REMARK                            x       y       z     vdW  Elec       q    Type
REMARK                         _______ _______ _______ _____ _____    ______ ____
ROOT
ATOM      1  C   LIG    1       16.616  16.683  -4.789  0.00  0.00    +0.048 C 
ATOM      2  C   LIG    1       17.555  15.535  -5.118  0.00  0.00    -0.001 A 
ATOM      3  C   LIG    1       18.079  15.084  -6.312  0.00  0.00    +0.138 A 
ATOM      4  C   LIG    1       19.044  13.874  -6.494  0.00  0.00    -0.001 A 
ATOM      5  C   LIG    1       19.735  13.484  -7.738  0.00  0.00    +0.048 C 
ATOM      6  C   LIG    1       19.399  13.007  -5.501  0.00  0.00    +0.001 A 
ATOM      7  C   LIG    1       20.079  11.611  -5.498  0.00  0.00    +0.043 C 
ATOM      8  C   LIG    1       19.217  10.653  -4.660  0.00  0.00    +0.052 C 
ATOM      9  C   LIG    1       18.114  11.283  -3.652  0.00  0.00    +0.108 C 
ATOM     10  O   LIG    1       19.102  12.397  -3.433  0.00  0.00    -0.485 OA
ATOM     11  C   LIG    1       16.413  12.057  -4.481  0.00  0.00    +0.056 C 
ATOM     12  C   LIG    1       18.820  13.448  -4.367  0.00  0.00    +0.128 A 
ATOM     13  C   LIG    1       18.006  14.749  -4.126  0.00  0.00    -0.002 A 
ATOM     14  C   LIG    1       17.645  15.361  -2.806  0.00  0.00    +0.048 C 
ENDROOT
BRANCH   9  15
ATOM     15  C   LIG    1       17.679  10.011  -2.166  0.00  0.00    +0.048 C 
BRANCH  15  16
ATOM     16  C   LIG    1       15.996  10.079  -1.261  0.00  0.00    +0.004 C 
BRANCH  16  17
ATOM     17  C   LIG    1       15.732   9.540   0.053  0.00  0.00    +0.003 C 
BRANCH  17  18
ATOM     18  C   LIG    1       14.637  10.227   0.890  0.00  0.00    -0.014 C 
ATOM     19  C   LIG    1       13.282   9.516   0.531  0.00  0.00    +0.007 C 
BRANCH  18  20
ATOM     20  C   LIG    1       14.596  11.741   1.346  0.00  0.00    +0.003 C 
BRANCH  20  21
ATOM     21  C   LIG    1       15.947  12.622   1.499  0.00  0.00    +0.000 C 
BRANCH  21  22
ATOM     22  C   LIG    1       16.380  13.099   0.115  0.00  0.00    +0.003 C 
BRANCH  22  23
ATOM     23  C   LIG    1       17.789  13.649  -0.515  0.00  0.00    -0.014 C 
ATOM     24  C   LIG    1       18.284  15.394  -0.443  0.00  0.00    +0.007 C 
BRANCH  23  25
ATOM     25  C   LIG    1       17.602  13.037  -1.983  0.00  0.00    +0.003 C 
BRANCH  25  26
ATOM     26  C   LIG    1       16.776  11.571  -2.509  0.00  0.00    +0.000 C 
BRANCH  26  27
ATOM     27  C   LIG    1       16.763  10.080  -3.893  0.00  0.00    +0.003 C 
BRANCH  27  28
ATOM     28  C   LIG    1       16.754   8.426  -4.273  0.00  0.00    -0.017 C 
ATOM     29  C   LIG    1       18.206   7.840  -3.760  0.00  0.00    +0.007 C 
ATOM     30  C   LIG    1       16.582   7.959  -5.826  0.00  0.00    +0.007 C 
ENDBRANCH  27  28
ENDBRANCH  26  27
ENDBRANCH  25  26
ENDBRANCH  23  25
ENDBRANCH  22  23
ENDBRANCH  21  22
ENDBRANCH  20  21
ENDBRANCH  18  20
ENDBRANCH  17  18
ENDBRANCH  16  17
ENDBRANCH  15  16
ENDBRANCH   9  15
BRANCH   3  31
ATOM     31  O   LIG    1       17.585  15.755  -7.457  0.00  0.00    -0.425 OA
BRANCH  31  32
ATOM     32  C   LIG    1       17.494  17.148  -7.588  0.00  0.00    +0.313 C 
ATOM     33  O   LIG    1       16.953  17.976  -6.872  0.00  0.00    -0.250 OA
BRANCH  32  34
ATOM     34  C   LIG    1       18.126  17.593  -8.849  0.00  0.00    +0.132 C 
BRANCH  34  35
ATOM     35  C   LIG    1       17.832  16.590  -9.956  0.00  0.00    +0.131 C 
BRANCH  35  36
ATOM     36  C   LIG    1       18.543  15.347  -9.678  0.00  0.00    +0.305 C 
ATOM     37  O   LIG    1       19.641  15.469  -9.166  0.00  0.00    -0.251 OA
BRANCH  36  38
ATOM     38  O   LIG    1       17.952  14.199 -10.044  0.00  0.00    -0.481 OA
ATOM     39  H   LIG    1       17.102  14.310 -10.505  0.00  0.00    +0.295 HD
ENDBRANCH  36  38
ENDBRANCH  35  36
ENDBRANCH  34  35
ENDBRANCH  32  34
ENDBRANCH  31  32
ENDBRANCH   3  31
TORSDOF 18
