REMARK  Name = *****
REMARK                            x       y       z     vdW  Elec       q    Type
REMARK                         _______ _______ _______ _____ _____    ______ ____
ROOT
ATOM      1  C   LIG    1        8.610   0.115   2.319  0.00  0.00    +0.097 C 
ENDROOT
BRANCH   1   5
ATOM      2  C   LIG    1        4.324  -0.194   3.077  0.00  0.00    +0.159 A 
ATOM      3  C   LIG    1        5.240  -0.645   4.028  0.00  0.00    +0.049 A 
ATOM      4  C   LIG    1        6.615  -0.546   3.793  0.00  0.00    +0.008 A 
ATOM      5  C   LIG    1        7.102  -0.000   2.595  0.00  0.00    -0.034 A 
ATOM      6  C   LIG    1        6.169   0.485   1.663  0.00  0.00    +0.008 A 
ATOM      7  C   LIG    1        4.792   0.404   1.909  0.00  0.00    +0.049 A 
BRANCH   2   8
ATOM      8  O   LIG    1        3.002  -0.347   3.406  0.00  0.00    -0.325 OA
BRANCH   8  10
ATOM      9  O   LIG    1        1.691   0.592   1.465  0.00  0.00    -0.108 OA
ATOM     10  S   LIG    1        1.834  -0.587   2.295  0.00  0.00    +0.251 S 
ATOM     11  O   LIG    1        0.684  -1.163   2.954  0.00  0.00    -0.108 OA
BRANCH  10  12
ATOM     12  O   LIG    1        2.392  -1.772   1.351  0.00  0.00    -0.222 OA
ATOM     13  H   LIG    1        1.683  -2.447   1.300  0.00  0.00    +0.248 HD
ENDBRANCH  10  12
ENDBRANCH   8  10
ENDBRANCH   2   8
ENDBRANCH   1   5
BRANCH   1  14
ATOM     14  C   LIG    1        9.286  -1.248   2.062  0.00  0.00    +0.053 A 
ATOM     15  N   LIG    1        9.316  -2.154   3.078  0.00  0.00    -0.259 NA
ATOM     16  C   LIG    1       10.021  -3.292   2.900  0.00  0.00    +0.111 A 
ATOM     17  C   LIG    1       10.691  -3.605   1.733  0.00  0.00    +0.020 A 
ATOM     18  C   LIG    1       10.633  -2.697   0.685  0.00  0.00    +0.003 A 
ATOM     19  C   LIG    1        9.931  -1.501   0.847  0.00  0.00    +0.024 A 
ENDBRANCH   1  14
BRANCH   1  20
ATOM     20  C   LIG    1        9.316   1.006   3.361  0.00  0.00    -0.034 A 
ATOM     21  C   LIG    1       10.316   0.532   4.222  0.00  0.00    +0.008 A 
ATOM     22  C   LIG    1       10.871   1.350   5.208  0.00  0.00    +0.049 A 
ATOM     23  C   LIG    1       10.452   2.671   5.363  0.00  0.00    +0.159 A 
ATOM     24  C   LIG    1        9.508   3.183   4.476  0.00  0.00    +0.049 A 
ATOM     25  C   LIG    1        8.937   2.354   3.496  0.00  0.00    +0.008 A 
BRANCH  23  26
ATOM     26  O   LIG    1       11.028   3.324   6.421  0.00  0.00    -0.325 OA
BRANCH  26  27
ATOM     27  S   LIG    1       10.663   4.840   6.875  0.00  0.00    +0.251 S 
ATOM     28  O   LIG    1        9.228   5.029   6.908  0.00  0.00    -0.108 OA
ATOM     29  O   LIG    1       11.535   5.749   6.172  0.00  0.00    -0.108 OA
BRANCH  27  30
ATOM     30  O   LIG    1       11.166   4.872   8.410  0.00  0.00    -0.222 OA
ATOM     31  H   LIG    1       12.134   5.016   8.412  0.00  0.00    +0.248 HD
ENDBRANCH  27  30
ENDBRANCH  26  27
ENDBRANCH  23  26
ENDBRANCH   1  20
TORSDOF 9
