REMARK  Name = *****
REMARK                            x       y       z     vdW  Elec       q    Type
REMARK                         _______ _______ _______ _____ _____    ______ ____
ROOT
ATOM      1  C   LIG    1        2.932   2.435  -4.386  0.00  0.00    +0.060 A 
ATOM      2  C   LIG    1        4.398   2.523  -4.919  0.00  0.00    +0.026 A 
ATOM      3  C   LIG    1        5.367   2.269  -3.945  0.00  0.00    +0.076 A 
ATOM      4  C   LIG    1        6.739   2.345  -4.210  0.00  0.00    +0.077 A 
ATOM      5  C   LIG    1        7.331   2.697  -5.424  0.00  0.00    +0.164 A 
ATOM      6  C   LIG    1        6.493   3.017  -6.449  0.00  0.00    +0.162 A 
ATOM      7  N   LIG    1        5.106   2.046  -2.659  0.00  0.00    -0.254 NA
ATOM      8  C   LIG    1        3.847   2.122  -2.201  0.00  0.00    +0.132 A 
ATOM      9  C   LIG    1        5.115   2.885  -6.184  0.00  0.00    +0.061 A 
ATOM     10  C   LIG    1        2.726   2.233  -2.992  0.00  0.00    +0.091 A 
ENDROOT
BRANCH   1  11
ATOM     11  N   LIG    1        1.739   2.416  -5.245  0.00  0.00    -0.312 N 
ATOM     12  H   LIG    1        0.908   2.817  -4.801  0.00  0.00    +0.152 HD
BRANCH  11  19
ATOM     13  C   LIG    1        2.816   3.389  -8.633  0.00  0.00    +0.140 A 
ATOM     14  C   LIG    1        2.066   2.552  -9.438  0.00  0.00    +0.084 A 
ATOM     15 CL   LIG    1        2.392   2.370 -11.119  0.00  0.00    -0.080 Cl
ATOM     16  C   LIG    1        0.912   1.992  -8.885  0.00  0.00    +0.045 A 
ATOM     17  C   LIG    1        0.665   2.099  -7.499  0.00  0.00    +0.064 A 
ATOM     18 CL   LIG    1       -0.976   2.134  -6.959  0.00  0.00    -0.082 Cl
ATOM     19  C   LIG    1        1.653   2.550  -6.643  0.00  0.00    +0.053 A 
ATOM     20  C   LIG    1        2.538   3.379  -7.265  0.00  0.00    +0.072 A 
BRANCH  13  22
ATOM     21  C   LIG    1        4.083   5.398  -8.453  0.00  0.00    +0.277 C 
ATOM     22  O   LIG    1        3.812   4.173  -9.151  0.00  0.00    -0.494 OA
ENDBRANCH  13  22
ENDBRANCH  11  19
ENDBRANCH   1  11
BRANCH   6  23
ATOM     23  O   LIG    1        6.835   3.540  -7.678  0.00  0.00    -0.491 OA
ATOM     24  C   LIG    1        8.080   3.085  -8.207  0.00  0.00    +0.277 C 
ENDBRANCH   6  23
BRANCH  10  25
ATOM     25  C   LIG    1        1.494   2.057  -2.240  0.00  0.00    +0.103 C 
ATOM     26  N   LIG    1        0.660   1.866  -1.490  0.00  0.00    -0.191 NA
ENDBRANCH  10  25
BRANCH   5  27
ATOM     27  O   LIG    1        8.668   2.901  -5.570  0.00  0.00    -0.488 OA
BRANCH  27  28
ATOM     28  C   LIG    1        9.585   2.001  -4.921  0.00  0.00    +0.230 C 
BRANCH  28  29
ATOM     29  C   LIG    1       10.391   1.287  -6.024  0.00  0.00    +0.056 C 
BRANCH  29  30
ATOM     30  C   LIG    1       11.481   0.237  -5.672  0.00  0.00    +0.088 C 
BRANCH  30  31
ATOM     31  N   LIG    1       12.105  -0.359  -6.888  0.00  0.00    -0.300 NA
ATOM     32  C   LIG    1       12.717   0.587  -7.839  0.00  0.00    +0.100 C 
ATOM     33  C   LIG    1       13.989   1.263  -7.329  0.00  0.00    +0.099 C 
ATOM     34  N   LIG    1       15.066   0.344  -6.922  0.00  0.00    -0.303 NA
ATOM     35  C   LIG    1       15.982   1.157  -6.106  0.00  0.00    +0.105 C 
ATOM     36  C   LIG    1       14.558  -0.851  -6.198  0.00  0.00    +0.099 C 
ATOM     37  C   LIG    1       13.139  -1.382  -6.601  0.00  0.00    +0.100 C 
ENDBRANCH  30  31
ENDBRANCH  29  30
ENDBRANCH  28  29
ENDBRANCH  27  28
ENDBRANCH   5  27
TORSDOF 10
