REMARK  Name = *****
REMARK                            x       y       z     vdW  Elec       q    Type
REMARK                         _______ _______ _______ _____ _____    ______ ____
ROOT
ATOM      1  N   LIG    1        5.389  -1.969   1.919  0.00  0.00    -0.310 N 
ENDROOT
BRANCH   1   2
ATOM      2  C   LIG    1        6.653  -1.722   2.425  0.00  0.00    +0.121 A 
ATOM      3  N   LIG    1        7.255  -0.544   2.132  0.00  0.00    -0.240 NA
ATOM      4  C   LIG    1        8.521  -0.315   2.550  0.00  0.00    +0.113 A 
ATOM      5  C   LIG    1        9.277  -1.223   3.266  0.00  0.00    +0.020 A 
ATOM      6  C   LIG    1        8.667  -2.411   3.607  0.00  0.00    +0.005 A 
ATOM      7  C   LIG    1        7.347  -2.641   3.220  0.00  0.00    +0.043 A 
ENDBRANCH   1   2
BRANCH   1   8
ATOM      8  C   LIG    1        4.888  -1.050   0.878  0.00  0.00    +0.122 C 
BRANCH   8   9
ATOM      9  C   LIG    1        3.907   0.003   1.449  0.00  0.00    +0.103 C 
BRANCH   9  11
ATOM     10  C   LIG    1        2.399   1.858   1.081  0.00  0.00    +0.104 C 
ATOM     11  N   LIG    1        3.353   0.945   0.443  0.00  0.00    -0.307 NA
ATOM     12  C   LIG    1        4.412   1.727  -0.204  0.00  0.00    +0.104 C 
ENDBRANCH   9  11
ENDBRANCH   8   9
ENDBRANCH   1   8
BRANCH   1  13
ATOM     13  C   LIG    1        4.592  -3.157   2.225  0.00  0.00    +0.141 C 
BRANCH  13  14
ATOM     14  C   LIG    1        4.857  -4.318   1.281  0.00  0.00    -0.030 A 
ATOM     15  C   LIG    1        4.118  -4.454   0.095  0.00  0.00    +0.006 A 
ATOM     16  C   LIG    1        4.377  -5.501  -0.796  0.00  0.00    +0.020 A 
ATOM     17  C   LIG    1        5.383  -6.420  -0.514  0.00  0.00    +0.041 A 
ATOM     18 CL   LIG    1        5.726  -7.691  -1.621  0.00  0.00    -0.084 Cl
ATOM     19  C   LIG    1        6.112  -6.319   0.665  0.00  0.00    +0.020 A 
ATOM     20  C   LIG    1        5.838  -5.283   1.561  0.00  0.00    +0.006 A 
ENDBRANCH  13  14
ENDBRANCH   1  13
TORSDOF 6
