REMARK  Name = *****
REMARK                            x       y       z     vdW  Elec       q    Type
REMARK                         _______ _______ _______ _____ _____    ______ ____
ROOT
ATOM      1  C   LIG    1       12.108  10.345  -4.400  0.00  0.00    -0.000 C 
ATOM      2  C   LIG    1       11.742   9.266  -3.685  0.00  0.00    -0.066 C 
ATOM      3  C   LIG    1       10.698   9.280  -2.572  0.00  0.00    +0.021 C 
ATOM      4  C   LIG    1       10.218  10.644  -2.074  0.00  0.00    +0.009 C 
ATOM      5  C   LIG    1        9.652  10.338  -0.700  0.00  0.00    +0.005 C 
ATOM      6  C   LIG    1       10.717   9.420  -0.059  0.00  0.00    +0.002 C 
ATOM      7  C   LIG    1       11.134   8.494  -1.278  0.00  0.00    -0.022 C 
ATOM      8  C   LIG    1       10.304   7.184  -1.185  0.00  0.00    +0.012 C 
ATOM      9  C   LIG    1       12.624   8.108  -1.351  0.00  0.00    +0.008 C 
ATOM     10  C   LIG    1       13.041   7.386  -2.633  0.00  0.00    +0.005 C 
ATOM     11  C   LIG    1       12.318   7.879  -3.880  0.00  0.00    +0.031 C 
ENDROOT
BRANCH   1  19
ATOM     12  C   LIG    1       15.405   9.587  -7.256  0.00  0.00    +0.015 C 
ATOM     13  C   LIG    1       14.125   9.771  -7.612  0.00  0.00    -0.023 C 
ATOM     14  C   LIG    1       13.659  10.035  -9.037  0.00  0.00    +0.147 C 
ATOM     15  C   LIG    1       12.522   9.098  -9.460  0.00  0.00    +0.067 C 
ATOM     16  C   LIG    1       11.386   9.073  -8.444  0.00  0.00    +0.122 C 
ATOM     17  C   LIG    1       11.899   8.778  -7.033  0.00  0.00    +0.067 C 
ATOM     18  C   LIG    1       13.044   9.689  -6.617  0.00  0.00    -0.040 C 
ATOM     19  C   LIG    1       13.091  10.379  -5.465  0.00  0.00    +0.004 C 
BRANCH  14  20
ATOM     20  O   LIG    1       14.727   9.891  -9.970  0.00  0.00    -0.387 OA
ATOM     21  H   LIG    1       15.005   8.960  -9.944  0.00  0.00    +0.210 HD
ENDBRANCH  14  20
BRANCH  16  22
ATOM     22  O   LIG    1       10.661  10.302  -8.480  0.00  0.00    -0.391 OA
ATOM     23  H   LIG    1       11.200  10.990  -8.051  0.00  0.00    +0.210 HD
ENDBRANCH  16  22
ENDBRANCH   1  19
BRANCH   6  24
ATOM     24  C   LIG    1       11.827  10.245   0.685  0.00  0.00    +0.012 C 
ATOM     25  C   LIG    1       12.876   9.368   1.395  0.00  0.00    +0.012 C 
BRANCH  24  26
ATOM     26  C   LIG    1       11.236  11.149   1.764  0.00  0.00    -0.027 C 
ATOM     27  C   LIG    1       11.676  12.391   2.035  0.00  0.00    -0.027 C 
BRANCH  27  28
ATOM     28  C   LIG    1       11.217  13.226   3.219  0.00  0.00    +0.011 C 
ATOM     29  C   LIG    1       10.457  14.472   2.746  0.00  0.00    +0.012 C 
BRANCH  28  30
ATOM     30  C   LIG    1       12.390  13.601   4.178  0.00  0.00    -0.011 C 
ATOM     31  C   LIG    1       13.437  14.526   3.544  0.00  0.00    +0.008 C 
ATOM     32  C   LIG    1       13.086  12.356   4.744  0.00  0.00    +0.008 C 
ENDBRANCH  28  30
ENDBRANCH  27  28
ENDBRANCH  24  26
ENDBRANCH   6  24
TORSDOF 7
