REMARK  Name = *****
REMARK                            x       y       z     vdW  Elec       q    Type
REMARK                         _______ _______ _______ _____ _____    ______ ____
ROOT
ATOM      1  C   LIG    1        2.405  -2.407   3.151  0.00  0.00    +0.129 C 
ENDROOT
BRANCH   1   2
ATOM      2  O   LIG    1        2.692  -1.138   2.578  0.00  0.00    -0.391 OA
ATOM      3  H   LIG    1        3.236  -0.649   3.215  0.00  0.00    +0.210 HD
ENDBRANCH   1   2
BRANCH   1   4
ATOM      4  C   LIG    1        2.209  -3.531   2.074  0.00  0.00    +0.116 C 
BRANCH   4   6
ATOM      5  C   LIG    1        3.987  -2.740   0.483  0.00  0.00    +0.157 C 
ATOM      6  N   LIG    1        3.393  -3.863   1.264  0.00  0.00    -0.287 NA
ATOM      7  C   LIG    1        3.174  -5.047   0.408  0.00  0.00    +0.100 C 
ATOM      8  C   LIG    1        4.481  -5.506  -0.268  0.00  0.00    +0.100 C 
ATOM      9  N   LIG    1        5.036  -4.485  -1.171  0.00  0.00    -0.295 NA
ATOM     10  C   LIG    1        5.163  -3.194  -0.447  0.00  0.00    +0.113 C 
BRANCH   5  13
ATOM     11  N   LIG    1        2.910  -0.504   0.245  0.00  0.00    -0.309 N 
ATOM     12  H   LIG    1        3.261  -0.460   1.186  0.00  0.00    +0.149 HD
ATOM     13  C   LIG    1        2.949  -1.809  -0.280  0.00  0.00    +0.232 C 
ATOM     14  O   LIG    1        2.261  -2.173  -1.194  0.00  0.00    -0.274 OA
BRANCH  11  16
ATOM     15  C   LIG    1        2.245   1.773   0.908  0.00  0.00    +0.031 C 
ATOM     16  C   LIG    1        2.049   0.634  -0.135  0.00  0.00    +0.026 C 
ATOM     17  C   LIG    1        2.509   1.145  -1.493  0.00  0.00    +0.031 C 
ATOM     18  C   LIG    1        0.540   0.327  -0.168  0.00  0.00    +0.031 C 
ENDBRANCH  11  16
ENDBRANCH   5  13
BRANCH   9  19
ATOM     19  C   LIG    1        6.318  -4.974  -1.716  0.00  0.00    +0.121 C 
BRANCH  19  20
ATOM     20  C   LIG    1        6.944  -4.075  -2.748  0.00  0.00    -0.015 A 
ATOM     21  C   LIG    1        6.601  -4.159  -4.093  0.00  0.00    +0.115 A 
ATOM     22  N   LIG    1        7.122  -3.366  -5.060  0.00  0.00    -0.263 NA
ATOM     23  C   LIG    1        8.030  -2.448  -4.668  0.00  0.00    +0.111 A 
ATOM     24  C   LIG    1        8.461  -2.300  -3.361  0.00  0.00    +0.020 A 
ATOM     25  C   LIG    1        7.898  -3.117  -2.388  0.00  0.00    +0.008 A 
ENDBRANCH  19  20
ENDBRANCH   9  19
ENDBRANCH   4   6
ENDBRANCH   1   4
BRANCH   1  26
ATOM     26  C   LIG    1        1.119  -2.234   3.957  0.00  0.00    +0.045 C 
BRANCH  26  27
ATOM     27  C   LIG    1        1.050  -1.005   4.900  0.00  0.00    +0.082 C 
BRANCH  27  28
ATOM     28  C   LIG    1        2.159  -1.152   5.982  0.00  0.00    +0.217 C 
ATOM     29  N   LIG    1        3.374  -0.543   5.710  0.00  0.00    -0.306 N 
ATOM     30  H   LIG    1        3.307   0.309   5.174  0.00  0.00    +0.149 HD
ATOM     31  O   LIG    1        2.007  -1.872   6.972  0.00  0.00    -0.276 OA
BRANCH  29  32
ATOM     32  C   LIG    1        4.500  -0.541   6.683  0.00  0.00    +0.132 C 
ATOM     33  C   LIG    1        4.490   0.743   7.595  0.00  0.00    +0.143 C 
ATOM     34  C   LIG    1        5.913   1.337   7.641  0.00  0.00    +0.069 C 
ATOM     35  C   LIG    1        6.548   0.726   6.436  0.00  0.00    -0.040 A 
ATOM     36  C   LIG    1        7.757   1.106   5.869  0.00  0.00    +0.004 A 
ATOM     37  C   LIG    1        8.301   0.303   4.871  0.00  0.00    +0.000 A 
ATOM     38  C   LIG    1        7.667  -0.894   4.511  0.00  0.00    +0.000 A 
ATOM     39  C   LIG    1        6.431  -1.251   5.069  0.00  0.00    +0.006 A 
ATOM     40  C   LIG    1        5.839  -0.396   5.989  0.00  0.00    -0.021 A 
BRANCH  33  41
ATOM     41  O   LIG    1        3.617   1.748   7.044  0.00  0.00    -0.389 OA
ATOM     42  H   LIG    1        4.054   2.088   6.244  0.00  0.00    +0.210 HD
ENDBRANCH  33  41
ENDBRANCH  29  32
ENDBRANCH  27  28
BRANCH  27  43
ATOM     43  C   LIG    1       -0.363  -0.959   5.562  0.00  0.00    +0.048 C 
BRANCH  43  44
ATOM     44  C   LIG    1       -1.632  -0.744   4.732  0.00  0.00    -0.047 A 
ATOM     45  C   LIG    1       -1.674  -0.557   3.344  0.00  0.00    +0.003 A 
ATOM     46  C   LIG    1       -2.887  -0.378   2.662  0.00  0.00    +0.000 A 
ATOM     47  C   LIG    1       -4.087  -0.335   3.361  0.00  0.00    +0.000 A 
ATOM     48  C   LIG    1       -4.076  -0.509   4.740  0.00  0.00    +0.000 A 
ATOM     49  C   LIG    1       -2.866  -0.727   5.413  0.00  0.00    +0.003 A 
ENDBRANCH  43  44
ENDBRANCH  27  43
ENDBRANCH  26  27
ENDBRANCH   1  26
TORSDOF 14
