REMARK  Name = *****
REMARK                            x       y       z     vdW  Elec       q    Type
REMARK                         _______ _______ _______ _____ _____    ______ ____
ROOT
ATOM      1  C   LIG    1        7.005  -2.954  -3.836  0.00  0.00    +0.039 A 
ATOM      2  C   LIG    1        7.361  -4.327  -3.851  0.00  0.00    +0.057 A 
ATOM      3  C   LIG    1        8.011  -4.925  -4.952  0.00  0.00    +0.028 A 
ATOM      4  S   LIG    1        8.301  -6.696  -4.996  0.00  0.00    -0.088 S 
ATOM      5  C   LIG    1        6.950  -7.262  -3.988  0.00  0.00    +0.024 A 
ATOM      6  C   LIG    1        6.504  -6.516  -2.895  0.00  0.00    +0.036 A 
ATOM      7  C   LIG    1        5.502  -7.008  -2.049  0.00  0.00    +0.013 A 
ATOM      8  C   LIG    1        4.902  -8.234  -2.333  0.00  0.00    +0.001 A 
ATOM      9  C   LIG    1        5.312  -8.966  -3.447  0.00  0.00    +0.001 A 
ATOM     10  C   LIG    1        6.343  -8.491  -4.263  0.00  0.00    +0.016 A 
ATOM     11  C   LIG    1        8.402  -4.123  -6.042  0.00  0.00    -0.036 A 
ATOM     12  C   LIG    1        9.177  -4.662  -7.216  0.00  0.00    +0.045 C 
ATOM     13  C   LIG    1        8.017  -2.775  -6.053  0.00  0.00    +0.006 A 
ATOM     14  C   LIG    1        7.034  -5.162  -2.662  0.00  0.00    +0.197 A 
ATOM     15  O   LIG    1        7.117  -4.713  -1.531  0.00  0.00    -0.286 OA
ATOM     16  C   LIG    1        7.303  -2.212  -4.987  0.00  0.00    +0.024 A 
ENDROOT
BRANCH   1  17
ATOM     17  N   LIG    1        6.228  -2.421  -2.780  0.00  0.00    -0.342 N 
ATOM     18  H   LIG    1        6.335  -3.018  -1.948  0.00  0.00    +0.146 HD
BRANCH  17  19
ATOM     19  C   LIG    1        6.358  -0.993  -2.447  0.00  0.00    +0.117 C 
BRANCH  19  20
ATOM     20  C   LIG    1        6.196  -0.740  -0.916  0.00  0.00    +0.103 C 
BRANCH  20  21
ATOM     21  N   LIG    1        6.239   0.678  -0.463  0.00  0.00    -0.301 NA
BRANCH  21  23
ATOM     22  C   LIG    1        7.221   0.292   1.889  0.00  0.00    +0.020 C 
ATOM     23  C   LIG    1        6.069   0.777   1.003  0.00  0.00    +0.081 C 
ENDBRANCH  21  23
BRANCH  21  24
ATOM     24  C   LIG    1        7.407   1.409  -0.973  0.00  0.00    +0.081 C 
ATOM     25  C   LIG    1        7.379   2.918  -0.735  0.00  0.00    +0.020 C 
ENDBRANCH  21  24
ENDBRANCH  20  21
ENDBRANCH  19  20
ENDBRANCH  17  19
ENDBRANCH   1  17
TORSDOF 6
