REMARK  Name = *****
REMARK                            x       y       z     vdW  Elec       q    Type
REMARK                         _______ _______ _______ _____ _____    ______ ____
ROOT
ATOM      1  C   LIG    1        2.939   0.734  -1.345  0.00  0.00    -0.024 C 
ATOM      2  C   LIG    1        3.541  -0.037  -2.359  0.00  0.00    +0.050 C 
ATOM      3  C   LIG    1        3.778   0.444  -3.649  0.00  0.00    +0.004 C 
ATOM      4  C   LIG    1        4.338  -0.630  -4.393  0.00  0.00    -0.014 C 
ATOM      5  C   LIG    1        4.691  -0.732  -5.828  0.00  0.00    +0.065 C 
ATOM      6  C   LIG    1        5.616  -1.944  -6.033  0.00  0.00    +0.166 C 
ATOM      7  O   LIG    1        5.153  -3.135  -5.349  0.00  0.00    -0.366 OA
ATOM      8  C   LIG    1        5.079  -3.060  -3.886  0.00  0.00    +0.119 C 
ATOM      9  C   LIG    1        4.499  -1.707  -3.546  0.00  0.00    +0.053 C 
ATOM     10  C   LIG    1        3.426   1.773  -3.951  0.00  0.00    +0.010 C 
ATOM     11  C   LIG    1        2.846   2.570  -2.960  0.00  0.00    +0.001 C 
ATOM     12  N   LIG    1        3.988  -1.342  -2.328  0.00  0.00    -0.355 NA
ATOM     13  H   LIG    1        3.936  -1.933  -1.511  0.00  0.00    +0.166 HD
ATOM     14  C   LIG    1        2.600   2.056  -1.688  0.00  0.00    +0.006 C 
ENDROOT
BRANCH   1  16
ATOM     15  C   LIG    1        1.256  -0.460   0.083  0.00  0.00    +0.009 C 
ATOM     16  C   LIG    1        2.625   0.205   0.032  0.00  0.00    +0.034 C 
ENDBRANCH   1  16
BRANCH   8  17
ATOM     17  C   LIG    1        6.486  -3.268  -3.261  0.00  0.00    +0.038 C 
ATOM     18  C   LIG    1        6.553  -3.269  -1.732  0.00  0.00    +0.007 C 
ENDBRANCH   8  17
BRANCH   8  19
ATOM     19  C   LIG    1        4.086  -4.161  -3.478  0.00  0.00    +0.161 C 
BRANCH  19  20
ATOM     20  C   LIG    1        4.561  -5.560  -3.758  0.00  0.00    +0.308 C 
ATOM     21  O   LIG    1        4.717  -6.403  -2.875  0.00  0.00    -0.251 OA
BRANCH  20  22
ATOM     22  O   LIG    1        4.743  -5.840  -5.063  0.00  0.00    -0.480 OA
ATOM     23  H   LIG    1        4.646  -5.038  -5.628  0.00  0.00    +0.295 HD
ENDBRANCH  20  22
ENDBRANCH  19  20
ENDBRANCH   8  19
TORSDOF 5
