REMARK  Name = *****
REMARK                            x       y       z     vdW  Elec       q    Type
REMARK                         _______ _______ _______ _____ _____    ______ ____
ROOT
ATOM      1  N   LIG    1        3.411  -2.392  -0.701  0.00  0.00    -0.312 N 
ATOM      2  H   LIG    1        3.621  -2.234   0.289  0.00  0.00    +0.152 HD
ENDROOT
BRANCH   1   7
ATOM      3  C   LIG    1       -0.632   0.563  -0.165  0.00  0.00    +0.045 C 
ATOM      4  C   LIG    1        0.070  -0.645  -0.730  0.00  0.00    -0.030 A 
ATOM      5  C   LIG    1        1.452  -0.915  -0.585  0.00  0.00    +0.066 A 
ATOM      6 CL   LIG    1        2.500   0.332   0.033  0.00  0.00    -0.081 Cl
ATOM      7  C   LIG    1        2.026  -2.165  -0.970  0.00  0.00    +0.069 A 
ATOM      8  C   LIG    1        1.157  -3.110  -1.555  0.00  0.00    +0.064 A 
ATOM      9 CL   LIG    1        1.594  -4.750  -1.906  0.00  0.00    -0.082 Cl
ATOM     10  C   LIG    1       -0.190  -2.804  -1.792  0.00  0.00    +0.022 A 
ATOM     11  C   LIG    1       -0.733  -1.599  -1.363  0.00  0.00    +0.006 A 
ENDBRANCH   1   7
BRANCH   1  12
ATOM     12  C   LIG    1        4.397  -3.180  -1.341  0.00  0.00    +0.045 A 
ATOM     13  C   LIG    1        5.505  -3.726  -0.651  0.00  0.00    +0.080 A 
ATOM     14  C   LIG    1        6.457  -4.513  -1.333  0.00  0.00    +0.017 A 
ATOM     15  C   LIG    1        6.322  -4.773  -2.694  0.00  0.00    +0.001 A 
ATOM     16  C   LIG    1        5.258  -4.216  -3.390  0.00  0.00    +0.002 A 
ATOM     17  C   LIG    1        4.329  -3.408  -2.727  0.00  0.00    +0.024 A 
BRANCH  13  18
ATOM     18  C   LIG    1        5.785  -3.523   0.794  0.00  0.00    +0.339 C 
ATOM     19  O   LIG    1        6.869  -3.621   1.327  0.00  0.00    -0.245 OA
BRANCH  18  20
ATOM     20  O   LIG    1        4.678  -3.278   1.526  0.00  0.00    -0.477 OA
ATOM     21  H   LIG    1        5.025  -3.293   2.446  0.00  0.00    +0.295 HD
ENDBRANCH  18  20
ENDBRANCH  13  18
ENDBRANCH   1  12
TORSDOF 4
