REMARK  Name = *****
REMARK                            x       y       z     vdW  Elec       q    Type
REMARK                         _______ _______ _______ _____ _____    ______ ____
ROOT
ATOM      1  C   LIG    1        6.394  -2.917   0.946  0.00  0.00    +0.069 C 
ENDROOT
BRANCH   1   2
ATOM      2  C   LIG    1        6.515  -4.369   0.432  0.00  0.00    -0.038 A 
ATOM      3  C   LIG    1        6.377  -4.695  -0.927  0.00  0.00    +0.005 A 
ATOM      4  C   LIG    1        6.443  -6.017  -1.378  0.00  0.00    +0.015 A 
ATOM      5  C   LIG    1        6.663  -7.044  -0.469  0.00  0.00    +0.018 A 
ATOM      6 BR   LIG    1        6.760  -8.828  -1.088  0.00  0.00    -0.050 Br
ATOM      7  C   LIG    1        6.813  -6.758   0.884  0.00  0.00    +0.015 A 
ATOM      8  C   LIG    1        6.744  -5.430   1.334  0.00  0.00    +0.005 A 
ENDBRANCH   1   2
BRANCH   1   9
ATOM      9  C   LIG    1        7.748  -2.271   1.242  0.00  0.00    +0.049 A 
ATOM     10  N   LIG    1        8.024  -1.987   2.551  0.00  0.00    -0.259 NA
ATOM     11  C   LIG    1        9.222  -1.435   2.841  0.00  0.00    +0.111 A 
ATOM     12  C   LIG    1       10.192  -1.144   1.902  0.00  0.00    +0.020 A 
ATOM     13  C   LIG    1        9.896  -1.412   0.568  0.00  0.00    +0.003 A 
ATOM     14  C   LIG    1        8.662  -1.966   0.236  0.00  0.00    +0.024 A 
ENDBRANCH   1   9
BRANCH   1  15
ATOM     15  C   LIG    1        5.463  -2.056   0.033  0.00  0.00    +0.029 C 
BRANCH  15  16
ATOM     16  C   LIG    1        5.211  -0.628   0.539  0.00  0.00    +0.085 C 
BRANCH  16  18
ATOM     17  C   LIG    1        2.979  -0.372  -0.474  0.00  0.00    +0.104 C 
ATOM     18  N   LIG    1        4.325   0.188  -0.326  0.00  0.00    -0.308 NA
ATOM     19  C   LIG    1        4.221   1.540   0.240  0.00  0.00    +0.104 C 
ENDBRANCH  16  18
ENDBRANCH  15  16
ENDBRANCH   1  15
TORSDOF 5
