REMARK  Name = *****
REMARK                            x       y       z     vdW  Elec       q    Type
REMARK                         _______ _______ _______ _____ _____    ______ ____
ROOT
ATOM      1  C   LIG    1        2.399   0.085  -0.047  0.00  0.00    +0.161 A 
ATOM      2  C   LIG    1        3.113   1.290  -0.051  0.00  0.00    +0.115 A 
ATOM      3  C   LIG    1        4.526   1.231  -0.048  0.00  0.00    +0.022 A 
ATOM      4  C   LIG    1        5.221   2.462  -0.066  0.00  0.00    +0.013 A 
ATOM      5  C   LIG    1        4.534   3.668  -0.093  0.00  0.00    +0.020 A 
ATOM      6  C   LIG    1        3.159   3.621  -0.091  0.00  0.00    +0.111 A 
ATOM      7  C   LIG    1        5.165  -0.036  -0.034  0.00  0.00    +0.052 A 
ATOM      8 CL   LIG    1        6.891  -0.193  -0.017  0.00  0.00    -0.083 Cl
ATOM      9  C   LIG    1        4.430  -1.220  -0.038  0.00  0.00    +0.044 A 
ATOM     10  N   LIG    1        2.454   2.472  -0.067  0.00  0.00    -0.251 NA
ATOM     11  C   LIG    1        3.046  -1.155  -0.047  0.00  0.00    +0.086 A 
ATOM     12 CL   LIG    1        2.136  -2.621  -0.067  0.00  0.00    -0.080 Cl
ENDROOT
BRANCH   1  13
ATOM     13  O   LIG    1        1.019   0.130  -0.048  0.00  0.00    -0.503 OA
ATOM     14  H   LIG    1        0.685  -0.784  -0.054  0.00  0.00    +0.292 HD
ENDBRANCH   1  13
TORSDOF 1
