REMARK  Name = *****
REMARK                            x       y       z     vdW  Elec       q    Type
REMARK                         _______ _______ _______ _____ _____    ______ ____
ROOT
ATOM      1  C   LIG    1        9.146  -1.988   0.747  0.00  0.00    -0.017 C 
ATOM      2  C   LIG    1       10.096  -1.034   0.555  0.00  0.00    -0.013 C 
ATOM      3  C   LIG    1        9.847   0.158  -0.294  0.00  0.00    -0.003 A 
ATOM      4  C   LIG    1       10.051   1.434   0.260  0.00  0.00    +0.021 A 
ATOM      5  C   LIG    1        9.713   2.574  -0.481  0.00  0.00    +0.016 A 
ATOM      6  C   LIG    1        9.202   2.456  -1.776  0.00  0.00    +0.013 A 
ATOM      7  C   LIG    1        9.065   1.196  -2.370  0.00  0.00    +0.056 A 
ATOM      8  S   LIG    1       10.736   1.665   1.901  0.00  0.00    -0.088 S 
ATOM      9  C   LIG    1       11.619   0.121   2.148  0.00  0.00    +0.021 A 
ATOM     10  C   LIG    1       12.678   0.105   3.065  0.00  0.00    +0.015 A 
ATOM     11  C   LIG    1       13.389  -1.073   3.306  0.00  0.00    +0.001 A 
ATOM     12  C   LIG    1       13.054  -2.240   2.624  0.00  0.00    +0.001 A 
ATOM     13  C   LIG    1       12.000  -2.236   1.710  0.00  0.00    +0.009 A 
ATOM     14  C   LIG    1        9.426   0.058  -1.630  0.00  0.00    +0.022 A 
ATOM     15  C   LIG    1       11.259  -1.065   1.479  0.00  0.00    -0.004 A 
ENDROOT
BRANCH   7  16
ATOM     16  C   LIG    1        8.509   1.038  -3.763  0.00  0.00    +0.417 C 
ATOM     17  F   LIG    1        7.375   0.280  -3.777  0.00  0.00    -0.166 F 
ATOM     18  F   LIG    1        9.379   0.427  -4.612  0.00  0.00    -0.166 F 
ATOM     19  F   LIG    1        8.171   2.217  -4.355  0.00  0.00    -0.166 F 
ENDBRANCH   7  16
BRANCH   1  20
ATOM     20  C   LIG    1        7.775  -2.086   0.133  0.00  0.00    +0.043 C 
BRANCH  20  21
ATOM     21  C   LIG    1        6.701  -1.348   0.961  0.00  0.00    +0.088 C 
BRANCH  21  25
ATOM     22  N   LIG    1        4.063   1.270  -0.202  0.00  0.00    -0.298 NA
ATOM     23  C   LIG    1        4.154   0.713   1.169  0.00  0.00    +0.100 C 
ATOM     24  C   LIG    1        4.330  -0.830   1.260  0.00  0.00    +0.100 C 
ATOM     25  N   LIG    1        5.352  -1.433   0.370  0.00  0.00    -0.300 NA
ATOM     26  C   LIG    1        5.250  -0.825  -0.972  0.00  0.00    +0.100 C 
ATOM     27  C   LIG    1        5.186   0.717  -0.982  0.00  0.00    +0.100 C 
BRANCH  22  28
ATOM     28  C   LIG    1        2.746   0.986  -0.809  0.00  0.00    +0.112 C 
BRANCH  28  29
ATOM     29  C   LIG    1        2.533   1.644  -2.185  0.00  0.00    +0.171 C 
BRANCH  29  30
ATOM     30  O   LIG    1        1.233   1.331  -2.681  0.00  0.00    -0.394 OA
ATOM     31  H   LIG    1        1.164   1.746  -3.558  0.00  0.00    +0.209 HD
ENDBRANCH  29  30
ENDBRANCH  28  29
ENDBRANCH  22  28
ENDBRANCH  21  25
ENDBRANCH  20  21
ENDBRANCH   1  20
TORSDOF 7
