REMARK  Name = *****
REMARK                            x       y       z     vdW  Elec       q    Type
REMARK                         _______ _______ _______ _____ _____    ______ ____
ROOT
ATOM      1  C   LIG    1        2.822   0.271   1.128  0.00  0.00    +0.039 A 
ATOM      2  C   LIG    1        3.097  -0.957   0.477  0.00  0.00    +0.043 A 
ATOM      3  C   LIG    1        4.081  -0.971  -0.521  0.00  0.00    +0.013 A 
ATOM      4  C   LIG    1        4.663   0.212  -0.980  0.00  0.00    +0.001 A 
ATOM      5  C   LIG    1        4.269   1.432  -0.446  0.00  0.00    +0.006 A 
ATOM      6  C   LIG    1        3.314   1.480   0.579  0.00  0.00    -0.015 A 
ENDROOT
BRANCH   1   7
ATOM      7  N   LIG    1        1.852   0.365   2.167  0.00  0.00    -0.357 N 
ATOM      8  H   LIG    1        1.738  -0.567   2.606  0.00  0.00    +0.142 HD
ATOM      9  H   LIG    1        2.157   1.008   2.903  0.00  0.00    +0.142 HD
ENDBRANCH   1   7
BRANCH   2  10
ATOM     10  C   LIG    1        2.351  -2.205   0.882  0.00  0.00    +0.195 C 
ATOM     11  O   LIG    1        2.020  -2.313   2.066  0.00  0.00    -0.287 OA
BRANCH  10  12
ATOM     12  C   LIG    1        1.947  -3.299  -0.073  0.00  0.00    +0.022 A 
ATOM     13  C   LIG    1        2.211  -3.248  -1.446  0.00  0.00    +0.013 A 
ATOM     14  C   LIG    1        1.906  -4.318  -2.291  0.00  0.00    +0.016 A 
ATOM     15  C   LIG    1        1.261  -5.437  -1.784  0.00  0.00    +0.018 A 
ATOM     16 BR   LIG    1        0.831  -6.861  -2.948  0.00  0.00    -0.050 Br
ATOM     17  C   LIG    1        0.909  -5.487  -0.438  0.00  0.00    +0.016 A 
ATOM     18  C   LIG    1        1.248  -4.421   0.413  0.00  0.00    +0.013 A 
ENDBRANCH  10  12
ENDBRANCH   2  10
BRANCH   6  19
ATOM     19  C   LIG    1        2.784   2.837   1.013  0.00  0.00    +0.157 C 
BRANCH  19  20
ATOM     20  C   LIG    1        1.335   3.122   0.666  0.00  0.00    +0.309 C 
ATOM     21  O   LIG    1        0.944   4.265   0.396  0.00  0.00    -0.251 OA
BRANCH  20  22
ATOM     22  O   LIG    1        0.457   2.106   0.741  0.00  0.00    -0.480 OA
ATOM     23  H   LIG    1        0.844   1.281   1.127  0.00  0.00    +0.295 HD
ENDBRANCH  20  22
ENDBRANCH  19  20
ENDBRANCH   6  19
TORSDOF 6
