REMARK  Name = *****
REMARK                            x       y       z     vdW  Elec       q    Type
REMARK                         _______ _______ _______ _____ _____    ______ ____
ROOT
ATOM      1  C   LIG    1       -5.045   0.328  -1.528  0.00  0.00    +0.314 C 
ATOM      2  C   LIG    1       -5.442  -0.979  -0.871  0.00  0.00    +0.201 C 
ATOM      3  C   LIG    1       -4.930  -2.011  -1.853  0.00  0.00    +0.201 C 
ATOM      4  C   LIG    1       -5.903  -3.156  -1.652  0.00  0.00    +0.314 C 
ATOM      5  C   LIG    1       -7.208  -2.383  -1.472  0.00  0.00    +0.215 C 
ATOM      6  O   LIG    1       -5.057  -1.417  -3.164  0.00  0.00    -0.366 OA
ATOM      7  O   LIG    1       -6.874  -1.138  -0.818  0.00  0.00    -0.366 OA
ATOM      8  C   LIG    1       -5.299  -0.005  -2.994  0.00  0.00    +0.215 C 
ENDROOT
BRANCH   1   9
ATOM      9  O   LIG    1       -5.821   1.454  -1.145  0.00  0.00    -0.208 OA
BRANCH   9  11
ATOM     10  O   LIG    1       -6.285   2.825   0.518  0.00  0.00    +0.093 OA
ATOM     11  N   LIG    1       -5.606   1.851   0.194  0.00  0.00    +0.285 N 
ATOM     12  O   LIG    1       -4.764   1.230   0.841  0.00  0.00    -0.534 OA
ENDBRANCH   9  11
ENDBRANCH   1   9
BRANCH   4  13
ATOM     13  O   LIG    1       -5.668  -3.857  -0.425  0.00  0.00    -0.208 OA
BRANCH  13  14
ATOM     14  N   LIG    1       -4.684  -4.861  -0.534  0.00  0.00    +0.285 N 
ATOM     15  O   LIG    1       -3.948  -4.817  -1.522  0.00  0.00    -0.534 OA
ATOM     16  O   LIG    1       -4.688  -5.642   0.413  0.00  0.00    +0.093 OA
ENDBRANCH  13  14
ENDBRANCH   4  13
TORSDOF 4
