REMARK  Name = *****
REMARK                            x       y       z     vdW  Elec       q    Type
REMARK                         _______ _______ _______ _____ _____    ______ ____
ROOT
ATOM      1  C   LIG    1        4.488  -2.059  -2.020  0.00  0.00    +0.169 C 
ATOM      2  C   LIG    1        3.035  -2.357  -2.547  0.00  0.00    +0.175 C 
ATOM      3  C   LIG    1        2.009  -1.190  -2.393  0.00  0.00    +0.169 C 
ATOM      4  C   LIG    1        2.634   0.086  -3.013  0.00  0.00    +0.084 C 
ATOM      5  C   LIG    1        3.925   0.437  -2.266  0.00  0.00    +0.042 C 
ATOM      6  C   LIG    1        4.959  -0.660  -2.562  0.00  0.00    +0.084 C 
ENDROOT
BRANCH   4   7
ATOM      7  N   LIG    1        1.766   1.253  -3.153  0.00  0.00    -0.325 NA
ATOM      8  H   LIG    1        0.815   1.001  -3.397  0.00  0.00    +0.118 HD
ATOM      9  H   LIG    1        1.790   1.862  -2.341  0.00  0.00    +0.118 HD
ENDBRANCH   4   7
BRANCH   6  10
ATOM     10  N   LIG    1        6.288  -0.192  -2.150  0.00  0.00    -0.325 NA
ATOM     11  H   LIG    1        6.259   0.181  -1.203  0.00  0.00    +0.118 HD
ATOM     12  H   LIG    1        6.961  -0.954  -2.153  0.00  0.00    +0.118 HD
ENDBRANCH   6  10
BRANCH   2  13
ATOM     13  O   LIG    1        3.082  -2.805  -3.910  0.00  0.00    -0.387 OA
ATOM     14  H   LIG    1        3.640  -2.192  -4.446  0.00  0.00    +0.210 HD
ENDBRANCH   2  13
BRANCH   1  15
ATOM     15  O   LIG    1        4.617  -2.112  -0.582  0.00  0.00    -0.342 OA
BRANCH  15  18
ATOM     16  C   LIG    1        3.367  -5.506  -0.094  0.00  0.00    +0.138 C 
ATOM     17  O   LIG    1        3.361  -4.102  -0.350  0.00  0.00    -0.345 OA
ATOM     18  C   LIG    1        4.594  -3.466  -0.059  0.00  0.00    +0.268 C 
ATOM     19  C   LIG    1        4.795  -3.472   1.496  0.00  0.00    +0.107 C 
ATOM     20  C   LIG    1        3.825  -4.458   2.178  0.00  0.00    +0.026 C 
ATOM     21  C   LIG    1        3.692  -5.760   1.388  0.00  0.00    +0.035 C 
BRANCH  19  22
ATOM     22  N   LIG    1        4.657  -2.148   2.135  0.00  0.00    -0.323 NA
ATOM     23  H   LIG    1        5.184  -1.487   1.558  0.00  0.00    +0.119 HD
ATOM     24  H   LIG    1        3.689  -1.843   1.988  0.00  0.00    +0.119 HD
ENDBRANCH  19  22
BRANCH  16  25
ATOM     25  C   LIG    1        2.002  -6.126  -0.546  0.00  0.00    +0.079 C 
ATOM     26  C   LIG    1        0.815  -5.524   0.220  0.00  0.00    +0.026 C 
BRANCH  25  28
ATOM     27  C   LIG    1        2.656  -6.626  -2.858  0.00  0.00    +0.101 C 
ATOM     28  N   LIG    1        1.700  -5.961  -1.987  0.00  0.00    -0.314 NA
ATOM     29  H   LIG    1        0.766  -6.322  -2.182  0.00  0.00    +0.122 HD
ENDBRANCH  25  28
ENDBRANCH  16  25
ENDBRANCH  15  18
ENDBRANCH   1  15
BRANCH   3  30
ATOM     30  O   LIG    1        1.628  -1.068  -1.010  0.00  0.00    -0.341 OA
BRANCH  30  31
ATOM     31  C   LIG    1        0.611  -0.119  -0.663  0.00  0.00    +0.281 C 
ATOM     32  C   LIG    1       -0.742  -0.401  -1.366  0.00  0.00    +0.190 C 
ATOM     33  C   LIG    1       -1.831   0.608  -0.913  0.00  0.00    +0.121 C 
ATOM     34  C   LIG    1       -1.892   0.660   0.649  0.00  0.00    +0.104 C 
ATOM     35  C   LIG    1       -2.811   1.779   1.153  0.00  0.00    +0.045 C 
ATOM     36  C   LIG    1       -0.474   0.847   1.218  0.00  0.00    +0.199 C 
ATOM     37  O   LIG    1        0.419  -0.177   0.756  0.00  0.00    -0.346 OA
BRANCH  33  38
ATOM     38  N   LIG    1       -3.186   0.304  -1.436  0.00  0.00    -0.311 NA
ATOM     39  H   LIG    1       -3.478  -0.583  -1.009  0.00  0.00    +0.122 HD
ATOM     40  C   LIG    1       -3.279   0.195  -2.880  0.00  0.00    +0.101 C 
ENDBRANCH  33  38
BRANCH  32  41
ATOM     41  O   LIG    1       -1.170  -1.748  -1.061  0.00  0.00    -0.385 OA
ATOM     42  H   LIG    1       -0.356  -2.283  -1.030  0.00  0.00    +0.210 HD
ENDBRANCH  32  41
BRANCH  34  43
ATOM     43  O   LIG    1       -2.422  -0.578   1.159  0.00  0.00    -0.385 OA
ATOM     44  H   LIG    1       -1.929  -1.296   0.707  0.00  0.00    +0.210 HD
ENDBRANCH  34  43
ENDBRANCH  30  31
ENDBRANCH   3  30
TORSDOF 13
