REMARK  Name = *****
REMARK                            x       y       z     vdW  Elec       q    Type
REMARK                         _______ _______ _______ _____ _____    ______ ____
ROOT
ATOM      1  C   LIG    1        8.727  -4.768   3.668  0.00  0.00    +0.050 C 
ATOM      2  C   LIG    1        7.615  -5.116   4.683  0.00  0.00    +0.065 C 
ATOM      3  C   LIG    1        7.820  -6.608   4.854  0.00  0.00    +0.140 C 
ATOM      4  O   LIG    1        7.329  -7.261   5.770  0.00  0.00    -0.297 OA
ATOM      5  C   LIG    1        8.712  -7.218   3.806  0.00  0.00    +0.106 C 
ATOM      6  C   LIG    1        8.943  -6.056   2.849  0.00  0.00    +0.129 C 
ENDROOT
BRANCH   6   7
ATOM      7  O   LIG    1        8.003  -6.112   1.779  0.00  0.00    -0.391 OA
ATOM      8  H   LIG    1        8.119  -6.969   1.327  0.00  0.00    +0.210 HD
ENDBRANCH   6   7
BRANCH   1  10
ATOM      9  C   LIG    1       10.375  -3.101   4.628  0.00  0.00    -0.028 C 
ATOM     10  C   LIG    1       10.008  -4.369   4.379  0.00  0.00    -0.024 C 
BRANCH   9  11
ATOM     11  C   LIG    1       11.642  -2.746   5.378  0.00  0.00    +0.061 C 
BRANCH  11  12
ATOM     12  C   LIG    1       11.457  -2.615   6.914  0.00  0.00    +0.067 C 
ATOM     13  C   LIG    1       10.401  -1.555   7.263  0.00  0.00    +0.041 C 
BRANCH  12  14
ATOM     14  O   LIG    1       11.027  -3.869   7.455  0.00  0.00    -0.389 OA
ATOM     15  H   LIG    1       10.153  -4.066   7.074  0.00  0.00    +0.210 HD
ENDBRANCH  12  14
BRANCH  12  16
ATOM     16  C   LIG    1       12.776  -2.240   7.625  0.00  0.00    +0.035 C 
BRANCH  16  17
ATOM     17  C   LIG    1       13.928  -3.244   7.465  0.00  0.00    +0.002 C 
BRANCH  17  19
ATOM     18  C   LIG    1       15.760  -1.490   7.737  0.00  0.00    +0.004 C 
ATOM     19  C   LIG    1       15.190  -2.814   8.225  0.00  0.00    -0.003 C 
ENDBRANCH  17  19
ENDBRANCH  16  17
ENDBRANCH  12  16
ENDBRANCH  11  12
ENDBRANCH   9  11
ENDBRANCH   1  10
BRANCH   2  20
ATOM     20  C   LIG    1        6.166  -4.836   4.234  0.00  0.00    +0.011 C 
BRANCH  20  21
ATOM     21  C   LIG    1        5.854  -3.336   4.106  0.00  0.00    +0.001 C 
BRANCH  21  22
ATOM     22  C   LIG    1        4.413  -3.001   3.668  0.00  0.00    +0.000 C 
BRANCH  22  23
ATOM     23  C   LIG    1        3.342  -3.447   4.673  0.00  0.00    +0.000 C 
BRANCH  23  24
ATOM     24  C   LIG    1        1.912  -3.068   4.252  0.00  0.00    +0.011 C 
BRANCH  24  25
ATOM     25  C   LIG    1        0.871  -3.541   5.275  0.00  0.00    +0.120 C 
BRANCH  25  26
ATOM     26  C   LIG    1       -0.537  -3.080   4.894  0.00  0.00    +0.307 C 
ATOM     27  O   LIG    1       -1.075  -2.059   5.283  0.00  0.00    -0.251 OA
BRANCH  26  28
ATOM     28  O   LIG    1       -1.098  -4.034   4.080  0.00  0.00    -0.468 OA
ATOM     29  C   LIG    1       -2.415  -3.721   3.612  0.00  0.00    +0.280 C 
ENDBRANCH  26  28
ENDBRANCH  25  26
ENDBRANCH  24  25
ENDBRANCH  23  24
ENDBRANCH  22  23
ENDBRANCH  21  22
ENDBRANCH  20  21
ENDBRANCH   2  20
TORSDOF 16
