REMARK  Name = *****
REMARK                            x       y       z     vdW  Elec       q    Type
REMARK                         _______ _______ _______ _____ _____    ______ ____
ROOT
ATOM      1  N   LIG    1        6.720   0.991   5.286  0.00  0.00    -0.311 N 
ATOM      2  H   LIG    1        6.891   1.864   5.766  0.00  0.00    +0.149 HD
ATOM      3  C   LIG    1        7.315   0.763   4.065  0.00  0.00    +0.213 C 
ATOM      4  O   LIG    1        7.355  -0.355   3.538  0.00  0.00    -0.276 OA
ENDROOT
BRANCH   1   5
ATOM      5  C   LIG    1        6.169  -0.105   6.059  0.00  0.00    +0.139 C 
BRANCH   5  10
ATOM      6  C   LIG    1        3.603  -0.146   8.904  0.00  0.00    +0.162 A 
ATOM      7  C   LIG    1        2.744   0.884   8.509  0.00  0.00    +0.159 A 
ATOM      8  C   LIG    1        3.007   1.614   7.349  0.00  0.00    +0.049 A 
ATOM      9  C   LIG    1        4.122   1.314   6.565  0.00  0.00    +0.009 A 
ATOM     10  C   LIG    1        5.013   0.303   6.944  0.00  0.00    -0.027 A 
ATOM     11  C   LIG    1        4.742  -0.414   8.126  0.00  0.00    +0.054 A 
BRANCH   6  13
ATOM     12  C   LIG    1        2.147  -1.198  10.455  0.00  0.00    +0.277 C 
ATOM     13  O   LIG    1        3.478  -0.939  10.016  0.00  0.00    -0.491 OA
ENDBRANCH   6  13
BRANCH   7  14
ATOM     14  O   LIG    1        1.641   1.212   9.246  0.00  0.00    -0.503 OA
ATOM     15  H   LIG    1        1.123   1.876   8.764  0.00  0.00    +0.292 HD
ENDBRANCH   7  14
ENDBRANCH   5  10
ENDBRANCH   1   5
BRANCH   3  16
ATOM     16  C   LIG    1        7.869   1.989   3.359  0.00  0.00    +0.096 C 
BRANCH  16  17
ATOM     17  C   LIG    1        8.961   2.680   4.173  0.00  0.00    +0.010 C 
BRANCH  17  18
ATOM     18  C   LIG    1        9.605   3.868   3.446  0.00  0.00    +0.004 C 
BRANCH  18  19
ATOM     19  C   LIG    1       10.677   4.576   4.297  0.00  0.00    +0.027 C 
BRANCH  19  20
ATOM     20  C   LIG    1       11.851   3.715   4.687  0.00  0.00    -0.031 C 
ATOM     21  C   LIG    1       13.147   3.823   4.337  0.00  0.00    -0.028 C 
BRANCH  21  22
ATOM     22  C   LIG    1       13.780   4.799   3.370  0.00  0.00    +0.005 C 
ATOM     23  C   LIG    1       14.361   4.043   2.171  0.00  0.00    +0.011 C 
ATOM     24  C   LIG    1       14.868   5.657   4.024  0.00  0.00    +0.011 C 
ENDBRANCH  21  22
ENDBRANCH  19  20
ENDBRANCH  18  19
ENDBRANCH  17  18
ENDBRANCH  16  17
ENDBRANCH   3  16
TORSDOF 10
