REMARK  Name = *****
REMARK                            x       y       z     vdW  Elec       q    Type
REMARK                         _______ _______ _______ _____ _____    ______ ____
ROOT
ATOM      1  C   LIG    1        5.321   0.469  -0.321  0.00  0.00    +0.043 A 
ATOM      2  C   LIG    1        6.264   1.179   0.451  0.00  0.00    +0.124 A 
ATOM      3  C   LIG    1        7.441   0.582   0.963  0.00  0.00    +0.049 A 
ATOM      4  C   LIG    1        7.713  -0.774   0.753  0.00  0.00    -0.041 A 
ATOM      5  C   LIG    1        6.760  -1.518   0.063  0.00  0.00    +0.049 A 
ATOM      6  C   LIG    1        5.607  -0.909  -0.468  0.00  0.00    +0.124 A 
ENDROOT
BRANCH   1   8
ATOM      7  C   LIG    1        4.243   2.443  -1.790  0.00  0.00    +0.026 C 
ATOM      8  C   LIG    1        4.041   1.175  -0.868  0.00  0.00    +0.056 C 
ATOM      9  C   LIG    1        3.115   0.234  -1.623  0.00  0.00    -0.019 C 
ATOM     10  C   LIG    1        3.136   0.074  -2.949  0.00  0.00    -0.076 C 
ATOM     11  C   LIG    1        2.252  -0.918  -3.631  0.00  0.00    +0.038 C 
ATOM     12  C   LIG    1        4.064   0.866  -3.848  0.00  0.00    +0.031 C 
ATOM     13  C   LIG    1        4.822   2.010  -3.155  0.00  0.00    +0.013 C 
BRANCH   7  15
ATOM     14  C   LIG    1        2.095   3.317  -2.951  0.00  0.00    +0.007 C 
ATOM     15  C   LIG    1        2.967   3.336  -1.923  0.00  0.00    -0.076 C 
ATOM     16  C   LIG    1        2.724   4.341  -0.826  0.00  0.00    +0.038 C 
ENDBRANCH   7  15
ENDBRANCH   1   8
BRANCH   2  17
ATOM     17  O   LIG    1        6.026   2.497   0.744  0.00  0.00    -0.506 OA
ATOM     18  H   LIG    1        6.697   2.802   1.377  0.00  0.00    +0.292 HD
ENDBRANCH   2  17
BRANCH   6  19
ATOM     19  O   LIG    1        4.756  -1.757  -1.125  0.00  0.00    -0.506 OA
ATOM     20  H   LIG    1        5.272  -2.482  -1.510  0.00  0.00    +0.292 HD
ENDBRANCH   6  19
BRANCH   4  21
ATOM     21  C   LIG    1        8.992  -1.435   1.227  0.00  0.00    +0.035 C 
BRANCH  21  22
ATOM     22  C   LIG    1        8.891  -2.062   2.625  0.00  0.00    +0.005 C 
BRANCH  22  23
ATOM     23  C   LIG    1       10.219  -2.691   3.086  0.00  0.00    +0.000 C 
BRANCH  23  24
ATOM     24  C   LIG    1       10.105  -3.293   4.493  0.00  0.00    -0.003 C 
ATOM     25  C   LIG    1       11.412  -3.914   4.972  0.00  0.00    +0.004 C 
ENDBRANCH  23  24
ENDBRANCH  22  23
ENDBRANCH  21  22
ENDBRANCH   4  21
TORSDOF 8
