REMARK  Name = *****
REMARK                            x       y       z     vdW  Elec       q    Type
REMARK                         _______ _______ _______ _____ _____    ______ ____
ROOT
ATOM      1  C   LIG    1        1.253  -0.544  -0.552  0.00  0.00    +0.044 C 
ATOM      2  C   LIG    1        2.718  -0.309  -0.278  0.00  0.00    -0.046 A 
ATOM      3  C   LIG    1        3.244   0.982  -0.047  0.00  0.00    -0.027 A 
ATOM      4  C   LIG    1        4.629   1.112   0.216  0.00  0.00    -0.005 A 
ATOM      5  C   LIG    1        5.261   2.451   0.517  0.00  0.00    +0.048 C 
ATOM      6  C   LIG    1        5.453  -0.040   0.183  0.00  0.00    +0.124 A 
ATOM      7  C   LIG    1        4.951  -1.339  -0.001  0.00  0.00    -0.000 A 
ATOM      8  C   LIG    1        3.568  -1.433  -0.235  0.00  0.00    +0.011 A 
ENDROOT
BRANCH   7   9
ATOM      9  C   LIG    1        5.845  -2.600   0.066  0.00  0.00    -0.009 C 
ATOM     10  C   LIG    1        6.481  -2.728   1.470  0.00  0.00    +0.016 C 
ATOM     11  C   LIG    1        6.966  -2.566  -0.997  0.00  0.00    +0.016 C 
ATOM     12  C   LIG    1        5.064  -3.917  -0.180  0.00  0.00    +0.016 C 
ENDBRANCH   7   9
BRANCH   6  13
ATOM     13  O   LIG    1        6.806   0.120   0.337  0.00  0.00    -0.506 OA
ATOM     14  H   LIG    1        7.066   0.881  -0.209  0.00  0.00    +0.292 HD
ENDBRANCH   6  13
BRANCH   3  15
ATOM     15  C   LIG    1        2.325   2.193  -0.044  0.00  0.00    +0.163 C 
BRANCH  15  16
ATOM     16  C   LIG    1        1.746   2.564   1.308  0.00  0.00    +0.285 C 
ATOM     17  N   LIG    1        1.935   1.818   2.449  0.00  0.00    -0.234 N 
ATOM     18  H   LIG    1        2.138   0.830   2.359  0.00  0.00    +0.291 HD
ATOM     19  C   LIG    1        0.986   2.265   3.436  0.00  0.00    +0.272 C 
ATOM     20  C   LIG    1        0.641   3.653   2.888  0.00  0.00    +0.333 C 
ATOM     21  N   LIG    1        0.994   3.626   1.436  0.00  0.00    -0.084 NA
ENDBRANCH  15  16
ENDBRANCH   3  15
TORSDOF 4
