REMARK  Name = *****
REMARK                            x       y       z     vdW  Elec       q    Type
REMARK                         _______ _______ _______ _____ _____    ______ ____
ROOT
ATOM      1  O   LIG    1        3.247   0.238   1.380  0.00  0.00    -0.273 OA
ATOM      2  C   LIG    1        4.374   0.460   0.955  0.00  0.00    +0.238 C 
ATOM      3  C   LIG    1        4.921   1.734   0.240  0.00  0.00    +0.115 C 
ATOM      4  C   LIG    1        4.930   2.811   1.350  0.00  0.00    +0.051 C 
ATOM      5  C   LIG    1        4.257   4.136   1.006  0.00  0.00    +0.087 C 
ATOM      6  N   LIG    1        3.070   4.022   0.166  0.00  0.00    -0.302 NA
ATOM      7  C   LIG    1        3.466   3.408  -1.108  0.00  0.00    +0.087 C 
ATOM      8  C   LIG    1        4.004   1.984  -0.987  0.00  0.00    +0.051 C 
ATOM      9  N   LIG    1        6.272   1.258  -0.166  0.00  0.00    -0.300 N 
ATOM     10  C   LIG    1        6.585  -0.032   0.407  0.00  0.00    +0.214 C 
ATOM     11  N   LIG    1        5.408  -0.406   1.117  0.00  0.00    -0.298 N 
ATOM     12  H   LIG    1        5.266  -1.324   1.522  0.00  0.00    +0.150 HD
ENDROOT
BRANCH   9  13
ATOM     13  C   LIG    1        7.209   1.900  -0.952  0.00  0.00    +0.032 A 
ATOM     14  C   LIG    1        7.317   3.289  -1.036  0.00  0.00    +0.023 A 
ATOM     15  C   LIG    1        8.310   3.916  -1.804  0.00  0.00    +0.002 A 
ATOM     16  C   LIG    1        9.212   3.159  -2.540  0.00  0.00    +0.000 A 
ATOM     17  C   LIG    1        9.118   1.777  -2.505  0.00  0.00    +0.002 A 
ATOM     18  C   LIG    1        8.134   1.164  -1.718  0.00  0.00    +0.023 A 
ENDBRANCH   9  13
BRANCH   6  19
ATOM     19  C   LIG    1        1.910   3.352   0.776  0.00  0.00    +0.084 C 
BRANCH  19  20
ATOM     20  C   LIG    1        1.413   3.942   2.108  0.00  0.00    +0.016 C 
BRANCH  20  21
ATOM     21  C   LIG    1        0.176   3.168   2.616  0.00  0.00    +0.014 C 
BRANCH  21  22
ATOM     22  C   LIG    1       -0.387   3.716   3.951  0.00  0.00    +0.049 C 
BRANCH  22  23
ATOM     23  C   LIG    1       -1.424   2.747   4.553  0.00  0.00    -0.040 A 
ATOM     24  C   LIG    1       -2.789   2.759   4.207  0.00  0.00    +0.007 A 
ATOM     25  C   LIG    1       -3.694   1.849   4.765  0.00  0.00    +0.038 A 
ATOM     26  C   LIG    1       -3.245   0.901   5.669  0.00  0.00    +0.123 A 
ATOM     27  F   LIG    1       -4.113   0.029   6.200  0.00  0.00    -0.205 F 
ATOM     28  C   LIG    1       -1.905   0.847   6.024  0.00  0.00    +0.038 A 
ATOM     29  C   LIG    1       -0.999   1.760   5.468  0.00  0.00    +0.007 A 
ENDBRANCH  22  23
BRANCH  22  30
ATOM     30  C   LIG    1       -0.848   5.171   3.838  0.00  0.00    -0.040 A 
ATOM     31  C   LIG    1       -1.804   5.570   2.886  0.00  0.00    +0.007 A 
ATOM     32  C   LIG    1       -2.247   6.890   2.822  0.00  0.00    +0.038 A 
ATOM     33  C   LIG    1       -1.681   7.840   3.660  0.00  0.00    +0.123 A 
ATOM     34  F   LIG    1       -2.088   9.114   3.582  0.00  0.00    -0.205 F 
ATOM     35  C   LIG    1       -0.685   7.491   4.565  0.00  0.00    +0.038 A 
ATOM     36  C   LIG    1       -0.281   6.157   4.667  0.00  0.00    +0.007 A 
ENDBRANCH  22  30
ENDBRANCH  21  22
ENDBRANCH  20  21
ENDBRANCH  19  20
ENDBRANCH   6  19
TORSDOF 7
