REMARK  Name = *****
REMARK                            x       y       z     vdW  Elec       q    Type
REMARK                         _______ _______ _______ _____ _____    ______ ____
ROOT
ATOM      1  CA  GLY A  1        2.447  -0.117  -0.004  0.00  0.00    +0.199 C 
ENDROOT
BRANCH   1   2
ATOM      2  N   GLY A  1        1.173   0.065   0.743  0.00  0.00    -0.321 NA
ATOM      3  H1  GLY A  1        1.395   0.543   1.623  0.00  0.00    +0.119 HD
ATOM      4  H2  GLY A  1        0.609   0.747   0.227  0.00  0.00    +0.119 HD
ENDBRANCH   1   2
BRANCH   1   5
ATOM      5  C   GLY A  1        3.179  -1.343   0.537  0.00  0.00    +0.319 C 
ATOM      6  O   GLY A  1        4.339  -1.631   0.292  0.00  0.00    -0.250 OA
BRANCH   5   7
ATOM      7  OXT GLY A  1        2.360  -2.104   1.309  0.00  0.00    -0.480 OA
ATOM      8  HXT GLY A  1        1.488  -1.636   1.315  0.00  0.00    +0.295 HD
ENDBRANCH   5   7
ENDBRANCH   1   5
TORSDOF 3
