REMARK  Name = *****
REMARK                            x       y       z     vdW  Elec       q    Type
REMARK                         _______ _______ _______ _____ _____    ______ ____
ROOT
ATOM      1  C   LIG    1       -9.461  -4.244  -2.159  0.00  0.00    +0.044 C 
ATOM      2  C   LIG    1       -9.373  -5.336  -1.086  0.00  0.00    +0.006 C 
ATOM      3  C   LIG    1       -8.320  -6.309  -1.613  0.00  0.00    -0.001 C 
ATOM      4  C   LIG    1       -8.616  -7.635  -0.927  0.00  0.00    +0.034 C 
ATOM      5  C   LIG    1      -10.046  -7.515  -0.454  0.00  0.00    -0.073 C 
ATOM      6  C   LIG    1      -10.686  -8.393   0.340  0.00  0.00    -0.027 C 
ATOM      7  C   LIG    1       -8.532  -6.337  -3.124  0.00  0.00    +0.036 C 
ATOM      8  C   LIG    1      -10.627  -6.200  -0.913  0.00  0.00    +0.035 C 
ATOM      9  C   LIG    1       -9.052  -4.943  -3.484  0.00  0.00    +0.122 C 
ENDROOT
BRANCH   1  11
ATOM     10  C   LIG    1       -8.829  -2.016  -1.151  0.00  0.00    +0.000 C 
ATOM     11  C   LIG    1       -8.491  -3.129  -1.824  0.00  0.00    -0.022 C 
BRANCH  10  12
ATOM     12  C   LIG    1       -7.909  -0.881  -0.761  0.00  0.00    +0.141 C 
BRANCH  12  13
ATOM     13  C   LIG    1       -7.908   0.273  -1.795  0.00  0.00    +0.030 C 
ATOM     14  C   LIG    1       -6.940   1.399  -1.387  0.00  0.00    +0.011 C 
BRANCH  13  15
ATOM     15  C   LIG    1       -9.322   0.834  -2.062  0.00  0.00    +0.095 C 
BRANCH  15  18
ATOM     16  C   LIG    1      -10.649   2.557   1.441  0.00  0.00    +0.106 C 
ATOM     17  C   LIG    1      -10.277   1.971   0.159  0.00  0.00    -0.106 C 
ATOM     18  C   LIG    1       -9.897   1.468  -0.869  0.00  0.00    -0.102 C 
ENDBRANCH  15  18
ENDBRANCH  13  15
ENDBRANCH  12  13
BRANCH  12  19
ATOM     19  O   LIG    1       -6.587  -1.383  -0.572  0.00  0.00    -0.388 OA
ATOM     20  H   LIG    1       -6.278  -1.736  -1.420  0.00  0.00    +0.210 HD
ENDBRANCH  12  19
ENDBRANCH  10  12
ENDBRANCH   1  11
BRANCH   9  21
ATOM     21  O   LIG    1      -10.167  -5.056  -4.363  0.00  0.00    -0.391 OA
ATOM     22  H   LIG    1      -10.826  -5.629  -3.937  0.00  0.00    +0.210 HD
ENDBRANCH   9  21
BRANCH   6  23
ATOM     23  C   LIG    1      -10.122  -9.687   0.864  0.00  0.00    +0.028 C 
BRANCH  23  24
ATOM     24  C   LIG    1      -10.106  -9.795   2.396  0.00  0.00    +0.015 C 
BRANCH  24  25
ATOM     25  C   LIG    1       -9.288  -8.742   3.144  0.00  0.00    +0.121 C 
BRANCH  25  26
ATOM     26  C   LIG    1       -7.818  -8.709   2.803  0.00  0.00    +0.305 C 
ATOM     27  O   LIG    1       -7.238  -7.730   2.359  0.00  0.00    -0.251 OA
BRANCH  26  28
ATOM     28  O   LIG    1       -7.165  -9.854   3.103  0.00  0.00    -0.481 OA
ATOM     29  H   LIG    1       -7.725 -10.535   3.516  0.00  0.00    +0.295 HD
ENDBRANCH  26  28
ENDBRANCH  25  26
ENDBRANCH  24  25
ENDBRANCH  23  24
ENDBRANCH   6  23
TORSDOF 12
