REMARK  Name = *****
REMARK                            x       y       z     vdW  Elec       q    Type
REMARK                         _______ _______ _______ _____ _____    ______ ____
ROOT
ATOM      1  C1* LIG    1        3.365  -3.831   1.969  0.00  0.00    +0.270 C 
ATOM      2  C2* LIG    1        2.183  -4.797   2.091  0.00  0.00    +0.197 C 
ATOM      3  C3* LIG    1        2.886  -6.125   2.322  0.00  0.00    +0.178 C 
ATOM      4  C4* LIG    1        4.179  -5.986   1.522  0.00  0.00    +0.177 C 
ATOM      5  O4* LIG    1        4.535  -4.587   1.570  0.00  0.00    -0.344 OA
ENDROOT
BRANCH   1   8
ATOM      6  C   LIG    1        2.776  -1.799  -0.824  0.00  0.00    +0.236 A 
ATOM      7  N   LIG    1        2.982  -3.027  -0.314  0.00  0.00    -0.142 NA
ATOM      8  N   LIG    1        3.148  -2.766   1.001  0.00  0.00    -0.220 N 
ATOM      9  C   LIG    1        3.126  -1.426   1.236  0.00  0.00    +0.223 A 
ATOM     10  N   LIG    1        2.879  -0.783   0.117  0.00  0.00    -0.211 NA
BRANCH   6  14
ATOM     11  N   LIG    1        2.333  -0.223  -2.576  0.00  0.00    -0.323 N 
ATOM     12  H   LIG    1        2.430   0.492  -1.865  0.00  0.00    +0.145 HD
ATOM     13  H   LIG    1        2.126   0.019  -3.533  0.00  0.00    +0.145 HD
ATOM     14  C   LIG    1        2.475  -1.544  -2.247  0.00  0.00    +0.281 C 
ATOM     15  O   LIG    1        2.355  -2.417  -3.109  0.00  0.00    -0.267 OA
ENDBRANCH   6  14
ENDBRANCH   1   8
BRANCH   2  16
ATOM     16  O2* LIG    1        1.323  -4.472   3.191  0.00  0.00    -0.385 OA
ATOM     17  H2* LIG    1        1.700  -4.945   3.964  0.00  0.00    +0.210 HD
ENDBRANCH   2  16
BRANCH   3  18
ATOM     18  O3* LIG    1        3.176  -6.214   3.735  0.00  0.00    -0.386 OA
ATOM     19  H3* LIG    1        3.614  -7.072   3.889  0.00  0.00    +0.210 HD
ENDBRANCH   3  18
BRANCH   4  20
ATOM     20  C5* LIG    1        4.070  -6.442   0.061  0.00  0.00    +0.190 C 
BRANCH  20  21
ATOM     21  O5* LIG    1        3.042  -5.771  -0.648  0.00  0.00    -0.392 OA
ATOM     22  H5* LIG    1        3.333  -4.843  -0.810  0.00  0.00    +0.209 HD
ENDBRANCH  20  21
ENDBRANCH   4  20
TORSDOF 6
