REMARK  Name = *****
REMARK                            x       y       z     vdW  Elec       q    Type
REMARK                         _______ _______ _______ _____ _____    ______ ____
ROOT
ATOM      1  C   LIG    1        2.061  -2.978   0.326  0.00  0.00    +0.253 C 
ATOM      2  N   LIG    1        2.867  -3.925  -0.282  0.00  0.00    -0.281 N 
ATOM      3  H   LIG    1        3.604  -3.581  -0.881  0.00  0.00    +0.155 HD
ATOM      4  O   LIG    1        1.199  -3.205   1.166  0.00  0.00    -0.270 OA
ENDROOT
BRANCH   1   7
ATOM      5  C   LIG    1        1.416  -0.194   1.914  0.00  0.00    +0.090 C 
ATOM      6  C   LIG    1        2.057  -0.468   0.612  0.00  0.00    +0.146 A 
ATOM      7  C   LIG    1        2.351  -1.617  -0.094  0.00  0.00    +0.098 A 
ATOM      8  C   LIG    1        2.957  -1.121  -1.271  0.00  0.00    +0.170 A 
ATOM      9  N   LIG    1        3.061   0.208  -1.273  0.00  0.00    -0.086 NA
ATOM     10  O   LIG    1        2.488   0.620  -0.084  0.00  0.00    -0.359 OA
ENDBRANCH   1   7
BRANCH   2  11
ATOM     11  C   LIG    1        2.861  -5.322  -0.087  0.00  0.00    +0.034 A 
ATOM     12  C   LIG    1        3.845  -6.059  -0.759  0.00  0.00    +0.024 A 
ATOM     13  C   LIG    1        3.925  -7.447  -0.614  0.00  0.00    +0.014 A 
ATOM     14  C   LIG    1        3.018  -8.130   0.206  0.00  0.00    +0.055 A 
ATOM     15  C   LIG    1        2.029  -7.392   0.870  0.00  0.00    +0.014 A 
ATOM     16  C   LIG    1        1.951  -6.001   0.723  0.00  0.00    +0.024 A 
BRANCH  14  17
ATOM     17  C   LIG    1        3.122  -9.628   0.363  0.00  0.00    +0.417 C 
ATOM     18  F   LIG    1        4.327 -10.013   0.870  0.00  0.00    -0.166 F 
ATOM     19  F   LIG    1        2.990 -10.284  -0.823  0.00  0.00    -0.166 F 
ATOM     20  F   LIG    1        2.181 -10.159   1.191  0.00  0.00    -0.166 F 
ENDBRANCH  14  17
ENDBRANCH   2  11
TORSDOF 3
