REMARK  Name = *****
REMARK                            x       y       z     vdW  Elec       q    Type
REMARK                         _______ _______ _______ _____ _____    ______ ____
ROOT
ATOM      1  C   LIG    1        3.108  -6.132   0.528  0.00  0.00    -0.000 C 
ENDROOT
BRANCH   1   2
ATOM      2  C   LIG    1        2.822  -6.018   2.124  0.00  0.00    -0.000 C 
BRANCH   2   3
ATOM      3  C   LIG    1        2.580  -7.386   3.190  0.00  0.00    +0.000 C 
BRANCH   3   4
ATOM      4  C   LIG    1        3.716  -8.548   3.851  0.00  0.00    +0.002 C 
BRANCH   4   5
ATOM      5  C   LIG    1        3.241  -9.908   4.869  0.00  0.00    +0.019 C 
BRANCH   5   6
ATOM      6  C   LIG    1        4.083 -11.253   5.551  0.00  0.00    +0.111 C 
BRANCH   6   7
ATOM      7  N   LIG    1        5.112 -11.176   6.664  0.00  0.00    -0.270 N 
ATOM      8  C   LIG    1        6.089 -12.180   7.021  0.00  0.00    +0.408 C 
ATOM      9  O   LIG    1        6.820 -12.223   8.037  0.00  0.00    -0.226 OA
ATOM     10  C   LIG    1        5.030 -10.098   7.643  0.00  0.00    +0.135 C 
BRANCH   8  11
ATOM     11  O   LIG    1        6.382 -13.092   5.968  0.00  0.00    -0.411 OA
BRANCH  11  12
ATOM     12  C   LIG    1        7.747 -13.121   5.544  0.00  0.00    +0.139 A 
ATOM     13  C   LIG    1        8.243 -14.254   4.865  0.00  0.00    +0.118 A 
ATOM     14  C   LIG    1        9.534 -14.239   4.250  0.00  0.00    +0.149 A 
ATOM     15  C   LIG    1       10.316 -13.094   4.392  0.00  0.00    +0.072 A 
ATOM     16  C   LIG    1        9.819 -11.978   5.063  0.00  0.00    +0.010 A 
ATOM     17  C   LIG    1        8.535 -11.977   5.606  0.00  0.00    +0.047 A 
BRANCH  14  18
ATOM     18  N   LIG    1       10.026 -15.373   3.311  0.00  0.00    -0.383 NA
ATOM     19  C   LIG    1        8.813 -16.032   2.669  0.00  0.00    +0.361 C 
ATOM     20  C   LIG    1       10.675 -16.444   4.112  0.00  0.00    +0.361 C 
ATOM     21  C   LIG    1       11.221 -14.939   2.359  0.00  0.00    +0.361 C 
ENDBRANCH  14  18
ENDBRANCH  11  12
ENDBRANCH   8  11
ENDBRANCH   6   7
ENDBRANCH   5   6
ENDBRANCH   4   5
ENDBRANCH   3   4
ENDBRANCH   2   3
ENDBRANCH   1   2
BRANCH   1  22
ATOM     22  C   LIG    1        3.227  -4.840  -0.428  0.00  0.00    +0.000 C 
BRANCH  22  23
ATOM     23  C   LIG    1        3.483  -5.071  -1.980  0.00  0.00    +0.002 C 
BRANCH  23  24
ATOM     24  C   LIG    1        4.780  -5.812  -2.361  0.00  0.00    +0.019 C 
BRANCH  24  25
ATOM     25  C   LIG    1        5.238  -7.246  -1.943  0.00  0.00    +0.111 C 
BRANCH  25  27
ATOM     26  C   LIG    1        3.377  -9.172  -2.099  0.00  0.00    +0.135 C 
ATOM     27  N   LIG    1        4.764  -8.659  -1.996  0.00  0.00    -0.270 N 
ATOM     28  C   LIG    1        5.634  -9.535  -1.367  0.00  0.00    +0.408 C 
ATOM     29  O   LIG    1        6.947  -9.446  -1.445  0.00  0.00    -0.226 OA
BRANCH  28  30
ATOM     30  O   LIG    1        5.030 -10.418  -0.506  0.00  0.00    -0.411 OA
BRANCH  30  31
ATOM     31  C   LIG    1        5.725 -11.194   0.411  0.00  0.00    +0.139 A 
ATOM     32  C   LIG    1        6.761 -11.978  -0.033  0.00  0.00    +0.118 A 
ATOM     33  C   LIG    1        7.218 -12.994   0.752  0.00  0.00    +0.149 A 
ATOM     34  C   LIG    1        6.817 -13.036   2.092  0.00  0.00    +0.072 A 
ATOM     35  C   LIG    1        5.905 -12.127   2.582  0.00  0.00    +0.010 A 
ATOM     36  C   LIG    1        5.267 -11.274   1.715  0.00  0.00    +0.047 A 
BRANCH  33  37
ATOM     37  N   LIG    1        8.105 -14.007   0.122  0.00  0.00    -0.383 NA
ATOM     38  C   LIG    1        9.398 -13.849   0.748  0.00  0.00    +0.361 C 
ATOM     39  C   LIG    1        7.376 -15.356   0.103  0.00  0.00    +0.361 C 
ATOM     40  C   LIG    1        8.545 -13.715  -1.310  0.00  0.00    +0.361 C 
ENDBRANCH  33  37
ENDBRANCH  30  31
ENDBRANCH  28  30
ENDBRANCH  25  27
ENDBRANCH  24  25
ENDBRANCH  23  24
ENDBRANCH  22  23
ENDBRANCH   1  22
TORSDOF 17
