REMARK  Name = *****
REMARK                            x       y       z     vdW  Elec       q    Type
REMARK                         _______ _______ _______ _____ _____    ______ ____
ROOT
ATOM      1  C   LIG    1        3.063  -0.915  -1.113  0.00  0.00    +0.024 C 
ATOM      2  C   LIG    1        2.603   0.011   0.043  0.00  0.00    +0.028 C 
ATOM      3  C   LIG    1        2.614  -0.444  -2.575  0.00  0.00    -0.014 C 
ATOM      4  C   LIG    1        3.755  -0.322  -3.608  0.00  0.00    +0.013 C 
ATOM      5  C   LIG    1        1.879   0.916  -2.592  0.00  0.00    +0.013 C 
ATOM      6  C   LIG    1        1.602  -1.574  -2.994  0.00  0.00    -0.003 C 
ATOM      7  C   LIG    1        0.928  -1.940  -1.670  0.00  0.00    +0.009 C 
ATOM      8  C   LIG    1        2.312  -2.904  -3.309  0.00  0.00    +0.004 C 
ATOM      9  C   LIG    1        2.799  -3.363  -1.932  0.00  0.00    +0.005 C 
ATOM     10  C   LIG    1        2.258  -2.267  -0.984  0.00  0.00    +0.010 C 
ENDROOT
BRANCH   1  12
ATOM     11  C   LIG    1        5.370  -0.066  -0.723  0.00  0.00    +0.101 C 
ATOM     12  N   LIG    1        4.501  -1.210  -0.960  0.00  0.00    -0.313 NA
ATOM     13  H   LIG    1        4.633  -1.877  -0.199  0.00  0.00    +0.122 HD
ENDBRANCH   1  12
TORSDOF 1
