REMARK  Name = *****
REMARK                            x       y       z     vdW  Elec       q    Type
REMARK                         _______ _______ _______ _____ _____    ______ ____
ROOT
ATOM      1  C   LIG    1        3.565   0.073  -0.003  0.00  0.00    +0.174 C 
ATOM      2  C   LIG    1        4.116  -1.286  -0.497  0.00  0.00    +0.061 C 
ATOM      3  C   LIG    1        3.848  -1.538  -1.987  0.00  0.00    +0.005 C 
ATOM      4  C   LIG    1        4.400  -0.413  -2.853  0.00  0.00    +0.000 C 
ATOM      5  C   LIG    1        3.861   0.943  -2.414  0.00  0.00    +0.005 C 
ATOM      6  C   LIG    1        4.099   1.194  -0.925  0.00  0.00    +0.061 C 
ENDROOT
BRANCH   1   8
ATOM      7  C   LIG    1        0.931   0.073  -0.003  0.00  0.00    +0.008 C 
ATOM      8  C   LIG    1        2.121   0.073  -0.003  0.00  0.00    -0.058 C 
ENDBRANCH   1   8
BRANCH   1   9
ATOM      9  O   LIG    1        4.070   0.424   1.315  0.00  0.00    -0.431 OA
BRANCH   9  10
ATOM     10  C   LIG    1        3.763  -0.327   2.394  0.00  0.00    +0.399 C 
ATOM     11  O   LIG    1        3.156  -1.382   2.417  0.00  0.00    -0.227 OA
ATOM     12  N   LIG    1        4.222   0.284   3.511  0.00  0.00    -0.295 N 
ATOM     13  H   LIG    1        3.989  -0.114   4.409  0.00  0.00    +0.148 HD
ATOM     14  H   LIG    1        4.583   1.224   3.452  0.00  0.00    +0.148 HD
ENDBRANCH   9  10
ENDBRANCH   1   9
TORSDOF 3
