REMARK  Name = *****
REMARK                            x       y       z     vdW  Elec       q    Type
REMARK                         _______ _______ _______ _____ _____    ______ ____
ROOT
ATOM      1  C   LIG    1        3.651   1.909   0.118  0.00  0.00    +0.161 C 
ENDROOT
BRANCH   1   2
ATOM      2  C   LIG    1        5.080   1.679   0.554  0.00  0.00    -0.014 A 
ATOM      3  C   LIG    1        6.125   2.372  -0.076  0.00  0.00    +0.051 A 
ATOM      4  C   LIG    1        7.443   2.170   0.326  0.00  0.00    +0.117 A 
ATOM      5  C   LIG    1        7.749   1.284   1.351  0.00  0.00    +0.045 A 
ATOM      6  C   LIG    1        6.720   0.586   1.982  0.00  0.00    +0.004 A 
ATOM      7  C   LIG    1        5.394   0.779   1.583  0.00  0.00    +0.006 A 
BRANCH   4   8
ATOM      8  O   LIG    1        8.416   2.872  -0.322  0.00  0.00    -0.507 OA
ATOM      9  H   LIG    1        9.278   2.608   0.041  0.00  0.00    +0.292 HD
ENDBRANCH   4   8
ENDBRANCH   1   2
BRANCH   1  11
ATOM     10  C   LIG    1        3.138   3.849   1.724  0.00  0.00    +0.027 C 
ATOM     11  C   LIG    1        2.715   2.469   1.229  0.00  0.00    +0.081 C 
BRANCH  11  12
ATOM     12  N   LIG    1        1.325   2.518   0.711  0.00  0.00    -0.325 NA
ATOM     13  H   LIG    1        0.711   2.868   1.449  0.00  0.00    +0.118 HD
ATOM     14  H   LIG    1        1.270   3.213  -0.036  0.00  0.00    +0.118 HD
ENDBRANCH  11  12
ENDBRANCH   1  11
BRANCH   1  15
ATOM     15  O   LIG    1        3.111   0.659  -0.334  0.00  0.00    -0.386 OA
ATOM     16  H   LIG    1        2.143   0.782  -0.265  0.00  0.00    +0.210 HD
ENDBRANCH   1  15
TORSDOF 5
