REMARK  Name = *****
REMARK                            x       y       z     vdW  Elec       q    Type
REMARK                         _______ _______ _______ _____ _____    ______ ____
ROOT
ATOM      1  C   LIG    1        4.227  -2.419  -0.870  0.00  0.00    +0.084 C 
ATOM      2  C   LIG    1        5.717  -2.084  -1.087  0.00  0.00    +0.038 C 
ATOM      3  C   LIG    1        6.437  -3.165  -1.907  0.00  0.00    +0.086 C 
ATOM      4  N   LIG    1        5.870  -3.356  -3.252  0.00  0.00    -0.302 NA
ATOM      5  C   LIG    1        4.395  -3.497  -3.204  0.00  0.00    +0.086 C 
ATOM      6  C   LIG    1        3.625  -2.543  -2.277  0.00  0.00    +0.038 C 
ENDROOT
BRANCH   1   8
ATOM      7  C   LIG    1        3.276  -4.702  -0.122  0.00  0.00    +0.220 C 
ATOM      8  N   LIG    1        4.006  -3.529   0.135  0.00  0.00    -0.268 N 
ATOM      9  O   LIG    1        2.804  -4.982  -1.240  0.00  0.00    -0.275 OA
BRANCH   8  10
ATOM     10  C   LIG    1        4.490  -3.256   1.459  0.00  0.00    +0.037 A 
ATOM     11  C   LIG    1        4.050  -2.135   2.177  0.00  0.00    +0.023 A 
ATOM     12  C   LIG    1        4.515  -1.899   3.476  0.00  0.00    +0.002 A 
ATOM     13  C   LIG    1        5.447  -2.761   4.053  0.00  0.00    +0.000 A 
ATOM     14  C   LIG    1        5.907  -3.864   3.338  0.00  0.00    +0.002 A 
ATOM     15  C   LIG    1        5.424  -4.115   2.051  0.00  0.00    +0.023 A 
ENDBRANCH   8  10
BRANCH   7  17
ATOM     16  C   LIG    1        1.776  -6.535   0.836  0.00  0.00    +0.013 C 
ATOM     17  C   LIG    1        3.038  -5.697   1.017  0.00  0.00    +0.093 C 
ENDBRANCH   7  17
ENDBRANCH   1   8
BRANCH   4  18
ATOM     18  C   LIG    1        6.417  -4.585  -3.932  0.00  0.00    +0.089 C 
BRANCH  18  19
ATOM     19  C   LIG    1        7.943  -4.672  -4.152  0.00  0.00    +0.050 C 
BRANCH  19  20
ATOM     20  C   LIG    1        8.464  -5.957  -4.797  0.00  0.00    -0.046 A 
ATOM     21  C   LIG    1        8.729  -6.042  -6.174  0.00  0.00    +0.003 A 
ATOM     22  C   LIG    1        9.416  -7.145  -6.708  0.00  0.00    +0.000 A 
ATOM     23  C   LIG    1        9.836  -8.182  -5.879  0.00  0.00    +0.000 A 
ATOM     24  C   LIG    1        9.508  -8.150  -4.527  0.00  0.00    +0.000 A 
ATOM     25  C   LIG    1        8.815  -7.055  -3.994  0.00  0.00    +0.003 A 
ENDBRANCH  19  20
ENDBRANCH  18  19
ENDBRANCH   4  18
TORSDOF 6
