REMARK  Name = *****
REMARK                            x       y       z     vdW  Elec       q    Type
REMARK                         _______ _______ _______ _____ _____    ______ ____
ROOT
ATOM      1  C   LIG    1        3.580 -10.083   0.785  0.00  0.00    +0.169 C 
ATOM      2  C   LIG    1        2.248  -9.407   1.320  0.00  0.00    +0.084 C 
ATOM      3  C   LIG    1        1.361  -8.842   0.169  0.00  0.00    +0.042 C 
ATOM      4  C   LIG    1        1.824  -9.374  -1.194  0.00  0.00    +0.084 C 
ATOM      5  C   LIG    1        3.260  -8.823  -1.461  0.00  0.00    +0.169 C 
ATOM      6  C   LIG    1        4.174  -9.061  -0.213  0.00  0.00    +0.175 C 
ENDROOT
BRANCH   2   7
ATOM      7  N   LIG    1        2.494  -8.333   2.307  0.00  0.00    -0.325 NA
ATOM      8  H   LIG    1        1.603  -7.929   2.605  0.00  0.00    +0.118 HD
ATOM      9  H   LIG    1        2.999  -7.553   1.887  0.00  0.00    +0.118 HD
ENDBRANCH   2   7
BRANCH   4  10
ATOM     10  N   LIG    1        0.845  -9.109  -2.251  0.00  0.00    -0.325 NA
ATOM     11  H   LIG    1        1.244  -9.382  -3.151  0.00  0.00    +0.118 HD
ATOM     12  H   LIG    1        0.010  -9.684  -2.111  0.00  0.00    +0.118 HD
ENDBRANCH   4  10
BRANCH   6  13
ATOM     13  O   LIG    1        5.515  -9.376  -0.596  0.00  0.00    -0.387 OA
ATOM     14  H   LIG    1        6.103  -8.907   0.020  0.00  0.00    +0.210 HD
ENDBRANCH   6  13
BRANCH   1  15
ATOM     15  O   LIG    1        3.236 -11.385   0.244  0.00  0.00    -0.342 OA
BRANCH  15  18
ATOM     16  C   LIG    1        5.115 -13.756   1.355  0.00  0.00    +0.138 C 
ATOM     17  O   LIG    1        5.328 -12.566   0.543  0.00  0.00    -0.345 OA
ATOM     18  C   LIG    1        4.264 -12.192  -0.363  0.00  0.00    +0.268 C 
ATOM     19  C   LIG    1        3.642 -13.519  -0.940  0.00  0.00    +0.107 C 
ATOM     20  C   LIG    1        2.928 -14.267   0.200  0.00  0.00    +0.026 C 
ATOM     21  C   LIG    1        3.613 -14.011   1.547  0.00  0.00    +0.035 C 
BRANCH  19  22
ATOM     22  N   LIG    1        2.837 -13.531  -2.164  0.00  0.00    -0.323 NA
ATOM     23  H   LIG    1        3.154 -12.862  -2.828  0.00  0.00    +0.119 HD
ATOM     24  H   LIG    1        1.846 -13.356  -1.957  0.00  0.00    +0.119 HD
ENDBRANCH  19  22
BRANCH  16  25
ATOM     25  C   LIG    1        5.880 -15.048   0.822  0.00  0.00    +0.079 C 
ATOM     26  C   LIG    1        5.639 -16.254   1.746  0.00  0.00    +0.026 C 
BRANCH  25  28
ATOM     27  C   LIG    1        8.023 -15.897  -0.012  0.00  0.00    +0.101 C 
ATOM     28  N   LIG    1        7.322 -14.784   0.630  0.00  0.00    -0.314 NA
ATOM     29  H   LIG    1        7.405 -13.954   0.038  0.00  0.00    +0.122 HD
ENDBRANCH  25  28
ENDBRANCH  16  25
ENDBRANCH  15  18
ENDBRANCH   1  15
BRANCH   5  30
ATOM     30  O   LIG    1        3.272  -7.388  -1.658  0.00  0.00    -0.341 OA
BRANCH  30  31
ATOM     31  C   LIG    1        2.537  -6.885  -2.791  0.00  0.00    +0.281 C 
ATOM     32  C   LIG    1        2.688  -5.343  -2.723  0.00  0.00    +0.190 C 
ATOM     33  C   LIG    1        4.109  -5.021  -3.244  0.00  0.00    +0.121 C 
ATOM     34  C   LIG    1        4.160  -5.474  -4.755  0.00  0.00    +0.104 C 
ATOM     35  C   LIG    1        5.551  -5.993  -5.126  0.00  0.00    +0.045 C 
ATOM     36  C   LIG    1        3.104  -6.560  -5.062  0.00  0.00    +0.199 C 
ATOM     37  O   LIG    1        3.009  -7.488  -3.990  0.00  0.00    -0.346 OA
BRANCH  33  38
ATOM     38  N   LIG    1        4.583  -3.610  -3.113  0.00  0.00    -0.311 NA
ATOM     39  H   LIG    1        5.562  -3.585  -3.406  0.00  0.00    +0.122 HD
ATOM     40  C   LIG    1        4.551  -3.148  -1.722  0.00  0.00    +0.101 C 
ENDBRANCH  33  38
BRANCH  32  41
ATOM     41  O   LIG    1        2.422  -4.938  -1.371  0.00  0.00    -0.385 OA
ATOM     42  H   LIG    1        2.730  -5.681  -0.816  0.00  0.00    +0.210 HD
ENDBRANCH  32  41
BRANCH  34  43
ATOM     43  O   LIG    1        3.890  -4.352  -5.613  0.00  0.00    -0.385 OA
ATOM     44  H   LIG    1        4.173  -3.563  -5.102  0.00  0.00    +0.210 HD
ENDBRANCH  34  43
ENDBRANCH  30  31
ENDBRANCH   5  30
TORSDOF 13
