REMARK  Name = *****
REMARK                            x       y       z     vdW  Elec       q    Type
REMARK                         _______ _______ _______ _____ _____    ______ ____
ROOT
ATOM      1  C   LIG    1       -7.705  -9.759   2.835  0.00  0.00    +0.107 C 
ENDROOT
BRANCH   1   2
ATOM      2  N   LIG    1       -6.696 -10.860   2.830  0.00  0.00    -0.308 N 
ATOM      3  H   LIG    1       -6.120 -10.975   3.656  0.00  0.00    +0.149 HD
ATOM      4  C   LIG    1       -6.540 -11.714   1.738  0.00  0.00    +0.234 C 
ATOM      5  O   LIG    1       -7.097 -11.462   0.670  0.00  0.00    -0.274 OA
BRANCH   4   6
ATOM      6  C   LIG    1       -5.459 -12.852   1.845  0.00  0.00    +0.168 C 
BRANCH   6   7
ATOM      7  N   LIG    1       -5.359 -13.374   3.227  0.00  0.00    -0.298 N 
ATOM      8  H   LIG    1       -5.885 -12.936   3.969  0.00  0.00    +0.150 HD
ATOM      9  C   LIG    1       -4.643 -14.517   3.570  0.00  0.00    +0.263 C 
ATOM     10  O   LIG    1       -4.020 -15.207   2.805  0.00  0.00    -0.269 OA
BRANCH   9  11
ATOM     11  C   LIG    1       -4.718 -14.906   5.010  0.00  0.00    +0.126 A 
ATOM     12  N   LIG    1       -4.902 -13.904   5.908  0.00  0.00    -0.242 NA
ATOM     13  C   LIG    1       -4.923 -14.249   7.208  0.00  0.00    +0.072 A 
ATOM     14  C   LIG    1       -4.851 -15.595   7.641  0.00  0.00    +0.000 A 
ATOM     15  C   LIG    1       -4.953 -15.911   9.005  0.00  0.00    +0.010 A 
ATOM     16  C   LIG    1       -5.079 -14.899   9.950  0.00  0.00    +0.001 A 
ATOM     17  C   LIG    1       -5.082 -13.570   9.538  0.00  0.00    +0.002 A 
ATOM     18  C   LIG    1       -4.670 -16.596   6.682  0.00  0.00    +0.012 A 
ATOM     19  C   LIG    1       -5.009 -13.260   8.177  0.00  0.00    +0.028 A 
ATOM     20  C   LIG    1       -4.583 -16.248   5.342  0.00  0.00    +0.034 A 
ENDBRANCH   9  11
ENDBRANCH   6   7
BRANCH   6  21
ATOM     21  C   LIG    1       -5.705 -13.989   0.833  0.00  0.00    +0.127 C 
BRANCH  21  22
ATOM     22  C   LIG    1       -5.829 -13.655  -0.632  0.00  0.00    +0.213 C 
ATOM     23  O   LIG    1       -6.763 -14.054  -1.327  0.00  0.00    -0.276 OA
ATOM     24  N   LIG    1       -4.769 -13.033  -1.216  0.00  0.00    -0.329 N 
ATOM     25  H   LIG    1       -4.857 -12.848  -2.207  0.00  0.00    +0.145 HD
ATOM     26  H   LIG    1       -4.028 -12.579  -0.705  0.00  0.00    +0.145 HD
ENDBRANCH  21  22
ENDBRANCH   6  21
ENDBRANCH   4   6
ENDBRANCH   1   2
BRANCH   1  27
ATOM     27  C   LIG    1       -7.167  -8.393   3.480  0.00  0.00    +0.149 C 
BRANCH  27  28
ATOM     28  O   LIG    1       -6.793  -8.631   4.846  0.00  0.00    -0.389 OA
ATOM     29  H   LIG    1       -7.609  -8.679   5.376  0.00  0.00    +0.210 HD
ENDBRANCH  27  28
BRANCH  27  30
ATOM     30  C   LIG    1       -5.968  -7.717   2.711  0.00  0.00    +0.118 C 
BRANCH  30  32
ATOM     31  C   LIG    1       -4.177  -5.961   2.554  0.00  0.00    +0.143 C 
ATOM     32  N   LIG    1       -5.518  -6.343   3.116  0.00  0.00    -0.289 NA
ATOM     33  C   LIG    1       -6.465  -5.237   2.882  0.00  0.00    +0.089 C 
ATOM     34  C   LIG    1       -6.744  -4.903   1.394  0.00  0.00    +0.006 C 
ATOM     35  C   LIG    1       -5.614  -5.374   0.455  0.00  0.00    -0.005 C 
ATOM     36  C   LIG    1       -5.645  -4.653  -0.898  0.00  0.00    +0.004 C 
ATOM     37  C   LIG    1       -5.546  -3.135  -0.803  0.00  0.00    +0.000 C 
ATOM     38  C   LIG    1       -6.013  -2.580   0.541  0.00  0.00    +0.000 C 
ATOM     39  C   LIG    1       -7.128  -3.418   1.168  0.00  0.00    +0.005 C 
ATOM     40  C   LIG    1       -4.228  -5.341   1.130  0.00  0.00    +0.032 C 
BRANCH  31  43
ATOM     41  N   LIG    1       -2.078  -4.734   3.236  0.00  0.00    -0.309 N 
ATOM     42  H   LIG    1       -1.634  -5.344   2.563  0.00  0.00    +0.149 HD
ATOM     43  C   LIG    1       -3.414  -4.992   3.552  0.00  0.00    +0.231 C 
ATOM     44  O   LIG    1       -3.945  -4.487   4.540  0.00  0.00    -0.274 OA
BRANCH  41  46
ATOM     45  C   LIG    1        0.207  -3.792   3.401  0.00  0.00    +0.031 C 
ATOM     46  C   LIG    1       -1.195  -3.854   4.047  0.00  0.00    +0.026 C 
ATOM     47  C   LIG    1       -1.734  -2.409   4.109  0.00  0.00    +0.031 C 
ATOM     48  C   LIG    1       -1.017  -4.404   5.474  0.00  0.00    +0.031 C 
ENDBRANCH  41  46
ENDBRANCH  31  43
ENDBRANCH  30  32
ENDBRANCH  27  30
ENDBRANCH   1  27
BRANCH   1  49
ATOM     49  C   LIG    1       -9.043 -10.188   3.559  0.00  0.00    +0.060 C 
BRANCH  49  50
ATOM     50  C   LIG    1       -9.873 -11.360   3.045  0.00  0.00    -0.045 A 
ATOM     51  C   LIG    1      -10.143 -11.567   1.687  0.00  0.00    +0.003 A 
ATOM     52  C   LIG    1      -10.893 -12.675   1.260  0.00  0.00    +0.000 A 
ATOM     53  C   LIG    1      -11.421 -13.572   2.185  0.00  0.00    +0.000 A 
ATOM     54  C   LIG    1      -11.239 -13.335   3.542  0.00  0.00    +0.000 A 
ATOM     55  C   LIG    1      -10.486 -12.232   3.967  0.00  0.00    +0.003 A 
ENDBRANCH  49  50
ENDBRANCH   1  49
TORSDOF 14
