REMARK  Name = *****
REMARK                            x       y       z     vdW  Elec       q    Type
REMARK                         _______ _______ _______ _____ _____    ______ ____
ROOT
ATOM      1  C   LIG    1        2.945   0.015   1.279  0.00  0.00    +0.223 A 
ATOM      2  N   LIG    1        3.009   1.277   1.691  0.00  0.00    -0.181 NA
ATOM      3  C   LIG    1        3.723   1.532   2.776  0.00  0.00    +0.223 A 
ATOM      4  N   LIG    1        4.390   0.591   3.426  0.00  0.00    -0.181 NA
ATOM      5  C   LIG    1        4.332  -0.647   2.946  0.00  0.00    +0.223 A 
ATOM      6  N   LIG    1        3.604  -0.970   1.881  0.00  0.00    -0.181 NA
ENDROOT
BRANCH   1   8
ATOM      7  C   LIG    1        1.686  -1.647   0.097  0.00  0.00    +0.132 C 
ATOM      8  N   LIG    1        2.155  -0.272   0.157  0.00  0.00    -0.306 N 
ATOM      9  C   LIG    1        1.177   0.761  -0.153  0.00  0.00    +0.132 C 
ENDBRANCH   1   8
BRANCH   3  10
ATOM     10  N   LIG    1        3.785   2.850   3.248  0.00  0.00    -0.306 N 
ATOM     11  C   LIG    1        2.800   3.742   2.660  0.00  0.00    +0.132 C 
ATOM     12  C   LIG    1        3.977   2.947   4.689  0.00  0.00    +0.132 C 
ENDBRANCH   3  10
BRANCH   5  13
ATOM     13  N   LIG    1        5.037  -1.651   3.625  0.00  0.00    -0.306 N 
ATOM     14  C   LIG    1        6.092  -1.140   4.489  0.00  0.00    +0.132 C 
ATOM     15  C   LIG    1        5.375  -2.804   2.805  0.00  0.00    +0.132 C 
ENDBRANCH   5  13
TORSDOF 3
