REMARK  Name = *****
REMARK                            x       y       z     vdW  Elec       q    Type
REMARK                         _______ _______ _______ _____ _____    ______ ____
ROOT
ATOM      1  C   LIG    1       11.882   1.230  -1.595  0.00  0.00    +0.163 C 
ENDROOT
BRANCH   1   3
ATOM      2  C   LIG    1       12.573   3.261  -2.919  0.00  0.00    +0.233 C 
ATOM      3  N   LIG    1       12.891   2.190  -2.104  0.00  0.00    -0.302 N 
ATOM      4  H   LIG    1       13.873   2.032  -1.904  0.00  0.00    +0.149 HD
ATOM      5  O   LIG    1       11.405   3.532  -3.195  0.00  0.00    -0.274 OA
BRANCH   2   7
ATOM      6  C   LIG    1       13.327   5.260  -4.342  0.00  0.00    +0.037 C 
ATOM      7  C   LIG    1       13.793   4.058  -3.503  0.00  0.00    +0.088 C 
ATOM      8  C   LIG    1       14.649   3.138  -4.383  0.00  0.00    +0.037 C 
BRANCH   7   9
ATOM      9  N   LIG    1       14.634   4.550  -2.387  0.00  0.00    -0.318 NA
ATOM     10  H   LIG    1       14.104   5.261  -1.877  0.00  0.00    +0.119 HD
ATOM     11  H   LIG    1       15.431   5.058  -2.778  0.00  0.00    +0.119 HD
ENDBRANCH   7   9
ENDBRANCH   2   7
ENDBRANCH   1   3
BRANCH   1  12
ATOM     12  C   LIG    1       11.698   0.089  -2.630  0.00  0.00    +0.235 C 
ATOM     13  N   LIG    1       11.373   0.503  -3.908  0.00  0.00    -0.295 N 
ATOM     14  H   LIG    1       10.864   1.381  -3.970  0.00  0.00    +0.150 HD
ATOM     15  O   LIG    1       11.789  -1.106  -2.357  0.00  0.00    -0.274 OA
BRANCH  13  16
ATOM     16  C   LIG    1       11.156  -0.484  -4.944  0.00  0.00    +0.164 C 
BRANCH  16  17
ATOM     17  N   LIG    1       10.290   0.115  -5.918  0.00  0.00    -0.299 N 
ATOM     18  H   LIG    1       10.449   1.060  -6.257  0.00  0.00    +0.150 HD
ATOM     19  C   LIG    1        9.316  -0.603  -6.521  0.00  0.00    +0.327 C 
ATOM     20  O   LIG    1        8.552  -0.112  -7.365  0.00  0.00    -0.280 OA
ENDBRANCH  16  17
BRANCH  16  21
ATOM     21  C   LIG    1       12.486  -1.009  -5.561  0.00  0.00    +0.079 C 
BRANCH  21  22
ATOM     22  C   LIG    1       12.323  -2.091  -6.609  0.00  0.00    -0.019 C 
ATOM     23  C   LIG    1       11.738  -3.402  -6.479  0.00  0.00    +0.003 C 
ATOM     24  C   LIG    1       11.617  -3.933  -7.766  0.00  0.00    +0.047 C 
ATOM     25  C   LIG    1       10.931  -5.124  -8.044  0.00  0.00    +0.026 C 
ATOM     26  C   LIG    1       10.312  -5.778  -6.978  0.00  0.00    +0.002 C 
ATOM     27  C   LIG    1       10.482  -5.321  -5.674  0.00  0.00    +0.001 C 
ATOM     28  N   LIG    1       12.281  -3.082  -8.615  0.00  0.00    -0.360 NA
ATOM     29  H   LIG    1       12.401  -3.240  -9.606  0.00  0.00    +0.165 HD
ATOM     30  C   LIG    1       11.243  -4.172  -5.405  0.00  0.00    +0.010 C 
ATOM     31  C   LIG    1       12.691  -1.966  -7.937  0.00  0.00    +0.087 C 
ENDBRANCH  21  22
ENDBRANCH  16  21
ENDBRANCH  13  16
ENDBRANCH   1  12
BRANCH   1  32
ATOM     32  C   LIG    1       12.286   0.656  -0.220  0.00  0.00    +0.069 C 
BRANCH  32  33
ATOM     33  C   LIG    1       11.210  -0.118   0.505  0.00  0.00    -0.020 C 
ATOM     34  C   LIG    1        9.927   0.366   0.927  0.00  0.00    +0.003 C 
ATOM     35  C   LIG    1        9.270  -0.676   1.584  0.00  0.00    +0.047 C 
ATOM     36  C   LIG    1        7.987  -0.543   2.130  0.00  0.00    +0.026 C 
ATOM     37  C   LIG    1        7.349   0.692   1.991  0.00  0.00    +0.002 C 
ATOM     38  C   LIG    1        7.971   1.748   1.331  0.00  0.00    +0.001 C 
ATOM     39  N   LIG    1       10.111  -1.762   1.556  0.00  0.00    -0.360 NA
ATOM     40  H   LIG    1        9.887  -2.668   1.945  0.00  0.00    +0.165 HD
ATOM     41  C   LIG    1        9.258   1.600   0.802  0.00  0.00    +0.010 C 
ATOM     42  C   LIG    1       11.276  -1.440   0.912  0.00  0.00    +0.087 C 
ENDBRANCH  32  33
ENDBRANCH   1  32
TORSDOF 10
