REMARK  Name = *****
REMARK                            x       y       z     vdW  Elec       q    Type
REMARK                         _______ _______ _______ _____ _____    ______ ____
ROOT
ATOM      1  C   LIG    1        3.038  -0.751  -1.015  0.00  0.00    -0.033 A 
ATOM      2  C   LIG    1        3.015  -2.149  -0.851  0.00  0.00    +0.016 A 
ATOM      3  C   LIG    1        3.439  -3.002  -1.882  0.00  0.00    +0.022 A 
ATOM      4  C   LIG    1        3.936  -2.455  -3.070  0.00  0.00    +0.012 A 
ATOM      5  C   LIG    1        3.983  -1.073  -3.236  0.00  0.00    +0.001 A 
ATOM      6  C   LIG    1        3.542  -0.230  -2.216  0.00  0.00    +0.004 A 
ENDROOT
BRANCH   1   8
ATOM      7  C   LIG    1        1.842   1.410  -0.421  0.00  0.00    +0.024 C 
ATOM      8  C   LIG    1        2.552   0.157   0.111  0.00  0.00    +0.124 C 
BRANCH   8   9
ATOM      9  C   LIG    1        3.615   0.594   1.119  0.00  0.00    +0.312 C 
ATOM     10  O   LIG    1        3.366   1.338   2.055  0.00  0.00    -0.250 OA
BRANCH   9  11
ATOM     11  O   LIG    1        4.862   0.105   0.938  0.00  0.00    -0.480 OA
ATOM     12  H   LIG    1        4.985  -0.483   0.170  0.00  0.00    +0.295 HD
ENDBRANCH   9  11
ENDBRANCH   8   9
ENDBRANCH   1   8
BRANCH   3  13
ATOM     13  C   LIG    1        3.428  -4.484  -1.734  0.00  0.00    +0.193 C 
ATOM     14  O   LIG    1        4.293  -5.143  -2.303  0.00  0.00    -0.287 OA
BRANCH  13  15
ATOM     15  C   LIG    1        2.411  -5.180  -0.899  0.00  0.00    +0.022 A 
ATOM     16  C   LIG    1        2.771  -6.374  -0.262  0.00  0.00    +0.012 A 
ATOM     17  C   LIG    1        1.848  -7.044   0.544  0.00  0.00    +0.001 A 
ATOM     18  C   LIG    1        0.563  -6.527   0.712  0.00  0.00    +0.000 A 
ATOM     19  C   LIG    1        0.192  -5.352   0.060  0.00  0.00    +0.001 A 
ATOM     20  C   LIG    1        1.108  -4.687  -0.757  0.00  0.00    +0.012 A 
ENDBRANCH  13  15
ENDBRANCH   3  13
TORSDOF 5
