REMARK  Name = *****
REMARK                            x       y       z     vdW  Elec       q    Type
REMARK                         _______ _______ _______ _____ _____    ______ ____
ROOT
ATOM      1  C   LIG    1        8.441   1.431  -0.919  0.00  0.00    +0.159 C 
ENDROOT
BRANCH   1   2
ATOM      2  C   LIG    1        7.841   0.253  -0.159  0.00  0.00    -0.031 A 
ATOM      3  C   LIG    1        7.365  -0.864  -0.866  0.00  0.00    +0.004 A 
ATOM      4  C   LIG    1        6.760  -1.931  -0.198  0.00  0.00    +0.000 A 
ATOM      5  C   LIG    1        6.617  -1.897   1.186  0.00  0.00    +0.000 A 
ATOM      6  C   LIG    1        7.094  -0.804   1.904  0.00  0.00    +0.000 A 
ATOM      7  C   LIG    1        7.712   0.258   1.240  0.00  0.00    +0.004 A 
ENDBRANCH   1   2
BRANCH   1   8
ATOM      8  C   LIG    1        9.986   1.385  -1.115  0.00  0.00    +0.083 C 
ATOM      9  C   LIG    1       10.458   0.153  -1.909  0.00  0.00    +0.036 C 
ATOM     10  C   LIG    1       11.745   0.608  -2.582  0.00  0.00    +0.003 C 
ATOM     11  C   LIG    1       11.409   2.013  -3.040  0.00  0.00    +0.003 C 
ATOM     12  C   LIG    1       10.527   2.589  -1.934  0.00  0.00    +0.036 C 
BRANCH   8  13
ATOM     13  O   LIG    1       10.676   1.368   0.143  0.00  0.00    -0.387 OA
ATOM     14  H   LIG    1       10.404   2.167   0.637  0.00  0.00    +0.210 HD
ENDBRANCH   8  13
ENDBRANCH   1   8
BRANCH   1  15
ATOM     15  C   LIG    1        8.026   2.768  -0.310  0.00  0.00    +0.317 C 
ATOM     16  O   LIG    1        8.732   3.441   0.432  0.00  0.00    -0.250 OA
BRANCH  15  17
ATOM     17  O   LIG    1        6.777   3.116  -0.729  0.00  0.00    -0.463 OA
BRANCH  17  18
ATOM     18  C   LIG    1        6.298   4.392  -0.282  0.00  0.00    +0.247 C 
BRANCH  18  19
ATOM     19  C   LIG    1        5.769   4.369   1.165  0.00  0.00    +0.125 C 
BRANCH  19  21
ATOM     20  C   LIG    1        4.303   3.479   2.855  0.00  0.00    +0.104 C 
ATOM     21  N   LIG    1        4.692   3.396   1.444  0.00  0.00    -0.305 NA
ATOM     22  C   LIG    1        3.522   3.595   0.591  0.00  0.00    +0.104 C 
ENDBRANCH  19  21
ENDBRANCH  18  19
ENDBRANCH  17  18
ENDBRANCH  15  17
ENDBRANCH   1  15
TORSDOF 8
