REMARK  Name = *****
REMARK                            x       y       z     vdW  Elec       q    Type
REMARK                         _______ _______ _______ _____ _____    ______ ____
ROOT
ATOM      1  C   LIG    1       18.759 -10.662   6.345  0.00  0.00    +0.240 C 
ENDROOT
BRANCH   1   2
ATOM      2  O   LIG    1       19.788 -11.472   7.166  0.00  0.00    -0.456 OA
BRANCH   2   3
ATOM      3  C   LIG    1       19.688 -12.002   8.474  0.00  0.00    +0.307 C 
ATOM      4  O   LIG    1       18.756 -12.432   8.879  0.00  0.00    -0.251 OA
BRANCH   3   5
ATOM      5  C   LIG    1       21.004 -11.892   9.231  0.00  0.00    +0.120 C 
BRANCH   5   6
ATOM      6  C   LIG    1       21.328 -10.611  10.037  0.00  0.00    +0.011 C 
BRANCH   6   7
ATOM      7  C   LIG    1       21.790  -9.294   9.365  0.00  0.00    +0.000 C 
BRANCH   7   8
ATOM      8  C   LIG    1       20.805  -8.473   8.606  0.00  0.00    +0.000 C 
BRANCH   8   9
ATOM      9  C   LIG    1       20.283  -9.235   7.467  0.00  0.00    -0.000 C 
BRANCH   9  10
ATOM     10  C   LIG    1       21.304 -10.214   6.303  0.00  0.00    -0.000 C 
BRANCH  10  11
ATOM     11  C   LIG    1       20.638 -11.470   5.081  0.00  0.00    -0.000 C 
BRANCH  11  12
ATOM     12  C   LIG    1       19.094 -11.324   4.171  0.00  0.00    -0.000 C 
BRANCH  12  13
ATOM     13  C   LIG    1       17.516 -10.283   4.312  0.00  0.00    -0.000 C 
BRANCH  13  14
ATOM     14  C   LIG    1       16.630  -9.199   3.631  0.00  0.00    -0.000 C 
BRANCH  14  15
ATOM     15  C   LIG    1       16.973  -7.683   3.488  0.00  0.00    -0.000 C 
BRANCH  15  16
ATOM     16  C   LIG    1       18.048  -7.266   2.526  0.00  0.00    -0.003 C 
ATOM     17  C   LIG    1       19.608  -7.155   2.730  0.00  0.00    +0.004 C 
ENDBRANCH  15  16
ENDBRANCH  14  15
ENDBRANCH  13  14
ENDBRANCH  12  13
ENDBRANCH  11  12
ENDBRANCH  10  11
ENDBRANCH   9  10
ENDBRANCH   8   9
ENDBRANCH   7   8
ENDBRANCH   6   7
ENDBRANCH   5   6
ENDBRANCH   3   5
ENDBRANCH   2   3
ENDBRANCH   1   2
BRANCH   1  18
ATOM     18  C   LIG    1       19.415  -9.203   5.093  0.00  0.00    +0.279 C 
BRANCH  18  19
ATOM     19  O   LIG    1       19.193  -9.341   3.303  0.00  0.00    -0.461 OA
BRANCH  19  20
ATOM     20  C   LIG    1       19.733 -10.046   2.139  0.00  0.00    +0.307 C 
ATOM     21  O   LIG    1       20.747 -11.024   2.191  0.00  0.00    -0.251 OA
BRANCH  20  22
ATOM     22  C   LIG    1       19.046  -9.986   0.945  0.00  0.00    +0.120 C 
BRANCH  22  23
ATOM     23  C   LIG    1       19.343  -8.651   0.250  0.00  0.00    +0.011 C 
BRANCH  23  24
ATOM     24  C   LIG    1       18.523  -8.361  -0.929  0.00  0.00    +0.000 C 
BRANCH  24  25
ATOM     25  C   LIG    1       18.330  -6.810  -1.167  0.00  0.00    +0.000 C 
BRANCH  25  26
ATOM     26  C   LIG    1       17.446  -5.932  -0.216  0.00  0.00    -0.000 C 
BRANCH  26  27
ATOM     27  C   LIG    1       17.279  -4.455  -0.390  0.00  0.00    -0.000 C 
BRANCH  27  28
ATOM     28  C   LIG    1       16.130  -3.943   0.531  0.00  0.00    -0.000 C 
BRANCH  28  29
ATOM     29  C   LIG    1       14.664  -4.415   0.269  0.00  0.00    -0.000 C 
BRANCH  29  30
ATOM     30  C   LIG    1       14.150  -5.863   0.585  0.00  0.00    -0.000 C 
BRANCH  30  31
ATOM     31  C   LIG    1       14.189  -7.051  -0.449  0.00  0.00    -0.000 C 
BRANCH  31  32
ATOM     32  C   LIG    1       15.461  -7.854  -0.687  0.00  0.00    -0.000 C 
BRANCH  32  34
ATOM     33  C   LIG    1       14.716 -10.107  -1.342  0.00  0.00    +0.004 C 
ATOM     34  C   LIG    1       15.557  -8.953  -1.721  0.00  0.00    -0.003 C 
ENDBRANCH  32  34
ENDBRANCH  31  32
ENDBRANCH  30  31
ENDBRANCH  29  30
ENDBRANCH  28  29
ENDBRANCH  27  28
ENDBRANCH  26  27
ENDBRANCH  25  26
ENDBRANCH  24  25
ENDBRANCH  23  24
ENDBRANCH  22  23
ENDBRANCH  20  22
ENDBRANCH  19  20
ENDBRANCH  18  19
ENDBRANCH   1  18
BRANCH   1  35
ATOM     35  C   LIG    1       17.406 -10.623   6.969  0.00  0.00    +0.220 C 
BRANCH  35  36
ATOM     36  O   LIG    1       17.044  -9.350   7.336  0.00  0.00    -0.283 OA
BRANCH  36  37
ATOM     37  P   LIG    1       15.476  -9.050   7.456  0.00  0.00    +0.475 P 
ATOM     38  O   LIG    1       15.199  -7.593   7.317  0.00  0.00    -0.227 OA
BRANCH  37  39
ATOM     39  O   LIG    1       14.713 -10.047   6.455  0.00  0.00    -0.302 OA
ATOM     40  H   LIG    1       15.061 -10.145   5.541  0.00  0.00    +0.222 HD
ENDBRANCH  37  39
BRANCH  37  41
ATOM     41  O   LIG    1       15.252  -9.766   8.854  0.00  0.00    -0.281 OA
BRANCH  41  42
ATOM     42  C   LIG    1       14.662 -11.022   9.162  0.00  0.00    +0.223 C 
BRANCH  42  43
ATOM     43  C   LIG    1       14.910 -12.382   8.427  0.00  0.00    +0.161 C 
BRANCH  43  44
ATOM     44  N   LIG    1       14.096 -13.640   9.020  0.00  0.00    +0.238 N 
ATOM     45  C   LIG    1       12.624 -13.539   8.666  0.00  0.00    +0.192 C 
ATOM     46  C   LIG    1       14.139 -13.812  10.552  0.00  0.00    +0.192 C 
ATOM     47  C   LIG    1       14.625 -14.917   8.325  0.00  0.00    +0.192 C 
ENDBRANCH  43  44
ENDBRANCH  42  43
ENDBRANCH  41  42
ENDBRANCH  37  41
ENDBRANCH  36  37
ENDBRANCH  35  36
ENDBRANCH   1  35
TORSDOF 37
