REMARK  Name = *****
REMARK                            x       y       z     vdW  Elec       q    Type
REMARK                         _______ _______ _______ _____ _____    ______ ____
ROOT
ATOM      1  C   LIG    1        6.079  -2.722   1.099  0.00  0.00    +0.130 A 
ATOM      2  C   LIG    1        4.834  -3.448   1.162  0.00  0.00    +0.040 A 
ATOM      3  C   LIG    1        4.891  -4.851   1.290  0.00  0.00    +0.138 A 
ATOM      4  C   LIG    1        6.100  -5.479   1.259  0.00  0.00    +0.107 A 
ATOM      5  C   LIG    1        6.330  -6.923   1.250  0.00  0.00    +0.344 C 
ATOM      6  O   LIG    1        7.681  -7.092   1.170  0.00  0.00    -0.456 OA
ATOM      7  C   LIG    1        8.373  -5.819   1.125  0.00  0.00    +0.269 C 
ATOM      8  O   LIG    1        5.478  -7.764   1.295  0.00  0.00    -0.245 OA
ATOM      9  C   LIG    1        7.286  -4.810   1.188  0.00  0.00    +0.014 A 
ATOM     10  C   LIG    1        7.325  -3.414   1.138  0.00  0.00    -0.001 A 
ATOM     11  C   LIG    1        8.684  -2.785   1.053  0.00  0.00    +0.048 C 
ENDROOT
BRANCH   1  13
ATOM     12  C   LIG    1        6.767  -0.379   1.353  0.00  0.00    +0.277 C 
ATOM     13  O   LIG    1        5.927  -1.388   0.818  0.00  0.00    -0.494 OA
ENDBRANCH   1  13
BRANCH   3  14
ATOM     14  O   LIG    1        3.773  -5.609   1.424  0.00  0.00    -0.505 OA
ATOM     15  H   LIG    1        3.993  -6.565   1.422  0.00  0.00    +0.292 HD
ENDBRANCH   3  14
BRANCH   2  16
ATOM     16  C   LIG    1        3.479  -2.740   1.084  0.00  0.00    +0.069 C 
BRANCH  16  17
ATOM     17  C   LIG    1        2.655  -3.083  -0.135  0.00  0.00    -0.023 C 
ATOM     18  C   LIG    1        1.726  -4.037  -0.360  0.00  0.00    -0.076 C 
ATOM     19  C   LIG    1        1.257  -4.994   0.709  0.00  0.00    +0.038 C 
BRANCH  18  20
ATOM     20  C   LIG    1        1.048  -4.259  -1.710  0.00  0.00    +0.041 C 
BRANCH  20  21
ATOM     21  C   LIG    1        1.784  -3.880  -3.003  0.00  0.00    +0.125 C 
BRANCH  21  22
ATOM     22  C   LIG    1        2.062  -2.410  -3.223  0.00  0.00    +0.305 C 
ATOM     23  O   LIG    1        3.128  -1.865  -2.973  0.00  0.00    -0.251 OA
BRANCH  22  24
ATOM     24  O   LIG    1        1.042  -1.721  -3.775  0.00  0.00    -0.481 OA
ATOM     25  H   LIG    1        0.255  -2.254  -3.982  0.00  0.00    +0.295 HD
ENDBRANCH  22  24
ENDBRANCH  21  22
ENDBRANCH  20  21
ENDBRANCH  18  20
ENDBRANCH  16  17
ENDBRANCH   2  16
TORSDOF 8
