REMARK  Name = *****
REMARK                            x       y       z     vdW  Elec       q    Type
REMARK                         _______ _______ _______ _____ _____    ______ ____
ROOT
ATOM      1  N   UNK A  0        9.554   2.436  -0.047  0.00  0.00    -0.342 N 
ATOM      2  H   UNK A  0        9.117   1.663  -0.550  0.00  0.00    +0.146 HD
ENDROOT
BRANCH   1   3
ATOM      3  C   UNK A  0       10.886   2.542  -0.472  0.00  0.00    +0.027 A 
ATOM      4  C   UNK A  0       11.724   1.413  -0.472  0.00  0.00    +0.024 A 
ATOM      5  C   UNK A  0       13.060   1.505  -0.904  0.00  0.00    +0.015 A 
ATOM      6  C   UNK A  0       13.572   2.741  -1.321  0.00  0.00    +0.037 A 
ATOM      7  C   UNK A  0       12.759   3.864  -1.252  0.00  0.00    +0.015 A 
ATOM      8  C   UNK A  0       11.443   3.759  -0.847  0.00  0.00    +0.024 A 
BRANCH   6   9
ATOM      9  C   UNK A  0       14.971   2.849  -1.816  0.00  0.00    +0.245 C 
ATOM     10  N   GLU A  1       15.424   4.129  -2.088  0.00  0.00    -0.298 N 
ATOM     11  H   GLU A  1       14.758   4.872  -2.187  0.00  0.00    +0.150 HD
ATOM     12  O   UNK A  0       15.674   1.866  -1.945  0.00  0.00    -0.270 OA
BRANCH  10  13
ATOM     13  CA  GLU A  1       16.767   4.458  -2.552  0.00  0.00    +0.182 C 
BRANCH  13  14
ATOM     14  C   GLU A  1       17.848   4.020  -1.536  0.00  0.00    +0.325 C 
ATOM     15  O   GLU A  1       18.630   4.777  -0.988  0.00  0.00    -0.249 OA
BRANCH  14  16
ATOM     16  OXT GLU A  1       17.915   2.685  -1.331  0.00  0.00    -0.479 OA
ATOM     17  HXT GLU A  1       17.186   2.180  -1.776  0.00  0.00    +0.295 HD
ENDBRANCH  14  16
ENDBRANCH  13  14
BRANCH  13  18
ATOM     18  CB  GLU A  1       16.867   5.976  -2.870  0.00  0.00    +0.045 C 
BRANCH  18  19
ATOM     19  CG  GLU A  1       16.613   6.905  -1.670  0.00  0.00    +0.123 C 
BRANCH  19  20
ATOM     20  CD  GLU A  1       16.753   8.360  -2.039  0.00  0.00    +0.305 C 
ATOM     21  OE1 GLU A  1       16.365   8.892  -3.060  0.00  0.00    -0.251 OA
BRANCH  20  22
ATOM     22  OE2 GLU A  1       17.333   9.085  -1.060  0.00  0.00    -0.481 OA
ATOM     23  HE2 GLU A  1       17.362   9.999  -1.412  0.00  0.00    +0.295 HD
ENDBRANCH  20  22
ENDBRANCH  19  20
ENDBRANCH  18  19
ENDBRANCH  13  18
ENDBRANCH  10  13
ENDBRANCH   6   9
ENDBRANCH   1   3
BRANCH   1  24
ATOM     24  C   UNK A  0        8.714   3.658  -0.024  0.00  0.00    +0.126 C 
BRANCH  24  32
ATOM     25  C   UNK A  0        2.669   4.364   0.778  0.00  0.00    +0.195 C 
ATOM     26  N   UNK A  0        3.168   5.605   0.574  0.00  0.00    -0.294 N 
ATOM     27  H   UNK A  0        2.553   6.378   0.379  0.00  0.00    +0.172 HD
ATOM     28  C   UNK A  0        4.491   5.899   0.723  0.00  0.00    +0.276 C 
ATOM     29  O   UNK A  0        4.887   7.049   0.555  0.00  0.00    -0.266 OA
ATOM     30  C   UNK A  0        5.388   4.738   1.036  0.00  0.00    +0.142 C 
ATOM     31  N   UNK A  0        6.788   4.855   1.124  0.00  0.00    -0.261 N 
ATOM     32  C   UNK A  0        7.629   3.611   1.080  0.00  0.00    +0.115 C 
ATOM     33  C   UNK A  0        6.824   2.311   0.905  0.00  0.00    +0.127 C 
ATOM     34  N   UNK A  0        5.517   2.429   1.520  0.00  0.00    -0.326 N 
ATOM     35  H   UNK A  0        4.931   1.601   1.446  0.00  0.00    +0.148 HD
ATOM     36  C   UNK A  0        7.415   6.038   1.503  0.00  0.00    +0.333 C 
ATOM     37  O   UNK A  0        8.623   6.184   1.665  0.00  0.00    -0.279 OA
ATOM     38  C   UNK A  0        4.761   3.548   1.216  0.00  0.00    +0.149 C 
ATOM     39  N   UNK A  0        3.410   3.361   1.101  0.00  0.00    -0.199 NA
BRANCH  25  40
ATOM     40  N   UNK A  0        1.335   4.202   0.614  0.00  0.00    -0.329 N 
ATOM     41  H   UNK A  0        0.910   4.712  -0.150  0.00  0.00    +0.145 HD
ATOM     42  H   UNK A  0        1.080   3.218   0.607  0.00  0.00    +0.145 HD
ENDBRANCH  25  40
ENDBRANCH  24  32
ENDBRANCH   1  24
TORSDOF 12
