REMARK  Name = *****
REMARK                            x       y       z     vdW  Elec       q    Type
REMARK                         _______ _______ _______ _____ _____    ______ ____
ROOT
ATOM      1  O   LIG    1       -7.012  -5.374   1.926  0.00  0.00    -0.461 OA
ENDROOT
BRANCH   1   2
ATOM      2  C   LIG    1       -7.750  -4.992   3.109  0.00  0.00    +0.187 C 
ATOM      3  C   LIG    1       -7.020  -5.628   4.311  0.00  0.00    +0.099 C 
ATOM      4  C   LIG    1       -7.505  -7.048   4.665  0.00  0.00    +0.070 C 
ATOM      5  N   LIG    1       -9.026  -7.030   4.921  0.00  0.00    +0.243 N 
ATOM      6  C   LIG    1       -9.493  -5.988   5.937  0.00  0.00    +0.192 C 
ATOM      7  C   LIG    1       -9.521  -8.379   5.492  0.00  0.00    +0.192 C 
ATOM      8  C   LIG    1       -9.525  -6.826   3.477  0.00  0.00    +0.070 C 
ATOM      9  C   LIG    1       -8.682  -7.833   2.675  0.00  0.00    +0.060 C 
ATOM     10  C   LIG    1       -7.378  -7.996   3.464  0.00  0.00    +0.060 C 
ATOM     11  C   LIG    1       -9.234  -5.391   3.015  0.00  0.00    +0.099 C 
ENDBRANCH   1   2
BRANCH   1  12
ATOM     12  C   LIG    1       -7.199  -4.611   0.802  0.00  0.00    +0.310 C 
ATOM     13  O   LIG    1       -8.081  -3.776   0.682  0.00  0.00    -0.251 OA
BRANCH  12  14
ATOM     14  C   LIG    1       -6.112  -4.915  -0.221  0.00  0.00    +0.098 C 
BRANCH  14  15
ATOM     15  C   LIG    1       -6.663  -4.864  -1.655  0.00  0.00    +0.014 C 
BRANCH  15  17
ATOM     16  C   LIG    1       -5.260  -6.760  -2.649  0.00  0.00    +0.004 C 
ATOM     17  C   LIG    1       -5.673  -5.298  -2.743  0.00  0.00    -0.003 C 
ENDBRANCH  15  17
ENDBRANCH  14  15
BRANCH  14  18
ATOM     18  C   LIG    1       -4.903  -4.001   0.052  0.00  0.00    +0.014 C 
BRANCH  18  19
ATOM     19  C   LIG    1       -5.070  -2.547  -0.405  0.00  0.00    -0.003 C 
ATOM     20  C   LIG    1       -3.841  -1.715  -0.065  0.00  0.00    +0.004 C 
ENDBRANCH  18  19
ENDBRANCH  14  18
ENDBRANCH  12  14
ENDBRANCH   1  12
TORSDOF 7
