REMARK  Name = *****
REMARK                            x       y       z     vdW  Elec       q    Type
REMARK                         _______ _______ _______ _____ _____    ______ ____
ROOT
ATOM      1  N   LIG    1        4.519   3.171   2.227  0.00  0.00    -0.298 N 
ATOM      2  C   LIG    1        4.701   3.776   3.502  0.00  0.00    +0.048 A 
ATOM      3  C   LIG    1        3.815   4.754   3.992  0.00  0.00    +0.034 A 
ATOM      4  C   LIG    1        4.025   5.339   5.253  0.00  0.00    +0.017 A 
ATOM      5  C   LIG    1        5.121   4.978   6.033  0.00  0.00    +0.001 A 
ATOM      6  C   LIG    1        6.018   4.033   5.556  0.00  0.00    +0.002 A 
ATOM      7  S   LIG    1        2.357   5.266   3.104  0.00  0.00    -0.086 S 
ATOM      8  C   LIG    1        2.715   4.678   1.461  0.00  0.00    +0.034 A 
ATOM      9  C   LIG    1        1.928   5.197   0.417  0.00  0.00    +0.017 A 
ATOM     10  C   LIG    1        2.137   4.796  -0.900  0.00  0.00    +0.001 A 
ATOM     11  C   LIG    1        3.142   3.885  -1.186  0.00  0.00    +0.002 A 
ATOM     12  C   LIG    1        3.922   3.360  -0.151  0.00  0.00    +0.024 A 
ATOM     13  C   LIG    1        5.812   3.445   4.304  0.00  0.00    +0.024 A 
ATOM     14  C   LIG    1        3.709   3.717   1.197  0.00  0.00    +0.048 A 
ENDROOT
BRANCH   1  15
ATOM     15  C   LIG    1        4.731   1.701   2.174  0.00  0.00    +0.116 C 
BRANCH  15  19
ATOM     16  C   LIG    1        2.630  -2.542   3.404  0.00  0.00    +0.105 C 
ATOM     17  N   LIG    1        2.789  -1.110   3.601  0.00  0.00    -0.305 NA
ATOM     18  C   LIG    1        4.013  -0.585   2.998  0.00  0.00    +0.089 C 
ATOM     19  C   LIG    1        3.766   0.917   3.073  0.00  0.00    +0.022 C 
ATOM     20  C   LIG    1        2.287   1.033   2.700  0.00  0.00    +0.021 C 
ATOM     21  C   LIG    1        1.687  -0.334   3.024  0.00  0.00    +0.084 C 
ENDBRANCH  15  19
ENDBRANCH   1  15
TORSDOF 2
