REMARK  Name = *****
REMARK                            x       y       z     vdW  Elec       q    Type
REMARK                         _______ _______ _______ _____ _____    ______ ____
ROOT
ATOM      1  C   LIG    1        2.953  -0.873   0.565  0.00  0.00    +0.084 C 
ATOM      2  C   LIG    1        2.074  -1.863   1.331  0.00  0.00    -0.027 A 
ATOM      3  C   LIG    1        2.264  -3.258   1.253  0.00  0.00    -0.035 A 
ATOM      4  C   LIG    1        1.418  -4.123   1.973  0.00  0.00    +0.004 A 
ATOM      5  C   LIG    1        0.376  -3.620   2.748  0.00  0.00    +0.000 A 
ATOM      6  C   LIG    1        0.159  -2.250   2.805  0.00  0.00    +0.000 A 
ATOM      7  C   LIG    1        3.384  -3.863   0.424  0.00  0.00    +0.049 C 
ATOM      8  C   LIG    1        3.773  -2.923  -0.727  0.00  0.00    +0.014 C 
ATOM      9  C   LIG    1        0.991  -1.381   2.096  0.00  0.00    +0.005 A 
ATOM     10  C   LIG    1        4.109  -1.527  -0.221  0.00  0.00    +0.024 C 
ENDROOT
BRANCH   7  11
ATOM     11  C   LIG    1        4.587  -4.307   1.255  0.00  0.00    -0.038 A 
ATOM     12  C   LIG    1        5.288  -5.471   0.898  0.00  0.00    +0.025 A 
ATOM     13  C   LIG    1        6.398  -5.898   1.641  0.00  0.00    +0.059 A 
ATOM     14 CL   LIG    1        7.194  -7.346   1.132  0.00  0.00    -0.082 Cl
ATOM     15  C   LIG    1        6.825  -5.161   2.749  0.00  0.00    +0.059 A 
ATOM     16 CL   LIG    1        8.185  -5.623   3.708  0.00  0.00    -0.082 Cl
ATOM     17  C   LIG    1        6.140  -4.001   3.111  0.00  0.00    +0.022 A 
ATOM     18  C   LIG    1        5.033  -3.579   2.370  0.00  0.00    +0.006 A 
ENDBRANCH   7  11
BRANCH   1  20
ATOM     19  C   LIG    1        3.999   1.327   0.763  0.00  0.00    +0.101 C 
ATOM     20  N   LIG    1        3.526   0.144   1.471  0.00  0.00    -0.312 NA
ATOM     21  H   LIG    1        2.825   0.435   2.148  0.00  0.00    +0.122 HD
ENDBRANCH   1  20
TORSDOF 2
