REMARK  Name = *****
REMARK                            x       y       z     vdW  Elec       q    Type
REMARK                         _______ _______ _______ _____ _____    ______ ____
ROOT
ATOM      1  C   UNK A  0        7.352  -4.464   1.829  0.00  0.00    +0.217 C 
ATOM      2  N   PHE A  1        7.763  -4.782   3.113  0.00  0.00    -0.302 N 
ATOM      3  H   PHE A  1        7.494  -4.164   3.870  0.00  0.00    +0.149 HD
ATOM      4  O   UNK A  0        7.505  -5.246   0.890  0.00  0.00    -0.276 OA
ENDROOT
BRANCH   1   8
ATOM      5  C   UNK A  0        8.223  -1.181  -0.070  0.00  0.00    -0.008 C 
ATOM      6  C   UNK A  0        8.672  -1.547   1.352  0.00  0.00    +0.004 C 
ATOM      7  C   UNK A  0        7.520  -1.944   2.260  0.00  0.00    +0.013 C 
ATOM      8  C   UNK A  0        6.674  -3.089   1.690  0.00  0.00    +0.075 C 
ATOM      9  C   UNK A  0        6.220  -2.774   0.255  0.00  0.00    +0.013 C 
ATOM     10  C   UNK A  0        7.329  -2.279  -0.670  0.00  0.00    +0.004 C 
BRANCH   5  12
ATOM     11  C   UNK A  0        9.070  -0.363  -2.353  0.00  0.00    +0.007 C 
ATOM     12  C   UNK A  0        9.463  -0.863  -0.959  0.00  0.00    -0.014 C 
ATOM     13  C   UNK A  0       10.414  -2.060  -1.096  0.00  0.00    +0.007 C 
ENDBRANCH   5  12
ENDBRANCH   1   8
BRANCH   2  14
ATOM     14  CA  PHE A  1        8.213  -6.153   3.476  0.00  0.00    +0.186 C 
BRANCH  14  15
ATOM     15  C   PHE A  1        9.739  -6.240   3.403  0.00  0.00    +0.326 C 
ATOM     16  O   PHE A  1       10.386  -7.273   3.606  0.00  0.00    -0.249 OA
BRANCH  15  17
ATOM     17  OXT PHE A  1       10.348  -5.060   3.145  0.00  0.00    -0.479 OA
ATOM     18  HXT PHE A  1        9.666  -4.381   2.962  0.00  0.00    +0.295 HD
ENDBRANCH  15  17
ENDBRANCH  14  15
BRANCH  14  19
ATOM     19  CB  PHE A  1        7.715  -6.595   4.873  0.00  0.00    +0.069 C 
BRANCH  19  20
ATOM     20  CG  PHE A  1        6.207  -6.512   4.980  0.00  0.00    -0.045 A 
ATOM     21  CD2 PHE A  1        5.410  -7.574   4.530  0.00  0.00    +0.003 A 
ATOM     22  CE2 PHE A  1        4.019  -7.454   4.509  0.00  0.00    +0.000 A 
ATOM     23  CZ  PHE A  1        3.412  -6.277   4.942  0.00  0.00    +0.000 A 
ATOM     24  CE1 PHE A  1        4.193  -5.226   5.416  0.00  0.00    +0.000 A 
ATOM     25  CD1 PHE A  1        5.583  -5.344   5.443  0.00  0.00    +0.003 A 
ENDBRANCH  19  20
ENDBRANCH  14  19
ENDBRANCH   2  14
TORSDOF 7
