REMARK  Name = *****
REMARK                            x       y       z     vdW  Elec       q    Type
REMARK                         _______ _______ _______ _____ _____    ______ ____
ROOT
ATOM      1  C   LIG    1        0.814  -0.140   0.102  0.00  0.00    +0.048 C 
ATOM      2  C   LIG    1        2.316  -0.070   0.059  0.00  0.00    -0.001 C 
ATOM      3  C   LIG    1        3.029   1.147  -0.023  0.00  0.00    +0.052 C 
ATOM      4  C   LIG    1        2.330   2.473  -0.052  0.00  0.00    +0.204 C 
ATOM      5  C   LIG    1        3.140   3.710  -0.116  0.00  0.00    +0.122 C 
ATOM      6  C   LIG    1        4.472   3.571  -0.147  0.00  0.00    +0.105 C 
ATOM      7  N   LIG    1        5.159   2.377  -0.097  0.00  0.00    -0.343 NA
ATOM      8  O   LIG    1        1.107   2.581  -0.035  0.00  0.00    -0.286 OA
ATOM      9  C   LIG    1        4.441   1.146  -0.076  0.00  0.00    +0.055 C 
ATOM     10  C   LIG    1        5.106  -0.092  -0.089  0.00  0.00    +0.052 C 
ATOM     11  C   LIG    1        4.439  -1.323   0.004  0.00  0.00    +0.068 C 
ATOM     12  C   LIG    1        3.040  -1.277   0.095  0.00  0.00    +0.148 C 
ATOM     13  F   LIG    1        2.349  -2.425   0.190  0.00  0.00    -0.203 F 
ENDROOT
BRANCH  11  14
ATOM     14  N   LIG    1        5.215  -2.488   0.040  0.00  0.00    -0.325 NA
ATOM     15  C   LIG    1        5.981  -2.767  -1.196  0.00  0.00    +0.123 C 
ATOM     16  C   LIG    1        7.104  -3.808  -0.918  0.00  0.00    +0.068 C 
ATOM     17  C   LIG    1        8.261  -3.172  -0.140  0.00  0.00    +0.025 C 
ATOM     18  N   LIG    1        6.624  -5.042  -0.248  0.00  0.00    -0.310 NA
ATOM     19  H   LIG    1        6.021  -5.537  -0.905  0.00  0.00    +0.122 HD
ATOM     20  C   LIG    1        5.804  -4.707   0.938  0.00  0.00    +0.100 C 
ATOM     21  C   LIG    1        4.657  -3.710   0.646  0.00  0.00    +0.120 C 
ENDBRANCH  11  14
BRANCH   7  22
ATOM     22  C   LIG    1        6.636   2.430  -0.102  0.00  0.00    +0.087 C 
ATOM     23  C   LIG    1        7.404   3.306   0.862  0.00  0.00    +0.027 C 
ATOM     24  C   LIG    1        7.460   1.821   1.008  0.00  0.00    +0.027 C 
ENDBRANCH   7  22
BRANCH   5  25
ATOM     25  C   LIG    1        2.569   5.074  -0.138  0.00  0.00    +0.342 C 
ATOM     26  O   LIG    1        3.250   6.090  -0.171  0.00  0.00    -0.245 OA
BRANCH  25  27
ATOM     27  O   LIG    1        1.218   5.116  -0.098  0.00  0.00    -0.477 OA
ATOM     28  H   LIG    1        0.790   4.225  -0.068  0.00  0.00    +0.295 HD
ENDBRANCH  25  27
ENDBRANCH   5  25
TORSDOF 4
