REMARK  Name = *****
REMARK                            x       y       z     vdW  Elec       q    Type
REMARK                         _______ _______ _______ _____ _____    ______ ____
ROOT
ATOM      1  C   LIG    1        3.006   0.817   1.327  0.00  0.00    +0.052 C 
ATOM      2  C   LIG    1        2.949   2.320   1.125  0.00  0.00    +0.226 C 
ATOM      3  O   LIG    1        3.454   2.942   0.205  0.00  0.00    -0.275 OA
ATOM      4  N   LIG    1        2.226   2.874   2.130  0.00  0.00    -0.256 N 
ATOM      5  H   LIG    1        2.038   3.862   2.192  0.00  0.00    +0.158 HD
ATOM      6  C   LIG    1        1.784   1.976   3.042  0.00  0.00    +0.220 C 
ATOM      7  O   LIG    1        1.112   2.242   4.023  0.00  0.00    -0.275 OA
ATOM      8  C   LIG    1        2.274   0.608   2.665  0.00  0.00    +0.112 C 
ATOM      9  C   LIG    1        4.475   0.392   1.444  0.00  0.00    +0.021 C 
ENDROOT
BRANCH   1  11
ATOM     10  C   LIG    1        0.894   0.470  -0.143  0.00  0.00    +0.005 C 
ATOM     11  C   LIG    1        2.342   0.084   0.142  0.00  0.00    +0.013 C 
ENDBRANCH   1  11
TORSDOF 1
