REMARK  Name = *****
REMARK                            x       y       z     vdW  Elec       q    Type
REMARK                         _______ _______ _______ _____ _____    ______ ____
ROOT
ATOM      1  C   LIG    1        0.582  -0.197   0.185  0.00  0.00    +0.155 C 
ATOM      2  N   LIG    1        2.007   0.031   0.052  0.00  0.00    -0.280 N 
ATOM      3  C   LIG    1        2.473   1.345  -0.028  0.00  0.00    +0.333 C 
ATOM      4  O   LIG    1        1.697   2.305  -0.007  0.00  0.00    -0.246 OA
ATOM      5  N   LIG    1        3.865   1.529  -0.139  0.00  0.00    -0.262 N 
ATOM      6  C   LIG    1        4.334   2.897  -0.219  0.00  0.00    +0.157 C 
ATOM      7  C   LIG    1        4.810   0.506  -0.261  0.00  0.00    +0.282 C 
ATOM      8  O   LIG    1        6.004   0.689  -0.485  0.00  0.00    -0.265 OA
ATOM      9  C   LIG    1        4.245  -0.790  -0.121  0.00  0.00    +0.152 A 
ATOM     10  N   LIG    1        4.807  -2.035  -0.095  0.00  0.00    -0.320 N 
ATOM     11  C   LIG    1        3.780  -2.934   0.043  0.00  0.00    +0.202 A 
ATOM     12  N   LIG    1        2.612  -2.331   0.123  0.00  0.00    -0.218 NA
ATOM     13  C   LIG    1        2.906  -1.006   0.025  0.00  0.00    +0.168 A 
ENDROOT
BRANCH  10  14
ATOM     14  C   LIG    1        6.214  -2.377  -0.137  0.00  0.00    +0.184 C 
BRANCH  14  15
ATOM     15  C   LIG    1        6.721  -2.648  -1.552  0.00  0.00    +0.270 C 
ATOM     16  O   LIG    1        8.139  -2.886  -1.504  0.00  0.00    -0.347 OA
ATOM     17  C   LIG    1        8.344  -4.012  -2.354  0.00  0.00    +0.191 C 
ATOM     18  C   LIG    1        7.082  -4.807  -2.174  0.00  0.00    +0.191 C 
ATOM     19  O   LIG    1        6.068  -3.806  -2.106  0.00  0.00    -0.347 OA
ENDBRANCH  14  15
ENDBRANCH  10  14
TORSDOF 2
