REMARK  Name = *****
REMARK                            x       y       z     vdW  Elec       q    Type
REMARK                         _______ _______ _______ _____ _____    ______ ____
ROOT
ATOM      1  C   LIG    1       14.252  -5.338  -1.570  0.00  0.00    +0.073 C 
ATOM      2  C   LIG    1       13.340  -5.589  -0.372  0.00  0.00    +0.166 C 
ATOM      3  O   LIG    1       12.520  -4.438  -0.145  0.00  0.00    -0.332 OA
ATOM      4  C   LIG    1       11.221  -4.735  -0.664  0.00  0.00    +0.164 C 
ATOM      5  C   LIG    1       11.178  -6.270  -0.742  0.00  0.00    +0.162 C 
ATOM      6  C   LIG    1       10.381  -6.766   0.481  0.00  0.00    +0.039 C 
ATOM      7  C   LIG    1       10.273  -5.532   1.376  0.00  0.00    +0.007 C 
ATOM      8  C   LIG    1        9.222  -5.528   2.495  0.00  0.00    +0.037 C 
ATOM      9  C   LIG    1        9.305  -4.197   3.299  0.00  0.00    +0.153 C 
ATOM     10  C   LIG    1        9.324  -2.954   2.346  0.00  0.00    +0.154 C 
ATOM     11  C   LIG    1       10.306  -3.078   1.162  0.00  0.00    +0.044 C 
ATOM     12  F   LIG    1       10.558  -4.202   3.894  0.00  0.00    -0.238 F 
ATOM     13  C   LIG    1        8.244  -4.142   4.487  0.00  0.00    +0.047 C 
ATOM     14  C   LIG    1        8.209  -5.470   5.300  0.00  0.00    -0.020 C 
ATOM     15  C   LIG    1        7.324  -5.573   6.322  0.00  0.00    +0.054 C 
ATOM     16  C   LIG    1        5.912  -5.261   5.879  0.00  0.00    +0.179 C 
ATOM     17  C   LIG    1        5.741  -4.425   4.656  0.00  0.00    +0.047 C 
ATOM     18  O   LIG    1        4.950  -5.604   6.555  0.00  0.00    -0.288 OA
ATOM     19  C   LIG    1        8.375  -6.753   4.508  0.00  0.00    +0.194 C 
ATOM     20  F   LIG    1        7.205  -7.056   3.869  0.00  0.00    -0.241 F 
ATOM     21  C   LIG    1        8.612  -2.979   5.450  0.00  0.00    +0.023 C 
ATOM     22  C   LIG    1        6.804  -3.890   4.028  0.00  0.00    -0.009 C 
ATOM     23  C   LIG    1        9.456  -6.706   3.448  0.00  0.00    +0.048 C 
ATOM     24  C   LIG    1       10.105  -4.374   0.366  0.00  0.00    +0.012 C 
ATOM     25  C   LIG    1        8.714  -4.357  -0.321  0.00  0.00    +0.015 C 
ATOM     26  O   LIG    1       12.527  -6.724  -0.650  0.00  0.00    -0.343 OA
ATOM     27  C   LIG    1       14.166  -5.856   0.879  0.00  0.00    +0.073 C 
ENDROOT
BRANCH  10  28
ATOM     28  O   LIG    1        9.698  -1.762   3.040  0.00  0.00    -0.389 OA
ATOM     29  H   LIG    1       10.546  -1.948   3.487  0.00  0.00    +0.210 HD
ENDBRANCH  10  28
BRANCH   4  30
ATOM     30  C   LIG    1       11.041  -4.072  -2.038  0.00  0.00    +0.193 C 
ATOM     31  O   LIG    1       10.415  -4.608  -2.959  0.00  0.00    -0.292 OA
BRANCH  30  32
ATOM     32  C   LIG    1       11.647  -2.688  -2.232  0.00  0.00    +0.233 C 
BRANCH  32  33
ATOM     33  O   LIG    1       11.128  -2.054  -3.394  0.00  0.00    -0.387 OA
ATOM     34  H   LIG    1       10.904  -2.771  -4.022  0.00  0.00    +0.210 HD
ENDBRANCH  32  33
ENDBRANCH  30  32
ENDBRANCH   4  30
TORSDOF 4
