REMARK  Name = *****
REMARK                            x       y       z     vdW  Elec       q    Type
REMARK                         _______ _______ _______ _____ _____    ______ ____
ROOT
ATOM      1  C   LIG    1        1.967   6.771   1.937  0.00  0.00    +0.164 A 
ATOM      2  C   LIG    1        2.195   5.404   2.037  0.00  0.00    +0.163 A 
ATOM      3  C   LIG    1        2.818   4.732   0.979  0.00  0.00    +0.062 A 
ATOM      4  C   LIG    1        3.130   5.380  -0.250  0.00  0.00    +0.044 A 
ATOM      5  C   LIG    1        2.787   6.717  -0.375  0.00  0.00    +0.080 A 
ATOM      6  N   LIG    1        3.033   7.443  -1.488  0.00  0.00    -0.235 NA
ATOM      7  C   LIG    1        3.710   6.829  -2.453  0.00  0.00    +0.224 A 
ATOM      8  N   LIG    1        4.165   5.573  -2.420  0.00  0.00    -0.220 NA
ATOM      9  C   LIG    1        3.855   4.824  -1.329  0.00  0.00    +0.134 A 
ATOM     10  C   LIG    1        2.224   7.405   0.707  0.00  0.00    +0.077 A 
ENDROOT
BRANCH   1  12
ATOM     11  C   LIG    1        1.592   8.810   3.178  0.00  0.00    +0.277 C 
ATOM     12  O   LIG    1        1.503   7.402   3.048  0.00  0.00    -0.491 OA
ENDBRANCH   1  12
BRANCH   9  13
ATOM     13  N   LIG    1        4.433   3.551  -1.398  0.00  0.00    -0.299 N 
ATOM     14  H   LIG    1        5.105   3.585  -2.162  0.00  0.00    +0.154 HD
BRANCH  13  15
ATOM     15  C   LIG    1        4.079   2.228  -1.058  0.00  0.00    +0.034 A 
ATOM     16  C   LIG    1        2.900   1.867  -0.408  0.00  0.00    +0.046 A 
ATOM     17  C   LIG    1        2.732   0.586   0.132  0.00  0.00    +0.078 A 
ATOM     18 CL   LIG    1        1.345   0.257   1.102  0.00  0.00    -0.081 Cl
ATOM     19  C   LIG    1        3.694  -0.392  -0.085  0.00  0.00    +0.142 A 
ATOM     20  F   LIG    1        3.545  -1.629   0.412  0.00  0.00    -0.204 F 
ATOM     21  C   LIG    1        4.815  -0.102  -0.848  0.00  0.00    +0.041 A 
ATOM     22  C   LIG    1        5.015   1.206  -1.307  0.00  0.00    +0.026 A 
ENDBRANCH  13  15
ENDBRANCH   9  13
BRANCH   2  23
ATOM     23  O   LIG    1        1.871   4.566   3.077  0.00  0.00    -0.488 OA
BRANCH  23  24
ATOM     24  C   LIG    1        2.054   5.057   4.396  0.00  0.00    +0.230 C 
BRANCH  24  25
ATOM     25  C   LIG    1        2.821   4.057   5.269  0.00  0.00    +0.056 C 
BRANCH  25  26
ATOM     26  C   LIG    1        4.291   3.735   4.883  0.00  0.00    +0.088 C 
BRANCH  26  27
ATOM     27  N   LIG    1        4.521   2.943   3.666  0.00  0.00    -0.298 NA
ATOM     28  C   LIG    1        5.954   2.647   3.403  0.00  0.00    +0.112 C 
ATOM     29  C   LIG    1        6.561   1.488   4.225  0.00  0.00    +0.175 C 
ATOM     30  O   LIG    1        5.774   0.296   4.126  0.00  0.00    -0.377 OA
ATOM     31  C   LIG    1        4.416   0.551   4.503  0.00  0.00    +0.175 C 
ATOM     32  C   LIG    1        3.796   1.659   3.639  0.00  0.00    +0.112 C 
ENDBRANCH  26  27
ENDBRANCH  25  26
ENDBRANCH  24  25
ENDBRANCH  23  24
ENDBRANCH   2  23
TORSDOF 8
