REMARK  Name = *****
REMARK                            x       y       z     vdW  Elec       q    Type
REMARK                         _______ _______ _______ _____ _____    ______ ____
ROOT
ATOM      1  C   LIG    1        6.241  -0.049   3.161  0.00  0.00    +0.160 C 
ENDROOT
BRANCH   1   2
ATOM      2  N   LIG    1        6.231   0.210   1.689  0.00  0.00    -0.302 N 
ATOM      3  H   LIG    1        7.053  -0.074   1.153  0.00  0.00    +0.149 HD
ATOM      4  C   LIG    1        5.519   1.308   1.225  0.00  0.00    +0.234 C 
ATOM      5  O   LIG    1        4.888   1.977   2.040  0.00  0.00    -0.274 OA
BRANCH   4   6
ATOM      6  C   LIG    1        5.509   1.639  -0.297  0.00  0.00    +0.163 C 
BRANCH   6   7
ATOM      7  N   LIG    1        4.953   0.470  -1.016  0.00  0.00    -0.304 N 
ATOM      8  H   LIG    1        4.035   0.157  -0.715  0.00  0.00    +0.149 HD
ATOM      9  C   LIG    1        5.317   0.209  -2.322  0.00  0.00    +0.215 C 
ATOM     10  O   LIG    1        6.177   0.871  -2.898  0.00  0.00    -0.276 OA
BRANCH   9  11
ATOM     11  C   LIG    1        4.576  -0.968  -2.945  0.00  0.00    +0.114 C 
BRANCH  11  12
ATOM     12  C   LIG    1        5.019  -1.319  -4.358  0.00  0.00    +0.117 C 
BRANCH  12  13
ATOM     13  N   LIG    1        6.425  -1.655  -4.427  0.00  0.00    -0.281 N 
ATOM     14  H   LIG    1        6.781  -2.534  -4.037  0.00  0.00    +0.152 HD
ATOM     15  C   LIG    1        7.290  -0.999  -5.252  0.00  0.00    +0.401 C 
ATOM     16  O   LIG    1        7.001   0.005  -5.953  0.00  0.00    -0.227 OA
BRANCH  15  17
ATOM     17  O   LIG    1        8.450  -1.627  -5.270  0.00  0.00    -0.445 OA
BRANCH  17  18
ATOM     18  C   LIG    1        9.374  -1.381  -6.357  0.00  0.00    +0.107 C 
ATOM     19  C   LIG    1        8.641  -1.623  -7.684  0.00  0.00    +0.055 C 
ATOM     20  C   LIG    1       10.500  -2.409  -6.272  0.00  0.00    +0.055 C 
ATOM     21  C   LIG    1       10.003   0.025  -6.248  0.00  0.00    +0.055 C 
ENDBRANCH  17  18
ENDBRANCH  15  17
ENDBRANCH  12  13
ENDBRANCH  11  12
ENDBRANCH   9  11
ENDBRANCH   6   7
BRANCH   6  22
ATOM     22  C   LIG    1        4.661   2.893  -0.656  0.00  0.00    +0.069 C 
BRANCH  22  23
ATOM     23  C   LIG    1        5.107   4.207  -0.071  0.00  0.00    -0.020 C 
ATOM     24  C   LIG    1        4.611   4.840   1.122  0.00  0.00    +0.003 C 
ATOM     25  C   LIG    1        5.298   6.043   1.283  0.00  0.00    +0.047 C 
ATOM     26  C   LIG    1        5.083   6.904   2.369  0.00  0.00    +0.026 C 
ATOM     27  C   LIG    1        4.200   6.481   3.367  0.00  0.00    +0.002 C 
ATOM     28  C   LIG    1        3.513   5.278   3.248  0.00  0.00    +0.001 C 
ATOM     29  N   LIG    1        6.170   6.151   0.227  0.00  0.00    -0.360 NA
ATOM     30  H   LIG    1        6.828   6.910   0.113  0.00  0.00    +0.165 HD
ATOM     31  C   LIG    1        3.663   4.487   2.106  0.00  0.00    +0.010 C 
ATOM     32  C   LIG    1        6.071   5.053  -0.587  0.00  0.00    +0.087 C 
ENDBRANCH  22  23
ENDBRANCH   6  22
ENDBRANCH   4   6
ENDBRANCH   1   2
BRANCH   1  33
ATOM     33  C   LIG    1        7.197  -1.219   3.542  0.00  0.00    +0.234 C 
ATOM     34  N   LIG    1        6.954  -1.880   4.761  0.00  0.00    -0.302 N 
ATOM     35  H   LIG    1        5.986  -1.936   5.080  0.00  0.00    +0.149 HD
ATOM     36  O   LIG    1        8.184  -1.445   2.846  0.00  0.00    -0.274 OA
BRANCH  34  37
ATOM     37  C   LIG    1        7.708  -3.066   5.227  0.00  0.00    +0.169 C 
BRANCH  37  38
ATOM     38  C   LIG    1        7.221  -3.412   6.679  0.00  0.00    +0.234 C 
ATOM     39  N   LIG    1        7.935  -2.887   7.738  0.00  0.00    -0.302 N 
ATOM     40  H   LIG    1        8.777  -2.349   7.595  0.00  0.00    +0.149 HD
ATOM     41  O   LIG    1        6.128  -3.961   6.838  0.00  0.00    -0.274 OA
BRANCH  39  42
ATOM     42  C   LIG    1        7.654  -3.133   9.159  0.00  0.00    +0.163 C 
BRANCH  42  43
ATOM     43  C   LIG    1        7.866  -4.640   9.499  0.00  0.00    +0.231 C 
ATOM     44  O   LIG    1        8.223  -5.489   8.681  0.00  0.00    -0.274 OA
ATOM     45  N   LIG    1        7.694  -5.021  10.802  0.00  0.00    -0.328 N 
ATOM     46  H   LIG    1        7.749  -6.015  10.988  0.00  0.00    +0.145 HD
ATOM     47  H   LIG    1        7.389  -4.420  11.555  0.00  0.00    +0.145 HD
ENDBRANCH  42  43
BRANCH  42  48
ATOM     48  C   LIG    1        6.289  -2.660   9.673  0.00  0.00    +0.067 C 
BRANCH  48  49
ATOM     49  C   LIG    1        5.824  -1.220   9.710  0.00  0.00    -0.045 C 
ATOM     50  C   LIG    1        4.600  -1.024  10.388  0.00  0.00    +0.003 C 
ATOM     51  C   LIG    1        4.024   0.235  10.532  0.00  0.00    +0.000 C 
ATOM     52  C   LIG    1        4.658   1.333   9.961  0.00  0.00    +0.000 C 
ATOM     53  C   LIG    1        5.867   1.165   9.277  0.00  0.00    +0.000 C 
ATOM     54  C   LIG    1        6.466  -0.104   9.168  0.00  0.00    +0.003 C 
ENDBRANCH  48  49
ENDBRANCH  42  48
ENDBRANCH  39  42
ENDBRANCH  37  38
BRANCH  37  55
ATOM     55  C   LIG    1        9.214  -2.945   5.071  0.00  0.00    +0.152 C 
BRANCH  55  56
ATOM     56  C   LIG    1        9.809  -1.686   5.662  0.00  0.00    +0.307 C 
ATOM     57  O   LIG    1       11.019  -1.506   5.740  0.00  0.00    -0.251 OA
BRANCH  56  58
ATOM     58  O   LIG    1        8.949  -0.809   6.236  0.00  0.00    -0.481 OA
ATOM     59  H   LIG    1        7.995  -0.954   6.051  0.00  0.00    +0.295 HD
ENDBRANCH  56  58
ENDBRANCH  55  56
ENDBRANCH  37  55
ENDBRANCH  34  37
ENDBRANCH   1  33
BRANCH   1  60
ATOM     60  C   LIG    1        4.829  -0.267   3.738  0.00  0.00    +0.042 C 
BRANCH  60  61
ATOM     61  C   LIG    1        4.231  -1.534   3.141  0.00  0.00    +0.071 C 
BRANCH  61  63
ATOM     62  C   LIG    1        2.296  -3.421   2.992  0.00  0.00    +0.084 C 
ATOM     63  S   LIG    1        2.605  -1.865   3.854  0.00  0.00    -0.164 S 
ENDBRANCH  61  63
ENDBRANCH  60  61
ENDBRANCH   1  60
TORSDOF 23
