REMARK  Name = *****
REMARK                            x       y       z     vdW  Elec       q    Type
REMARK                         _______ _______ _______ _____ _____    ______ ____
ROOT
ATOM      1  C   LIG    1        5.047   0.434   1.978  0.00  0.00    +0.095 C 
ENDROOT
BRANCH   1   2
ATOM      2  C   LIG    1        4.435   1.885   2.110  0.00  0.00    +0.033 C 
ATOM      3  C   LIG    1        3.116   2.004   2.940  0.00  0.00    +0.018 C 
ATOM      4  C   LIG    1        2.010   1.882   1.889  0.00  0.00    +0.015 C 
ATOM      5  C   LIG    1        2.541   3.045   1.052  0.00  0.00    +0.012 C 
ATOM      6  C   LIG    1        2.583   4.104   2.127  0.00  0.00    -0.027 C 
ATOM      7  C   LIG    1        2.931   3.473   3.274  0.00  0.00    -0.027 C 
ATOM      8  C   LIG    1        3.981   2.567   0.758  0.00  0.00    +0.015 C 
ENDBRANCH   1   2
BRANCH   1   9
ATOM      9  C   LIG    1        6.299   0.460   1.074  0.00  0.00    -0.016 A 
ATOM     10  C   LIG    1        6.347  -0.285  -0.118  0.00  0.00    +0.006 A 
ATOM     11  C   LIG    1        7.441  -0.212  -0.987  0.00  0.00    +0.000 A 
ATOM     12  C   LIG    1        8.541   0.571  -0.660  0.00  0.00    +0.000 A 
ATOM     13  C   LIG    1        8.546   1.280   0.537  0.00  0.00    +0.000 A 
ATOM     14  C   LIG    1        7.434   1.235   1.392  0.00  0.00    +0.006 A 
ENDBRANCH   1   9
BRANCH   1  15
ATOM     15  O   LIG    1        4.054  -0.438   1.428  0.00  0.00    -0.384 OA
ATOM     16  H   LIG    1        3.782  -0.064   0.574  0.00  0.00    +0.211 HD
ENDBRANCH   1  15
BRANCH   1  17
ATOM     17  C   LIG    1        5.380  -0.129   3.393  0.00  0.00    +0.055 C 
BRANCH  17  18
ATOM     18  C   LIG    1        5.961  -1.567   3.470  0.00  0.00    +0.087 C 
BRANCH  18  19
ATOM     19  N   LIG    1        6.375  -1.928   4.849  0.00  0.00    -0.302 NA
ATOM     20  C   LIG    1        6.686  -3.360   5.011  0.00  0.00    +0.084 C 
ATOM     21  C   LIG    1        8.054  -3.795   4.472  0.00  0.00    +0.015 C 
ATOM     22  C   LIG    1        9.183  -2.913   4.993  0.00  0.00    +0.002 C 
ATOM     23  C   LIG    1        8.850  -1.436   4.830  0.00  0.00    +0.015 C 
ATOM     24  C   LIG    1        7.468  -1.112   5.397  0.00  0.00    +0.084 C 
ENDBRANCH  18  19
ENDBRANCH  17  18
ENDBRANCH   1  17
TORSDOF 6
