REMARK  Name = *****
REMARK                            x       y       z     vdW  Elec       q    Type
REMARK                         _______ _______ _______ _____ _____    ______ ____
ROOT
ATOM      1  C   LIG    1        1.240  -0.282   1.569  0.00  0.00    +0.000 C 
ATOM      2 SI   LIG    1        2.863  -0.144   0.626  0.00  0.00    +0.000 Si
ATOM      3  O   LIG    1        3.016  -1.307  -0.548  0.00  0.00    +0.000 OA
ATOM      4 SI   LIG    1        2.180  -2.495  -1.373  0.00  0.00    +0.000 Si
ATOM      5  C   LIG    1        3.240  -4.040  -1.569  0.00  0.00    +0.000 C 
ATOM      6  C   LIG    1        0.678  -3.076  -0.385  0.00  0.00    +0.000 C 
ATOM      7  O   LIG    1        1.706  -1.898  -2.862  0.00  0.00    +0.000 OA
ATOM      8 SI   LIG    1        0.777  -0.636  -3.459  0.00  0.00    +0.000 Si
ATOM      9  C   LIG    1        0.131  -0.970  -5.189  0.00  0.00    +0.000 C 
ATOM     10  C   LIG    1       -0.752  -0.467  -2.373  0.00  0.00    +0.000 C 
ATOM     11  O   LIG    1        1.703   0.741  -3.464  0.00  0.00    +0.000 OA
ATOM     12 SI   LIG    1        1.606   2.405  -3.529  0.00  0.00    +0.000 Si
ATOM     13  C   LIG    1        2.446   3.073  -5.070  0.00  0.00    +0.000 C 
ATOM     14  C   LIG    1       -0.189   2.978  -3.647  0.00  0.00    +0.000 C 
ATOM     15  O   LIG    1        2.294   3.005  -2.122  0.00  0.00    +0.000 OA
ATOM     16 SI   LIG    1        2.130   2.724  -0.474  0.00  0.00    +0.000 Si
ATOM     17  C   LIG    1        2.693   4.196   0.553  0.00  0.00    +0.000 C 
ATOM     18  C   LIG    1        0.293   2.564  -0.070  0.00  0.00    +0.000 C 
ATOM     19  O   LIG    1        3.004   1.369  -0.073  0.00  0.00    +0.000 OA
ATOM     20  C   LIG    1        4.203  -0.402   1.931  0.00  0.00    +0.000 C 
ENDROOT
TORSDOF 0
