REMARK  Name = *****
REMARK                            x       y       z     vdW  Elec       q    Type
REMARK                         _______ _______ _______ _____ _____    ______ ____
ROOT
ATOM      1  C   LIG    1        1.370  -0.463   0.200  0.00  0.00    +0.036 C 
ATOM      2  C   LIG    1        2.745   0.082  -0.043  0.00  0.00    -0.021 C 
ATOM      3  C   LIG    1        3.199   0.727  -1.141  0.00  0.00    -0.015 C 
ENDROOT
BRANCH   3   4
ATOM      4  C   LIG    1        2.260   1.006  -2.250  0.00  0.00    -0.017 A 
ATOM      5  C   LIG    1        2.073   0.063  -3.271  0.00  0.00    +0.012 A 
ATOM      6  C   LIG    1        1.157   0.309  -4.295  0.00  0.00    +0.046 A 
ATOM      7  C   LIG    1        0.435   1.498  -4.303  0.00  0.00    +0.117 A 
ATOM      8  C   LIG    1        0.617   2.451  -3.306  0.00  0.00    +0.046 A 
ATOM      9  C   LIG    1        1.531   2.203  -2.278  0.00  0.00    +0.012 A 
BRANCH   7  10
ATOM     10  O   LIG    1       -0.456   1.692  -5.317  0.00  0.00    -0.507 OA
ATOM     11  H   LIG    1       -0.912   2.537  -5.170  0.00  0.00    +0.292 HD
ENDBRANCH   7  10
ENDBRANCH   3   4
BRANCH   3  12
ATOM     12  C   LIG    1        4.611   1.161  -1.204  0.00  0.00    -0.015 C 
ATOM     13  C   LIG    1        5.594   0.243  -1.127  0.00  0.00    -0.021 C 
ATOM     14  C   LIG    1        7.071   0.488  -1.179  0.00  0.00    +0.036 C 
BRANCH  12  15
ATOM     15  C   LIG    1        4.960   2.598  -1.323  0.00  0.00    -0.017 A 
ATOM     16  C   LIG    1        5.125   3.373  -0.166  0.00  0.00    +0.012 A 
ATOM     17  C   LIG    1        5.428   4.732  -0.264  0.00  0.00    +0.046 A 
ATOM     18  C   LIG    1        5.564   5.317  -1.518  0.00  0.00    +0.117 A 
ATOM     19  C   LIG    1        5.405   4.566  -2.677  0.00  0.00    +0.046 A 
ATOM     20  C   LIG    1        5.103   3.204  -2.579  0.00  0.00    +0.012 A 
BRANCH  18  21
ATOM     21  O   LIG    1        5.851   6.651  -1.565  0.00  0.00    -0.507 OA
ATOM     22  H   LIG    1        5.917   6.920  -2.496  0.00  0.00    +0.292 HD
ENDBRANCH  18  21
ENDBRANCH  12  15
ENDBRANCH   3  12
TORSDOF 5
