REMARK  Name = *****
REMARK                            x       y       z     vdW  Elec       q    Type
REMARK                         _______ _______ _______ _____ _____    ______ ____
ROOT
ATOM      1  C   LIG    1        3.536  -1.424   2.016  0.00  0.00    +0.100 A 
ATOM      2  C   LIG    1        3.615  -2.744   2.480  0.00  0.00    +0.131 A 
ATOM      3  C   LIG    1        4.458  -3.065   3.550  0.00  0.00    +0.046 A 
ATOM      4  C   LIG    1        5.217  -2.069   4.168  0.00  0.00    +0.004 A 
ATOM      5  C   LIG    1        5.135  -0.752   3.723  0.00  0.00    +0.001 A 
ATOM      6  C   LIG    1        4.296  -0.430   2.654  0.00  0.00    +0.019 A 
ENDROOT
BRANCH   1   8
ATOM      7  O   LIG    1        2.149   0.138   0.878  0.00  0.00    -0.245 OA
ATOM      8  C   LIG    1        2.650  -0.980   0.911  0.00  0.00    +0.343 C 
BRANCH   8   9
ATOM      9  O   LIG    1        2.556  -1.908  -0.070  0.00  0.00    -0.459 OA
BRANCH   9  10
ATOM     10  C   LIG    1        1.652  -1.581  -1.144  0.00  0.00    +0.260 C 
BRANCH  10  11
ATOM     11  C   LIG    1        2.339  -0.708  -2.191  0.00  0.00    +0.197 C 
BRANCH  11  12
ATOM     12  O   LIG    1        3.451  -1.391  -2.768  0.00  0.00    -0.392 OA
ATOM     13  H   LIG    1        4.043  -1.624  -2.030  0.00  0.00    +0.209 HD
ENDBRANCH  11  12
ENDBRANCH  10  11
ENDBRANCH   9  10
ENDBRANCH   8   9
ENDBRANCH   1   8
BRANCH   2  14
ATOM     14  O   LIG    1        2.848  -3.731   1.929  0.00  0.00    -0.506 OA
ATOM     15  H   LIG    1        3.051  -4.578   2.359  0.00  0.00    +0.292 HD
ENDBRANCH   2  14
TORSDOF 6
