REMARK  Name = *****
REMARK                            x       y       z     vdW  Elec       q    Type
REMARK                         _______ _______ _______ _____ _____    ______ ____
ROOT
ATOM      1  C   LIG    1       -0.096  -1.055   1.693  0.00  0.00    +0.000 C 
ATOM      2  C   LIG    1       -1.026  -1.829   1.103  0.00  0.00    +0.000 C 
ENDROOT
BRANCH   1   4
ATOM      3  C   LIG    1        2.322  -1.546   2.283  0.00  0.00    +0.074 C 
ATOM      4  C   LIG    1        1.312  -1.260   1.448  0.00  0.00    +0.006 C 
BRANCH   3   7
ATOM      5  C   LIG    1        0.462  -3.656   3.711  0.00  0.00    +0.027 C 
ATOM      6  C   LIG    1        1.318  -2.693   4.509  0.00  0.00    +0.081 C 
ATOM      7  C   LIG    1        2.377  -1.868   3.737  0.00  0.00    +0.195 C 
ATOM      8  N   LIG    1        3.395  -1.635   4.532  0.00  0.00    -0.194 N 
ATOM      9  C   LIG    1        3.265  -2.415   5.715  0.00  0.00    +0.213 A 
ATOM     10  C   LIG    1        4.083  -2.454   6.829  0.00  0.00    +0.079 A 
ATOM     11  C   LIG    1        3.982  -3.570   7.660  0.00  0.00    +0.015 A 
ATOM     12  C   LIG    1        3.204  -4.679   7.274  0.00  0.00    -0.017 A 
ATOM     13  C   LIG    1        2.311  -4.578   6.174  0.00  0.00    -0.007 A 
ATOM     14  C   LIG    1        1.663  -5.760   5.749  0.00  0.00    +0.009 A 
ATOM     15  C   LIG    1        1.913  -6.992   6.355  0.00  0.00    +0.001 A 
ATOM     16  C   LIG    1        2.759  -7.065   7.451  0.00  0.00    +0.001 A 
ATOM     17  C   LIG    1        3.372  -5.908   7.930  0.00  0.00    +0.008 A 
ATOM     18  C   LIG    1        2.235  -3.332   5.529  0.00  0.00    +0.047 A 
ATOM     19  C   LIG    1        0.421  -1.666   5.259  0.00  0.00    +0.027 C 
BRANCH   8  20
ATOM     20  C   LIG    1        4.684  -0.941   4.254  0.00  0.00    +0.358 C 
BRANCH  20  21
ATOM     21  C   LIG    1        5.627  -1.898   3.510  0.00  0.00    +0.074 C 
BRANCH  21  22
ATOM     22  C   LIG    1        6.994  -1.281   3.192  0.00  0.00    +0.031 C 
BRANCH  22  23
ATOM     23  C   LIG    1        7.857  -2.264   2.397  0.00  0.00    +0.198 C 
BRANCH  23  24
ATOM     24  S   LIG    1        9.455  -1.577   2.007  0.00  0.00    +0.080 S 
ATOM     25  O   LIG    1       10.281  -1.592   3.212  0.00  0.00    -0.147 OA
ATOM     26  O   LIG    1        9.291  -0.413   1.194  0.00  0.00    -0.147 OA
BRANCH  24  27
ATOM     27  O   LIG    1        9.969  -2.750   1.041  0.00  0.00    -0.254 OA
ATOM     28  H   LIG    1       10.569  -2.365   0.349  0.00  0.00    +0.244 HD
ENDBRANCH  24  27
ENDBRANCH  23  24
ENDBRANCH  22  23
ENDBRANCH  21  22
ENDBRANCH  20  21
ENDBRANCH   8  20
ENDBRANCH   3   7
ENDBRANCH   1   4
BRANCH   2  29
ATOM     29  C   LIG    1       -2.459  -1.675   1.275  0.00  0.00    +0.000 C 
ATOM     30  C   LIG    1       -3.392  -2.646   1.209  0.00  0.00    +0.002 C 
BRANCH  30  31
ATOM     31  C   LIG    1       -3.147  -4.076   1.152  0.00  0.00    +0.020 C 
ATOM     32  C   LIG    1       -4.095  -5.040   1.201  0.00  0.00    +0.021 C 
ATOM     33  C   LIG    1       -3.775  -6.472   1.799  0.00  0.00    +0.031 C 
ATOM     34  C   LIG    1       -2.615  -6.430   2.821  0.00  0.00    +0.022 C 
ATOM     35  C   LIG    1       -3.443  -7.476   0.685  0.00  0.00    +0.022 C 
ATOM     36  C   LIG    1       -5.114  -6.795   2.462  0.00  0.00    -0.007 A 
ATOM     37  C   LIG    1       -6.045  -5.809   2.070  0.00  0.00    +0.038 A 
ATOM     38  C   LIG    1       -7.344  -5.798   2.552  0.00  0.00    +0.024 A 
ATOM     39  C   LIG    1       -7.727  -6.789   3.447  0.00  0.00    +0.010 A 
ATOM     40  C   LIG    1       -6.834  -7.803   3.838  0.00  0.00    -0.018 A 
ATOM     41  C   LIG    1       -7.269  -8.784   4.741  0.00  0.00    +0.008 A 
ATOM     42  C   LIG    1       -6.436  -9.834   5.117  0.00  0.00    +0.001 A 
ATOM     43  C   LIG    1       -5.156  -9.919   4.586  0.00  0.00    +0.001 A 
ATOM     44  C   LIG    1       -4.698  -8.938   3.702  0.00  0.00    +0.009 A 
ATOM     45  C   LIG    1       -5.509  -7.844   3.323  0.00  0.00    -0.012 A 
ATOM     46  N   LIG    1       -5.503  -4.841   1.155  0.00  0.00    -0.302 N 
BRANCH  46  47
ATOM     47  C   LIG    1       -6.242  -5.031  -0.134  0.00  0.00    +0.111 C 
BRANCH  47  48
ATOM     48  C   LIG    1       -6.513  -3.749  -0.926  0.00  0.00    +0.021 C 
BRANCH  48  49
ATOM     49  C   LIG    1       -7.378  -2.677  -0.241  0.00  0.00    +0.027 C 
BRANCH  49  50
ATOM     50  C   LIG    1       -7.591  -1.517  -1.221  0.00  0.00    +0.198 C 
BRANCH  50  51
ATOM     51  S   LIG    1       -8.534  -0.165  -0.552  0.00  0.00    +0.080 S 
ATOM     52  O   LIG    1       -7.700   0.627   0.356  0.00  0.00    -0.147 OA
ATOM     53  O   LIG    1       -9.864  -0.582  -0.201  0.00  0.00    -0.147 OA
BRANCH  51  54
ATOM     54  O   LIG    1       -8.661   0.696  -1.921  0.00  0.00    -0.254 OA
ATOM     55  H   LIG    1       -9.389   1.348  -1.826  0.00  0.00    +0.244 HD
ENDBRANCH  51  54
ENDBRANCH  50  51
ENDBRANCH  49  50
ENDBRANCH  48  49
ENDBRANCH  47  48
ENDBRANCH  46  47
ENDBRANCH  30  31
ENDBRANCH   2  29
TORSDOF 16
