REMARK  Name = *****
REMARK                            x       y       z     vdW  Elec       q    Type
REMARK                         _______ _______ _______ _____ _____    ______ ____
ROOT
ATOM      1  C   LIG    1        2.890   0.738  -0.847  0.00  0.00    +0.131 C 
ENDROOT
BRANCH   1   3
ATOM      2  O   LIG    1        1.990  -1.267   0.130  0.00  0.00    -0.251 OA
ATOM      3  C   LIG    1        2.227  -0.070   0.237  0.00  0.00    +0.305 C 
BRANCH   3   4
ATOM      4  O   LIG    1        1.967   0.625   1.362  0.00  0.00    -0.481 OA
ATOM      5  H   LIG    1        2.398   1.511   1.395  0.00  0.00    +0.295 HD
ENDBRANCH   3   4
ENDBRANCH   1   3
BRANCH   1   6
ATOM      6  C   LIG    1        4.405   0.623  -0.767  0.00  0.00    +0.131 C 
BRANCH   6   7
ATOM      7  C   LIG    1        4.906   1.147   0.552  0.00  0.00    +0.305 C 
ATOM      8  O   LIG    1        4.297   1.976   1.219  0.00  0.00    -0.251 OA
BRANCH   7   9
ATOM      9  O   LIG    1        6.091   0.629   0.926  0.00  0.00    -0.481 OA
ATOM     10  H   LIG    1        6.451  -0.048   0.320  0.00  0.00    +0.295 HD
ENDBRANCH   7   9
ENDBRANCH   6   7
ENDBRANCH   1   6
TORSDOF 5
