REMARK  Name = *****
REMARK                            x       y       z     vdW  Elec       q    Type
REMARK                         _______ _______ _______ _____ _____    ______ ____
ROOT
ATOM      1  C   LIG    1        8.787  -0.578  -4.546  0.00  0.00    +0.162 A 
ATOM      2  C   LIG    1        9.271  -1.591  -3.682  0.00  0.00    +0.162 A 
ATOM      3  C   LIG    1        8.766  -2.894  -3.798  0.00  0.00    +0.061 A 
ATOM      4  C   LIG    1        7.829  -3.153  -4.782  0.00  0.00    +0.025 A 
ATOM      5  C   LIG    1        7.174  -4.418  -5.090  0.00  0.00    +0.167 C 
ATOM      6  C   LIG    1        6.175  -4.236  -6.216  0.00  0.00    +0.065 C 
ATOM      7  C   LIG    1        6.387  -2.748  -6.645  0.00  0.00    +0.047 C 
ATOM      8  O   LIG    1        7.433  -5.464  -4.505  0.00  0.00    -0.292 OA
ATOM      9  C   LIG    1        7.357  -2.191  -5.649  0.00  0.00    -0.033 A 
ATOM     10  C   LIG    1        7.827  -0.891  -5.532  0.00  0.00    +0.053 A 
ENDROOT
BRANCH   1  12
ATOM     11  C   LIG    1       10.401   1.143  -4.115  0.00  0.00    +0.277 C 
ATOM     12  O   LIG    1        9.095   0.759  -4.524  0.00  0.00    -0.491 OA
ENDBRANCH   1  12
BRANCH   2  13
ATOM     13  O   LIG    1       10.160  -1.258  -2.692  0.00  0.00    -0.491 OA
ATOM     14  C   LIG    1       11.078  -2.281  -2.311  0.00  0.00    +0.277 C 
ENDBRANCH   2  13
BRANCH   6  15
ATOM     15  C   LIG    1        4.724  -4.530  -5.786  0.00  0.00    +0.015 C 
BRANCH  15  16
ATOM     16  C   LIG    1        4.397  -5.992  -5.356  0.00  0.00    -0.008 C 
ATOM     17  C   LIG    1        2.910  -6.149  -4.971  0.00  0.00    +0.019 C 
ATOM     18  C   LIG    1        1.966  -6.159  -6.187  0.00  0.00    +0.085 C 
ATOM     19  N   LIG    1        2.340  -7.078  -7.276  0.00  0.00    -0.298 NA
ATOM     20  C   LIG    1        3.763  -6.932  -7.615  0.00  0.00    +0.085 C 
ATOM     21  C   LIG    1        4.697  -7.065  -6.410  0.00  0.00    +0.019 C 
BRANCH  19  22
ATOM     22  C   LIG    1        1.915  -8.467  -7.017  0.00  0.00    +0.119 C 
BRANCH  22  23
ATOM     23  C   LIG    1        2.098  -9.391  -8.213  0.00  0.00    -0.033 A 
ATOM     24  C   LIG    1        3.303 -10.089  -8.399  0.00  0.00    +0.005 A 
ATOM     25  C   LIG    1        3.522 -10.848  -9.550  0.00  0.00    +0.000 A 
ATOM     26  C   LIG    1        2.523 -10.954 -10.513  0.00  0.00    +0.000 A 
ATOM     27  C   LIG    1        1.305 -10.303 -10.325  0.00  0.00    +0.000 A 
ATOM     28  C   LIG    1        1.096  -9.518  -9.187  0.00  0.00    +0.005 A 
ENDBRANCH  22  23
ENDBRANCH  19  22
ENDBRANCH  15  16
ENDBRANCH   6  15
TORSDOF 6
