REMARK  Name = *****
REMARK                            x       y       z     vdW  Elec       q    Type
REMARK                         _______ _______ _______ _____ _____    ______ ____
ROOT
ATOM      1  C   LIG    1        6.997   3.870   1.821  0.00  0.00    -0.041 A 
ATOM      2  C   LIG    1        7.267   5.057   1.151  0.00  0.00    -0.014 A 
ATOM      3  C   LIG    1        7.234   5.357  -0.319  0.00  0.00    +0.133 C 
ATOM      4  C   LIG    1        7.671   6.824  -0.367  0.00  0.00    +0.222 C 
ATOM      5  N   LIG    1        7.909   7.233   0.938  0.00  0.00    -0.285 N 
ATOM      6  H   LIG    1        8.218   8.164   1.171  0.00  0.00    +0.155 HD
ATOM      7  O   LIG    1        7.797   7.510  -1.364  0.00  0.00    -0.275 OA
ATOM      8  C   LIG    1        7.672   6.205   1.836  0.00  0.00    +0.037 A 
ATOM      9  C   LIG    1        7.818   6.244   3.205  0.00  0.00    +0.023 A 
ATOM     10  C   LIG    1        7.528   5.067   3.902  0.00  0.00    +0.002 A 
ATOM     11  C   LIG    1        7.119   3.900   3.221  0.00  0.00    +0.004 A 
ENDROOT
BRANCH   1  12
ATOM     12  C   LIG    1        6.622   2.604   1.077  0.00  0.00    +0.051 C 
BRANCH  12  13
ATOM     13  C   LIG    1        5.100   2.448   0.887  0.00  0.00    +0.089 C 
BRANCH  13  14
ATOM     14  N   LIG    1        4.622   1.182   0.264  0.00  0.00    -0.302 NA
BRANCH  14  15
ATOM     15  C   LIG    1        3.137   1.181   0.181  0.00  0.00    +0.084 C 
BRANCH  15  17
ATOM     16  C   LIG    1        0.885   1.402   1.306  0.00  0.00    +0.005 C 
ATOM     17  C   LIG    1        2.394   1.430   1.504  0.00  0.00    +0.012 C 
ENDBRANCH  15  17
ENDBRANCH  14  15
BRANCH  14  18
ATOM     18  C   LIG    1        5.209   0.972  -1.085  0.00  0.00    +0.084 C 
BRANCH  18  19
ATOM     19  C   LIG    1        4.853  -0.375  -1.750  0.00  0.00    +0.012 C 
ATOM     20  C   LIG    1        5.536  -0.547  -3.104  0.00  0.00    +0.005 C 
ENDBRANCH  18  19
ENDBRANCH  14  18
ENDBRANCH  13  14
ENDBRANCH  12  13
ENDBRANCH   1  12
TORSDOF 7
