REMARK  Name = *****
REMARK                            x       y       z     vdW  Elec       q    Type
REMARK                         _______ _______ _______ _____ _____    ______ ____
ROOT
ATOM      1  N   LIG    1        2.043  -2.876  -0.108  0.00  0.00    -0.284 N 
ATOM      2  H   LIG    1        1.878  -3.164   0.846  0.00  0.00    +0.155 HD
ATOM      3  C   LIG    1        0.890  -2.752  -0.880  0.00  0.00    +0.234 C 
ATOM      4  O   LIG    1        0.783  -1.983  -1.837  0.00  0.00    -0.274 OA
ENDROOT
BRANCH   1   7
ATOM      5  C   LIG    1        3.299  -2.757  -2.872  0.00  0.00    +0.045 C 
ATOM      6  C   LIG    1        3.825  -2.064  -1.642  0.00  0.00    -0.029 A 
ATOM      7  C   LIG    1        3.260  -2.190  -0.354  0.00  0.00    +0.039 A 
ATOM      8  C   LIG    1        3.945  -1.647   0.760  0.00  0.00    -0.029 A 
ATOM      9  C   LIG    1        3.446  -1.806   2.173  0.00  0.00    +0.045 C 
ATOM     10  C   LIG    1        5.117  -0.898   0.558  0.00  0.00    +0.005 A 
ATOM     11  C   LIG    1        5.621  -0.700  -0.722  0.00  0.00    +0.001 A 
ATOM     12  C   LIG    1        4.985  -1.286  -1.810  0.00  0.00    +0.005 A 
ENDBRANCH   1   7
BRANCH   3  13
ATOM     13  C   LIG    1       -0.283  -3.629  -0.346  0.00  0.00    +0.143 C 
ATOM     14  N   LIG    1       -1.577  -3.451  -1.052  0.00  0.00    -0.295 NA
ATOM     15  C   LIG    1       -2.103  -2.092  -0.960  0.00  0.00    +0.105 C 
ATOM     16  C   LIG    1       -1.541  -3.921  -2.442  0.00  0.00    +0.085 C 
ATOM     17  C   LIG    1       -1.167  -5.402  -2.508  0.00  0.00    +0.015 C 
ATOM     18  C   LIG    1        0.131  -5.696  -1.765  0.00  0.00    +0.003 C 
ATOM     19  C   LIG    1        0.086  -5.123  -0.351  0.00  0.00    +0.028 C 
ENDBRANCH   3  13
TORSDOF 2
