REMARK  Name = *****
REMARK                            x       y       z     vdW  Elec       q    Type
REMARK                         _______ _______ _______ _____ _____    ______ ____
ROOT
ATOM      1  C   LIG    1        2.027  -1.232  -0.078  0.00  0.00    +0.162 C 
ENDROOT
BRANCH   1   5
ATOM      2  C   LIG    1       -2.166  -2.030  -0.712  0.00  0.00    +0.000 A 
ATOM      3  C   LIG    1       -1.580  -2.315   0.520  0.00  0.00    +0.000 A 
ATOM      4  C   LIG    1       -0.225  -2.055   0.726  0.00  0.00    +0.004 A 
ATOM      5  C   LIG    1        0.560  -1.512  -0.302  0.00  0.00    -0.036 A 
ATOM      6  C   LIG    1       -0.041  -1.224  -1.535  0.00  0.00    +0.004 A 
ATOM      7  C   LIG    1       -1.397  -1.484  -1.738  0.00  0.00    +0.000 A 
ENDBRANCH   1   5
BRANCH   1   8
ATOM      8  C   LIG    1        2.812  -2.480   0.251  0.00  0.00    +0.285 C 
ATOM      9  N   LIG    1        2.853  -3.558  -0.604  0.00  0.00    -0.234 N 
ATOM     10  H   LIG    1        2.019  -3.718  -1.160  0.00  0.00    +0.291 HD
ATOM     11  C   LIG    1        3.375  -4.678   0.144  0.00  0.00    +0.272 C 
ATOM     12  C   LIG    1        4.078  -3.958   1.299  0.00  0.00    +0.333 C 
ATOM     13  N   LIG    1        3.471  -2.598   1.377  0.00  0.00    -0.084 NA
ENDBRANCH   1   8
TORSDOF 2
