REMARK  Name = *****
REMARK                            x       y       z     vdW  Elec       q    Type
REMARK                         _______ _______ _______ _____ _____    ______ ____
ROOT
ATOM      1  C   LIG    1        4.877  -0.338  -1.378  0.00  0.00    +0.098 C 
ENDROOT
BRANCH   1   2
ATOM      2  C   LIG    1        5.332  -0.009  -2.905  0.00  0.00    -0.028 A 
ATOM      3  C   LIG    1        5.525   1.312  -3.377  0.00  0.00    +0.005 A 
ATOM      4  C   LIG    1        5.986   1.592  -4.676  0.00  0.00    +0.000 A 
ATOM      5  C   LIG    1        6.257   0.559  -5.560  0.00  0.00    +0.000 A 
ATOM      6  C   LIG    1        6.043  -0.751  -5.150  0.00  0.00    +0.000 A 
ATOM      7  C   LIG    1        5.556  -1.028  -3.858  0.00  0.00    +0.005 A 
ENDBRANCH   1   2
BRANCH   1   8
ATOM      8  C   LIG    1        5.521  -1.686  -0.854  0.00  0.00    -0.028 A 
ATOM      9  C   LIG    1        4.906  -2.536   0.082  0.00  0.00    +0.005 A 
ATOM     10  C   LIG    1        5.503  -3.688   0.610  0.00  0.00    +0.000 A 
ATOM     11  C   LIG    1        6.737  -4.091   0.145  0.00  0.00    +0.000 A 
ATOM     12  C   LIG    1        7.360  -3.331  -0.835  0.00  0.00    +0.000 A 
ATOM     13  C   LIG    1        6.779  -2.138  -1.301  0.00  0.00    +0.005 A 
ENDBRANCH   1   8
BRANCH   1  16
ATOM     14  C   LIG    1        0.998  -0.668  -0.337  0.00  0.00    +0.131 C 
ATOM     15  N   LIG    1        2.445  -0.489  -0.176  0.00  0.00    -0.307 N 
ATOM     16  C   LIG    1        3.230  -0.402  -1.366  0.00  0.00    +0.230 C 
ATOM     17  O   LIG    1        2.635  -0.348  -2.432  0.00  0.00    -0.274 OA
ATOM     18  C   LIG    1        2.829  -0.559   1.239  0.00  0.00    +0.131 C 
ENDBRANCH   1  16
BRANCH   1  19
ATOM     19  C   LIG    1        5.286   0.901  -0.485  0.00  0.00    +0.041 C 
BRANCH  19  20
ATOM     20  C   LIG    1        6.786   1.269  -0.326  0.00  0.00    +0.086 C 
BRANCH  20  21
ATOM     21  N   LIG    1        6.987   2.465   0.536  0.00  0.00    -0.302 NA
ATOM     22  C   LIG    1        8.389   2.651   0.961  0.00  0.00    +0.087 C 
ATOM     23  C   LIG    1        9.326   3.216  -0.111  0.00  0.00    +0.055 C 
ATOM     24  C   LIG    1        8.783   4.483  -0.813  0.00  0.00    +0.093 C 
ATOM     25  C   LIG    1        7.310   4.234  -1.208  0.00  0.00    +0.055 C 
ATOM     26  C   LIG    1        6.479   3.719  -0.030  0.00  0.00    +0.087 C 
BRANCH  24  27
ATOM     27  C   LIG    1        9.018   5.795  -0.052  0.00  0.00    -0.016 A 
ATOM     28  C   LIG    1        7.989   6.735   0.158  0.00  0.00    +0.008 A 
ATOM     29  C   LIG    1        8.223   7.961   0.782  0.00  0.00    +0.020 A 
ATOM     30  C   LIG    1        9.503   8.284   1.204  0.00  0.00    +0.041 A 
ATOM     31 CL   LIG    1        9.786   9.801   1.961  0.00  0.00    -0.084 Cl
ATOM     32  C   LIG    1       10.550   7.392   0.999  0.00  0.00    +0.020 A 
ATOM     33  C   LIG    1       10.311   6.161   0.372  0.00  0.00    +0.008 A 
ENDBRANCH  24  27
BRANCH  24  34
ATOM     34  O   LIG    1        9.566   4.641  -2.013  0.00  0.00    -0.384 OA
ATOM     35  H   LIG    1        8.977   4.598  -2.783  0.00  0.00    +0.211 HD
ENDBRANCH  24  34
ENDBRANCH  20  21
ENDBRANCH  19  20
ENDBRANCH   1  19
TORSDOF 8
