REMARK  Name = *****
REMARK                            x       y       z     vdW  Elec       q    Type
REMARK                         _______ _______ _______ _____ _____    ______ ____
ROOT
ATOM      1  O   LIG    1        1.532  -5.008   0.835  0.00  0.00    -0.489 OA
ENDROOT
BRANCH   1   3
ATOM      2  C   LIG    1        2.313  -7.074  -0.083  0.00  0.00    -0.002 A 
ATOM      3  C   LIG    1        1.773  -6.359   1.004  0.00  0.00    +0.124 A 
ATOM      4  C   LIG    1        1.422  -7.056   2.169  0.00  0.00    +0.046 A 
ATOM      5  C   LIG    1        1.577  -8.443   2.253  0.00  0.00    +0.004 A 
ATOM      6  C   LIG    1        2.035  -9.160   1.156  0.00  0.00    +0.001 A 
ATOM      7  C   LIG    1        2.396  -8.482  -0.007  0.00  0.00    +0.007 A 
BRANCH   2   8
ATOM      8  C   LIG    1        2.812  -6.375  -1.329  0.00  0.00    +0.065 C 
BRANCH   8  10
ATOM      9  C   LIG    1        5.020  -5.561  -0.311  0.00  0.00    +0.004 C 
ATOM     10  C   LIG    1        3.991  -5.439  -1.142  0.00  0.00    -0.030 C 
ENDBRANCH   8  10
ENDBRANCH   2   8
ENDBRANCH   1   3
BRANCH   1  11
ATOM     11  C   LIG    1        1.778  -4.207   2.008  0.00  0.00    +0.261 C 
BRANCH  11  12
ATOM     12  C   LIG    1        1.448  -2.722   1.753  0.00  0.00    +0.166 C 
BRANCH  12  13
ATOM     13  O   LIG    1        2.244  -2.192   0.686  0.00  0.00    -0.387 OA
ATOM     14  H   LIG    1        2.173  -2.842  -0.039  0.00  0.00    +0.210 HD
ENDBRANCH  12  13
BRANCH  12  15
ATOM     15  C   LIG    1        1.633  -1.860   3.038  0.00  0.00    +0.115 C 
BRANCH  15  16
ATOM     16  N   LIG    1        3.009  -1.862   3.583  0.00  0.00    -0.311 NA
ATOM     17  H   LIG    1        3.625  -1.510   2.844  0.00  0.00    +0.122 HD
BRANCH  16  18
ATOM     18  C   LIG    1        3.165  -1.031   4.794  0.00  0.00    +0.048 C 
ATOM     19  C   LIG    1        4.638  -0.967   5.222  0.00  0.00    +0.024 C 
ATOM     20  C   LIG    1        2.339  -1.559   5.973  0.00  0.00    +0.024 C 
ENDBRANCH  16  18
ENDBRANCH  15  16
ENDBRANCH  12  15
ENDBRANCH  11  12
ENDBRANCH   1  11
TORSDOF 9
