REMARK  Name = *****
REMARK                            x       y       z     vdW  Elec       q    Type
REMARK                         _______ _______ _______ _____ _____    ______ ____
ROOT
ATOM      1  N   LIG    1        7.330   2.860  -3.171  0.00  0.00    -0.340 NA
ATOM      2  C   LIG    1        8.019   2.315  -4.249  0.00  0.00    +0.104 C 
ATOM      3  C   LIG    1        8.505   3.016  -5.286  0.00  0.00    +0.077 C 
ATOM      4  I   LIG    1        9.549   2.132  -6.805  0.00  0.00    -0.038 I 
ATOM      5  C   LIG    1        8.271   4.502  -5.297  0.00  0.00    +0.208 C 
ATOM      6  O   LIG    1        8.693   5.214  -6.205  0.00  0.00    -0.286 OA
ATOM      7  C   LIG    1        7.494   5.074  -4.144  0.00  0.00    +0.077 C 
ATOM      8  I   LIG    1        7.093   7.077  -4.069  0.00  0.00    -0.038 I 
ATOM      9  C   LIG    1        7.090   4.229  -3.183  0.00  0.00    +0.104 C 
ENDROOT
BRANCH   1  10
ATOM     10  C   LIG    1        6.841   2.007  -2.066  0.00  0.00    +0.241 C 
BRANCH  10  11
ATOM     11  C   LIG    1        5.442   1.488  -2.338  0.00  0.00    +0.327 C 
ATOM     12  O   LIG    1        5.187   0.316  -2.569  0.00  0.00    -0.249 OA
BRANCH  11  13
ATOM     13  O   LIG    1        4.521   2.496  -2.301  0.00  0.00    -0.463 OA
BRANCH  13  14
ATOM     14  C   LIG    1        3.186   2.117  -2.680  0.00  0.00    +0.232 C 
BRANCH  14  16
ATOM     15  C   LIG    1        1.663   1.788  -4.671  0.00  0.00    +0.007 C 
ATOM     16  C   LIG    1        3.061   2.146  -4.201  0.00  0.00    +0.038 C 
ENDBRANCH  14  16
ENDBRANCH  13  14
ENDBRANCH  11  13
ENDBRANCH  10  11
ENDBRANCH   1  10
TORSDOF 5
