REMARK  Name = *****
REMARK                            x       y       z     vdW  Elec       q    Type
REMARK                         _______ _______ _______ _____ _____    ______ ____
ROOT
ATOM      1  C   UNK    1        2.849  -1.507   0.618  0.00  0.00    +0.111 C 
ATOM      2  C   UNK    1        2.253  -2.861   0.162  0.00  0.00    +0.165 C 
ATOM      3  C   UNK    1        2.232  -2.966  -1.369  0.00  0.00    +0.174 C 
ATOM      4  C   UNK    1        3.609  -2.666  -1.973  0.00  0.00    +0.159 C 
ATOM      5  C   UNK    1        4.136  -1.325  -1.449  0.00  0.00    +0.115 C 
ATOM      6  N   UNK    1        4.175  -1.250   0.016  0.00  0.00    -0.306 NA
ATOM      7  H   UNK    1        4.886  -1.877   0.388  0.00  0.00    +0.122 HD
ENDROOT
BRANCH   2   8
ATOM      8  O   UNK    1        2.987  -3.975   0.702  0.00  0.00    -0.388 OA
ATOM      9  H   UNK    1        3.933  -3.822   0.540  0.00  0.00    +0.210 HD
ENDBRANCH   2   8
BRANCH   3  10
ATOM     10  O   UNK    1        1.840  -4.289  -1.775  0.00  0.00    -0.387 OA
ATOM     11  H   UNK    1        2.069  -4.881  -1.030  0.00  0.00    +0.210 HD
ENDBRANCH   3  10
BRANCH   4  12
ATOM     12  O   UNK    1        3.507  -2.634  -3.398  0.00  0.00    -0.388 OA
ATOM     13  H   UNK    1        2.951  -3.402  -3.638  0.00  0.00    +0.210 HD
ENDBRANCH   4  12
BRANCH   1  14
ATOM     14  C   UNK    1        2.949  -1.411   2.154  0.00  0.00    +0.177 C 
BRANCH  14  15
ATOM     15  O   UNK    1        1.697  -1.676   2.778  0.00  0.00    -0.393 OA
ATOM     16  H   UNK    1        1.613  -2.644   2.852  0.00  0.00    +0.209 HD
ENDBRANCH  14  15
ENDBRANCH   1  14
TORSDOF 5
