REMARK  Name = *****
REMARK                            x       y       z     vdW  Elec       q    Type
REMARK                         _______ _______ _______ _____ _____    ______ ____
ROOT
ATOM      1  C   LIG    1       -9.697  -4.670   5.618  0.00  0.00    +0.047 C 
ATOM      2  C   LIG    1       -9.342  -5.774   4.591  0.00  0.00    +0.046 C 
ATOM      3  C   LIG    1      -10.632  -6.580   4.388  0.00  0.00    +0.179 C 
ATOM      4  O   LIG    1      -10.343  -7.975   4.532  0.00  0.00    -0.493 OA
ATOM      5  C   LIG    1       -8.966  -8.043   4.461  0.00  0.00    +0.095 C 
ATOM      6  C   LIG    1       -8.354  -9.021   3.782  0.00  0.00    +0.014 C 
ATOM      7  C   LIG    1      -11.630  -6.113   5.444  0.00  0.00    +0.076 C 
ATOM      8  C   LIG    1       -8.331  -6.819   5.035  0.00  0.00    +0.081 C 
ATOM      9  C   LIG    1      -10.796  -5.340   6.467  0.00  0.00    +0.125 C 
ENDROOT
BRANCH   1  11
ATOM     10  C   LIG    1      -11.171  -2.591   5.267  0.00  0.00    -0.000 C 
ATOM     11  C   LIG    1      -10.172  -3.415   4.895  0.00  0.00    -0.022 C 
BRANCH  10  12
ATOM     12  C   LIG    1      -11.697  -1.402   4.501  0.00  0.00    +0.137 C 
BRANCH  12  13
ATOM     13  O   LIG    1      -12.117  -0.444   5.468  0.00  0.00    -0.388 OA
ATOM     14  H   LIG    1      -11.388  -0.341   6.104  0.00  0.00    +0.210 HD
ENDBRANCH  12  13
BRANCH  12  15
ATOM     15  C   LIG    1      -10.679  -0.769   3.550  0.00  0.00    +0.035 C 
BRANCH  15  16
ATOM     16  C   LIG    1      -11.218   0.419   2.754  0.00  0.00    +0.003 C 
BRANCH  16  17
ATOM     17  C   LIG    1      -10.166   0.932   1.760  0.00  0.00    -0.000 C 
BRANCH  17  19
ATOM     18  C   LIG    1       -7.898   1.998   1.442  0.00  0.00    +0.004 C 
ATOM     19  C   LIG    1       -8.928   1.511   2.447  0.00  0.00    -0.003 C 
ENDBRANCH  17  19
ENDBRANCH  16  17
ENDBRANCH  15  16
ENDBRANCH  12  15
ENDBRANCH  10  12
ENDBRANCH   1  11
BRANCH   9  20
ATOM     20  O   LIG    1      -10.218  -6.216   7.428  0.00  0.00    -0.391 OA
ATOM     21  H   LIG    1      -10.951  -6.725   7.825  0.00  0.00    +0.210 HD
ENDBRANCH   9  20
BRANCH   6  22
ATOM     22  C   LIG    1       -9.073 -10.166   3.120  0.00  0.00    +0.031 C 
BRANCH  22  23
ATOM     23  C   LIG    1       -9.481  -9.885   1.668  0.00  0.00    +0.015 C 
BRANCH  23  24
ATOM     24  C   LIG    1       -8.303  -9.616   0.732  0.00  0.00    +0.121 C 
BRANCH  24  25
ATOM     25  C   LIG    1       -8.761  -9.306  -0.648  0.00  0.00    +0.305 C 
ATOM     26  O   LIG    1       -9.145  -8.220  -1.041  0.00  0.00    -0.251 OA
BRANCH  25  27
ATOM     27  O   LIG    1       -8.757 -10.416  -1.446  0.00  0.00    -0.481 OA
ATOM     28  H   LIG    1       -8.454 -11.249  -1.009  0.00  0.00    +0.295 HD
ENDBRANCH  25  27
ENDBRANCH  24  25
ENDBRANCH  23  24
ENDBRANCH  22  23
ENDBRANCH   6  22
TORSDOF 13
