REMARK  Name = *****
REMARK                            x       y       z     vdW  Elec       q    Type
REMARK                         _______ _______ _______ _____ _____    ______ ____
ROOT
ATOM      1  N   LIG    1        4.502   1.118  -0.823  0.00  0.00    -0.277 N 
ATOM      2  C   LIG    1        5.243  -0.062  -0.871  0.00  0.00    +0.331 C 
ATOM      3  O   LIG    1        4.741  -1.185  -0.925  0.00  0.00    -0.246 OA
ATOM      4  N   LIG    1        6.623   0.055  -0.859  0.00  0.00    -0.273 N 
ATOM      5  H   LIG    1        7.139  -0.810  -0.892  0.00  0.00    +0.173 HD
ATOM      6  C   LIG    1        7.361   1.217  -0.833  0.00  0.00    +0.280 C 
ATOM      7  O   LIG    1        8.586   1.234  -0.838  0.00  0.00    -0.265 OA
ATOM      8  C   LIG    1        6.541   2.370  -0.804  0.00  0.00    +0.149 A 
ATOM      9  N   LIG    1        6.858   3.696  -0.777  0.00  0.00    -0.339 N 
ATOM     10  H   LIG    1        7.790   4.091  -0.770  0.00  0.00    +0.167 HD
ATOM     11  C   LIG    1        5.670   4.381  -0.762  0.00  0.00    +0.199 A 
ATOM     12  N   LIG    1        4.633   3.567  -0.779  0.00  0.00    -0.218 NA
ATOM     13  C   LIG    1        5.178   2.320  -0.802  0.00  0.00    +0.168 A 
ENDROOT
BRANCH   1  14
ATOM     14  C   LIG    1        3.046   1.067  -0.856  0.00  0.00    +0.128 C 
BRANCH  14  16
ATOM     15  C   LIG    1        0.990   1.017  -2.317  0.00  0.00    +0.005 C 
ATOM     16  C   LIG    1        2.509   1.070  -2.288  0.00  0.00    +0.018 C 
ENDBRANCH  14  16
ENDBRANCH   1  14
TORSDOF 2
