REMARK  Name = *****
REMARK                            x       y       z     vdW  Elec       q    Type
REMARK                         _______ _______ _______ _____ _____    ______ ____
ROOT
ATOM      1  C   LIG    1        9.752   8.732   5.615  0.00  0.00    +0.185 C 
ATOM      2  O   LIG    1       11.091   8.906   5.162  0.00  0.00    -0.334 OA
ATOM      3  C   LIG    1       11.303  10.323   5.063  0.00  0.00    +0.217 C 
ATOM      4  O   LIG    1       10.017  10.963   5.263  0.00  0.00    -0.341 OA
ATOM      5  C   LIG    1        9.035   9.947   5.129  0.00  0.00    +0.198 C 
ENDROOT
BRANCH   3   6
ATOM      6  C   LIG    1       11.853  10.669   3.676  0.00  0.00    +0.031 A 
ATOM      7  C   LIG    1       12.709   9.836   2.921  0.00  0.00    +0.051 A 
ATOM      8 CL   LIG    1       13.230   8.266   3.431  0.00  0.00    -0.083 Cl
ATOM      9  C   LIG    1       13.190  10.239   1.667  0.00  0.00    +0.040 A 
ATOM     10  C   LIG    1       12.805  11.460   1.129  0.00  0.00    +0.042 A 
ATOM     11 CL   LIG    1       13.374  11.925  -0.426  0.00  0.00    -0.084 Cl
ATOM     12  C   LIG    1       11.954  12.296   1.837  0.00  0.00    +0.020 A 
ATOM     13  C   LIG    1       11.497  11.911   3.101  0.00  0.00    +0.012 A 
ENDBRANCH   3   6
BRANCH   1  14
ATOM     14  C   LIG    1        9.175   7.458   5.062  0.00  0.00    +0.263 C 
BRANCH  14  15
ATOM     15  O   LIG    1        7.826   7.276   5.503  0.00  0.00    -0.489 OA
BRANCH  15  19
ATOM     16  C   LIG    1        6.417   3.312   5.286  0.00  0.00    +0.030 A 
ATOM     17  C   LIG    1        7.725   3.628   4.931  0.00  0.00    +0.027 A 
ATOM     18  C   LIG    1        8.187   4.935   4.954  0.00  0.00    +0.047 A 
ATOM     19  C   LIG    1        7.389   5.981   5.407  0.00  0.00    +0.121 A 
ATOM     20  C   LIG    1        6.092   5.698   5.814  0.00  0.00    +0.047 A 
ATOM     21  C   LIG    1        5.621   4.377   5.752  0.00  0.00    +0.027 A 
BRANCH  16  27
ATOM     22  C   LIG    1        4.198   1.060   0.428  0.00  0.00    +0.109 C 
ATOM     23  C   LIG    1        5.545   0.880   1.103  0.00  0.00    +0.213 C 
ATOM     24  N   LIG    1        5.550   1.046   2.493  0.00  0.00    -0.299 N 
ATOM     25  C   LIG    1        4.598   1.969   3.123  0.00  0.00    +0.126 C 
ATOM     26  C   LIG    1        4.559   1.879   4.653  0.00  0.00    +0.124 C 
ATOM     27  N   LIG    1        5.918   2.008   5.210  0.00  0.00    -0.327 N 
ATOM     28  C   LIG    1        6.789   0.916   4.710  0.00  0.00    +0.124 C 
ATOM     29  C   LIG    1        6.852   0.880   3.165  0.00  0.00    +0.126 C 
ATOM     30  O   LIG    1        6.528   0.562   0.468  0.00  0.00    -0.276 OA
ENDBRANCH  16  27
ENDBRANCH  15  19
ENDBRANCH  14  15
ENDBRANCH   1  14
BRANCH   3  31
ATOM     31  C   LIG    1       12.234  10.747   6.223  0.00  0.00    +0.193 C 
BRANCH  31  32
ATOM     32  N   LIG    1       12.402  12.177   6.391  0.00  0.00    -0.331 N 
ATOM     33  C   LIG    1       13.587  12.855   6.373  0.00  0.00    +0.199 A 
ATOM     34  N   LIG    1       13.415  14.131   6.639  0.00  0.00    -0.244 NA
ATOM     35  C   LIG    1       12.069  14.283   6.843  0.00  0.00    +0.130 A 
ATOM     36  C   LIG    1       11.421  13.082   6.696  0.00  0.00    +0.107 A 
ENDBRANCH  31  32
ENDBRANCH   3  31
TORSDOF 7
