REMARK  Name = *****
REMARK                            x       y       z     vdW  Elec       q    Type
REMARK                         _______ _______ _______ _____ _____    ______ ____
ROOT
ATOM      1  C   LIG    1        6.211  -2.275  -2.503  0.00  0.00    +0.027 A 
ATOM      2  C   LIG    1        6.877  -3.485  -2.751  0.00  0.00    +0.024 A 
ATOM      3  C   LIG    1        8.254  -3.515  -2.986  0.00  0.00    +0.017 A 
ATOM      4  C   LIG    1        9.003  -2.332  -2.939  0.00  0.00    +0.059 A 
ATOM      5  C   LIG    1        8.346  -1.117  -2.716  0.00  0.00    +0.017 A 
ATOM      6  C   LIG    1        6.972  -1.100  -2.473  0.00  0.00    +0.024 A 
ENDROOT
BRANCH   1   7
ATOM      7  N   LIG    1        4.859  -2.189  -2.142  0.00  0.00    -0.344 N 
ATOM      8  H   LIG    1        4.501  -1.248  -2.287  0.00  0.00    +0.146 HD
BRANCH   7   9
ATOM      9  C   LIG    1        3.964  -3.207  -2.670  0.00  0.00    +0.101 C 
BRANCH   9  10
ATOM     10  C   LIG    1        2.532  -2.937  -2.210  0.00  0.00    +0.018 C 
BRANCH  10  12
ATOM     11  C   LIG    1        1.844  -5.390  -2.272  0.00  0.00    +0.004 C 
ATOM     12  C   LIG    1        1.551  -3.976  -2.756  0.00  0.00    -0.002 C 
ENDBRANCH  10  12
ENDBRANCH   9  10
ENDBRANCH   7   9
ENDBRANCH   1   7
BRANCH   4  13
ATOM     13  C   LIG    1       10.480  -2.413  -3.048  0.00  0.00    +0.339 C 
ATOM     14  O   LIG    1       11.111  -3.463  -2.942  0.00  0.00    -0.245 OA
BRANCH  13  15
ATOM     15  O   LIG    1       10.999  -1.194  -3.274  0.00  0.00    -0.460 OA
BRANCH  15  16
ATOM     16  C   LIG    1       12.432  -1.150  -3.408  0.00  0.00    +0.247 C 
BRANCH  16  17
ATOM     17  C   LIG    1       13.103  -1.074  -2.026  0.00  0.00    +0.125 C 
BRANCH  17  18
ATOM     18  N   LIG    1       14.577  -0.981  -2.049  0.00  0.00    -0.305 NA
ATOM     19  C   LIG    1       15.193  -2.109  -2.752  0.00  0.00    +0.104 C 
ATOM     20  C   LIG    1       15.085  -0.937  -0.672  0.00  0.00    +0.104 C 
ENDBRANCH  17  18
ENDBRANCH  16  17
ENDBRANCH  15  16
ENDBRANCH  13  15
ENDBRANCH   4  13
TORSDOF 9
