REMARK  Name = *****
REMARK                            x       y       z     vdW  Elec       q    Type
REMARK                         _______ _______ _______ _____ _____    ______ ____
ROOT
ATOM      1  C   LIG    1        5.239  -0.887  -2.368  0.00  0.00    +0.086 C 
ENDROOT
BRANCH   1   2
ATOM      2  C   LIG    1        6.730  -0.650  -2.468  0.00  0.00    +0.147 C 
ATOM      3  O   LIG    1        7.175   0.460  -2.773  0.00  0.00    -0.296 OA
BRANCH   2   4
ATOM      4  C   LIG    1        7.665  -1.805  -2.126  0.00  0.00    +0.152 C 
BRANCH   4   5
ATOM      5  N   LIG    1        8.017  -1.770  -0.705  0.00  0.00    -0.324 NA
ATOM      6  H   LIG    1        8.737  -2.473  -0.532  0.00  0.00    +0.119 HD
ATOM      7  H   LIG    1        8.468  -0.873  -0.504  0.00  0.00    +0.119 HD
ENDBRANCH   4   5
ENDBRANCH   2   4
ENDBRANCH   1   2
BRANCH   1   8
ATOM      8  C   LIG    1        4.651  -0.360  -1.066  0.00  0.00    +0.128 C 
BRANCH   8   9
ATOM      9  C   LIG    1        3.166  -0.625  -1.016  0.00  0.00    +0.307 C 
ATOM     10  O   LIG    1        2.612  -1.576  -1.561  0.00  0.00    -0.251 OA
BRANCH   9  12
ATOM     11  C   LIG    1        1.115   0.134  -0.177  0.00  0.00    +0.280 C 
ATOM     12  O   LIG    1        2.532   0.315  -0.265  0.00  0.00    -0.468 OA
ENDBRANCH   9  12
ENDBRANCH   8   9
ENDBRANCH   1   8
TORSDOF 6
