REMARK  Name = *****
REMARK                            x       y       z     vdW  Elec       q    Type
REMARK                         _______ _______ _______ _____ _____    ______ ____
ROOT
ATOM      1  C   LIG    1        1.408   0.393   0.293  0.00  0.00    +0.027 C 
ATOM      2  C   LIG    1        2.822  -0.067  -0.089  0.00  0.00    +0.084 C 
ATOM      3  C   LIG    1        2.880  -1.547  -0.588  0.00  0.00    +0.165 C 
ATOM      4  O   LIG    1        2.207  -1.682  -1.855  0.00  0.00    -0.369 OA
ATOM      5  C   LIG    1        2.812  -0.835  -2.838  0.00  0.00    +0.176 C 
ATOM      6  C   LIG    1        2.780   0.640  -2.413  0.00  0.00    +0.109 C 
ATOM      7  N   LIG    1        3.398   0.871  -1.093  0.00  0.00    -0.309 NA
ATOM      8  H   LIG    1        4.396   0.672  -1.172  0.00  0.00    +0.122 HD
ENDROOT
BRANCH   3   9
ATOM      9  C   LIG    1        2.334  -2.544   0.419  0.00  0.00    -0.017 A 
ATOM     10  C   LIG    1        1.055  -3.107   0.285  0.00  0.00    +0.006 A 
ATOM     11  C   LIG    1        0.568  -4.008   1.234  0.00  0.00    +0.000 A 
ATOM     12  C   LIG    1        1.352  -4.358   2.331  0.00  0.00    +0.000 A 
ATOM     13  C   LIG    1        2.623  -3.808   2.480  0.00  0.00    +0.000 A 
ATOM     14  C   LIG    1        3.111  -2.906   1.532  0.00  0.00    +0.006 A 
ENDBRANCH   3   9
TORSDOF 1
