REMARK  Name = *****
REMARK                            x       y       z     vdW  Elec       q    Type
REMARK                         _______ _______ _______ _____ _____    ______ ____
ROOT
ATOM      1  C   LIG    1        2.825   0.916  -4.475  0.00  0.00    +0.068 C 
ATOM      2  C   LIG    1        1.921   1.685  -5.486  0.00  0.00    +0.097 C 
ATOM      3  C   LIG    1        2.773   2.744  -6.159  0.00  0.00    +0.065 C 
ATOM      4  C   LIG    1        3.627   3.446  -5.385  0.00  0.00    +0.016 C 
ATOM      5  C   LIG    1        4.404   4.655  -5.826  0.00  0.00    +0.061 C 
ATOM      6  N   LIG    1        3.837   3.014  -4.066  0.00  0.00    -0.319 N 
ATOM      7  H   LIG    1        4.580   3.485  -3.544  0.00  0.00    +0.152 HD
ATOM      8  C   LIG    1        3.663   1.666  -3.699  0.00  0.00    +0.045 C 
ENDROOT
BRANCH   2   9
ATOM      9  C   LIG    1        0.577   2.237  -4.888  0.00  0.00    -0.017 A 
ATOM     10  C   LIG    1       -0.267   3.216  -5.448  0.00  0.00    +0.045 A 
ATOM     11 CL   LIG    1        0.121   4.241  -6.775  0.00  0.00    -0.083 Cl
ATOM     12  C   LIG    1       -1.542   3.486  -4.908  0.00  0.00    +0.020 A 
ATOM     13  C   LIG    1       -2.011   2.830  -3.780  0.00  0.00    +0.001 A 
ATOM     14  C   LIG    1       -1.191   1.903  -3.174  0.00  0.00    +0.000 A 
ATOM     15  C   LIG    1        0.067   1.629  -3.728  0.00  0.00    +0.006 A 
ENDBRANCH   2   9
BRANCH   1  16
ATOM     16  C   LIG    1        2.700  -0.581  -4.611  0.00  0.00    +0.338 C 
ATOM     17  O   LIG    1        2.282  -1.132  -5.605  0.00  0.00    -0.245 OA
BRANCH  16  18
ATOM     18  O   LIG    1        3.147  -1.234  -3.509  0.00  0.00    -0.462 OA
BRANCH  18  20
ATOM     19  C   LIG    1        1.461  -1.058  -1.781  0.00  0.00    +0.048 C 
ATOM     20  C   LIG    1        2.179  -1.986  -2.744  0.00  0.00    +0.229 C 
ENDBRANCH  18  20
ENDBRANCH  16  18
ENDBRANCH   1  16
BRANCH   3  21
ATOM     21  C   LIG    1        2.649   2.881  -7.650  0.00  0.00    +0.337 C 
ATOM     22  O   LIG    1        2.906   3.843  -8.294  0.00  0.00    -0.245 OA
BRANCH  21  23
ATOM     23  O   LIG    1        2.188   1.685  -8.140  0.00  0.00    -0.465 OA
ATOM     24  C   LIG    1        2.043   1.596  -9.553  0.00  0.00    +0.280 C 
ENDBRANCH  21  23
ENDBRANCH   3  21
BRANCH   8  25
ATOM     25  C   LIG    1        4.543   1.198  -2.540  0.00  0.00    +0.211 C 
BRANCH  25  26
ATOM     26  O   LIG    1        4.850   2.273  -1.614  0.00  0.00    -0.373 OA
BRANCH  26  27
ATOM     27  C   LIG    1        5.567   1.776  -0.463  0.00  0.00    +0.175 C 
BRANCH  27  28
ATOM     28  C   LIG    1        7.019   1.370  -0.812  0.00  0.00    +0.106 C 
BRANCH  28  29
ATOM     29  N   LIG    1        7.943   2.494  -0.642  0.00  0.00    -0.328 NA
ATOM     30  H   LIG    1        8.526   2.329   0.176  0.00  0.00    +0.118 HD
ATOM     31  H   LIG    1        7.410   3.341  -0.439  0.00  0.00    +0.118 HD
ENDBRANCH  28  29
ENDBRANCH  27  28
ENDBRANCH  26  27
ENDBRANCH  25  26
ENDBRANCH   8  25
TORSDOF 11
