REMARK  Name = *****
REMARK                            x       y       z     vdW  Elec       q    Type
REMARK                         _______ _______ _______ _____ _____    ______ ____
ROOT
ATOM      1  N   LIG    1        3.964  -0.510   0.018  0.00  0.00    -0.155 NA
ATOM      2  C   LIG    1        5.248  -0.619  -0.093  0.00  0.00    +0.184 C 
ATOM      3  N   LIG    1        5.904  -1.713  -0.622  0.00  0.00    -0.244 N 
ATOM      4  C   LIG    1        5.213  -2.910  -1.056  0.00  0.00    +0.175 C 
ATOM      5  N   LIG    1        7.277  -1.716  -0.645  0.00  0.00    -0.141 NA
ATOM      6  C   LIG    1        7.691  -0.584  -0.142  0.00  0.00    +0.254 C 
ATOM      7  S   LIG    1        6.466   0.540   0.426  0.00  0.00    -0.011 S 
ENDROOT
BRANCH   1   9
ATOM      8  C   LIG    1        2.253   0.388   1.445  0.00  0.00    +0.111 C 
ATOM      9  C   LIG    1        3.404   0.640   0.507  0.00  0.00    +0.235 C 
ATOM     10  O   LIG    1        3.681   1.774   0.134  0.00  0.00    -0.274 OA
ENDBRANCH   1   9
BRANCH   6  11
ATOM     11  S   LIG    1        9.438  -0.252  -0.049  0.00  0.00    +0.081 S 
ATOM     12  O   LIG    1        9.779  -0.243   1.357  0.00  0.00    -0.151 OA
ATOM     13  O   LIG    1        9.697   0.861  -0.932  0.00  0.00    -0.151 OA
BRANCH  11  14
ATOM     14  N   LIG    1       10.227  -1.594  -0.729  0.00  0.00    -0.202 NA
ATOM     15  H   LIG    1        9.991  -2.456  -0.237  0.00  0.00    +0.144 HD
ATOM     16  H   LIG    1       10.068  -1.643  -1.736  0.00  0.00    +0.144 HD
ENDBRANCH  11  14
ENDBRANCH   6  11
TORSDOF 3
