REMARK  Name = *****
REMARK                            x       y       z     vdW  Elec       q    Type
REMARK                         _______ _______ _______ _____ _____    ______ ____
ROOT
ATOM      1  C   LIG    1        3.016  -0.640   1.126  0.00  0.00    -0.007 C 
ATOM      2  C   LIG    1        2.684  -2.131   1.414  0.00  0.00    +0.009 C 
ATOM      3  C   LIG    1        3.453  -3.143   0.564  0.00  0.00    +0.001 C 
ATOM      4  C   LIG    1        4.955  -2.896   0.578  0.00  0.00    +0.000 C 
ATOM      5  C   LIG    1        5.296  -1.458   0.216  0.00  0.00    +0.001 C 
ATOM      6  C   LIG    1        4.562  -0.465   1.118  0.00  0.00    +0.009 C 
ENDROOT
BRANCH   1   7
ATOM      7  C   LIG    1        2.379  -0.214  -0.229  0.00  0.00    +0.085 C 
BRANCH   7   8
ATOM      8  N   LIG    1        2.570   1.209  -0.534  0.00  0.00    -0.329 NA
ATOM      9  H   LIG    1        3.561   1.366  -0.741  0.00  0.00    +0.118 HD
ATOM     10  H   LIG    1        2.106   1.412  -1.425  0.00  0.00    +0.118 HD
ENDBRANCH   7   8
ENDBRANCH   1   7
BRANCH   1  11
ATOM     11  C   LIG    1        2.443   0.237   2.280  0.00  0.00    +0.128 C 
BRANCH  11  12
ATOM     12  C   LIG    1        0.944   0.138   2.457  0.00  0.00    +0.305 C 
ATOM     13  O   LIG    1        0.381  -0.697   3.163  0.00  0.00    -0.251 OA
BRANCH  12  14
ATOM     14  O   LIG    1        0.263   1.051   1.723  0.00  0.00    -0.481 OA
ATOM     15  H   LIG    1        0.858   1.592   1.142  0.00  0.00    +0.295 HD
ENDBRANCH  12  14
ENDBRANCH  11  12
ENDBRANCH   1  11
TORSDOF 5
