REMARK  Name = *****
REMARK                            x       y       z     vdW  Elec       q    Type
REMARK                         _______ _______ _______ _____ _____    ______ ____
ROOT
ATOM      1  C   LIG    1        5.302   2.550  -0.947  0.00  0.00    +0.069 C 
ENDROOT
BRANCH   1   2
ATOM      2  C   LIG    1        4.721   3.737  -0.164  0.00  0.00    -0.038 A 
ATOM      3  C   LIG    1        3.712   4.531  -0.741  0.00  0.00    +0.006 A 
ATOM      4  C   LIG    1        3.145   5.596  -0.033  0.00  0.00    +0.020 A 
ATOM      5  C   LIG    1        3.580   5.878   1.259  0.00  0.00    +0.041 A 
ATOM      6 CL   LIG    1        2.896   7.202   2.122  0.00  0.00    -0.084 Cl
ATOM      7  C   LIG    1        4.562   5.093   1.856  0.00  0.00    +0.020 A 
ATOM      8  C   LIG    1        5.124   4.022   1.152  0.00  0.00    +0.006 A 
ENDBRANCH   1   2
BRANCH   1   9
ATOM      9  C   LIG    1        6.835   2.500  -0.952  0.00  0.00    +0.049 A 
ATOM     10  N   LIG    1        7.436   1.352  -0.544  0.00  0.00    -0.259 NA
ATOM     11  C   LIG    1        8.779   1.256  -0.633  0.00  0.00    +0.111 A 
ATOM     12  C   LIG    1        9.584   2.273  -1.099  0.00  0.00    +0.020 A 
ATOM     13  C   LIG    1        8.973   3.455  -1.485  0.00  0.00    +0.003 A 
ATOM     14  C   LIG    1        7.584   3.578  -1.422  0.00  0.00    +0.024 A 
ENDBRANCH   1   9
BRANCH   1  15
ATOM     15  C   LIG    1        4.646   1.250  -0.418  0.00  0.00    +0.029 C 
BRANCH  15  16
ATOM     16  C   LIG    1        4.842   0.025  -1.335  0.00  0.00    +0.085 C 
BRANCH  16  18
ATOM     17  C   LIG    1        4.376  -2.303  -1.764  0.00  0.00    +0.104 C 
ATOM     18  N   LIG    1        4.138  -1.183  -0.848  0.00  0.00    -0.308 NA
ATOM     19  C   LIG    1        4.571  -1.560   0.501  0.00  0.00    +0.104 C 
ENDBRANCH  16  18
ENDBRANCH  15  16
ENDBRANCH   1  15
TORSDOF 5
