REMARK  Name = *****
REMARK                            x       y       z     vdW  Elec       q    Type
REMARK                         _______ _______ _______ _____ _____    ______ ____
ROOT
ATOM      1  C   LIG    1        4.594   0.035  -6.481  0.00  0.00    +0.237 C 
ATOM      2  N   LIG    1        4.156  -1.205  -6.947  0.00  0.00    -0.288 N 
ATOM      3  C   LIG    1        3.053  -1.901  -6.241  0.00  0.00    +0.166 C 
ATOM      4  C   LIG    1        2.796  -3.140  -7.113  0.00  0.00    +0.029 C 
ATOM      5  C   LIG    1        2.102  -3.179  -8.492  0.00  0.00    -0.025 C 
ATOM      6  C   LIG    1        1.726  -4.514  -9.091  0.00  0.00    +0.011 C 
ATOM      7  C   LIG    1        1.208  -2.054  -8.948  0.00  0.00    +0.011 C 
ATOM      8  C   LIG    1        3.578  -2.950  -8.372  0.00  0.00    +0.018 C 
ATOM      9  C   LIG    1        4.192  -1.605  -8.340  0.00  0.00    +0.113 C 
ATOM     10  O   LIG    1        4.412   0.366  -5.310  0.00  0.00    -0.274 OA
ENDROOT
BRANCH   3  11
ATOM     11  C   LIG    1        3.378  -2.288  -4.772  0.00  0.00    +0.234 C 
ATOM     12  N   LIG    1        4.722  -2.458  -4.513  0.00  0.00    -0.304 N 
ATOM     13  H   LIG    1        5.351  -2.270  -5.288  0.00  0.00    +0.149 HD
ATOM     14  O   LIG    1        2.506  -2.559  -3.950  0.00  0.00    -0.274 OA
BRANCH  12  15
ATOM     15  C   LIG    1        5.272  -2.721  -3.182  0.00  0.00    +0.149 C 
BRANCH  15  16
ATOM     16  C   LIG    1        6.126  -3.983  -3.218  0.00  0.00    +0.237 C 
ATOM     17  O   LIG    1        6.431  -4.653  -2.235  0.00  0.00    -0.285 OA
BRANCH  16  18
ATOM     18  C   LIG    1        6.723  -4.345  -4.569  0.00  0.00    +0.279 C 
ATOM     19  O   LIG    1        7.793  -3.861  -4.936  0.00  0.00    -0.267 OA
ATOM     20  N   LIG    1        5.957  -5.156  -5.354  0.00  0.00    -0.323 N 
ATOM     21  H   LIG    1        6.304  -5.421  -6.266  0.00  0.00    +0.145 HD
ATOM     22  H   LIG    1        5.094  -5.568  -5.016  0.00  0.00    +0.145 HD
ENDBRANCH  16  18
ENDBRANCH  15  16
BRANCH  15  23
ATOM     23  C   LIG    1        6.110  -1.530  -2.679  0.00  0.00    +0.034 C 
BRANCH  23  24
ATOM     24  C   LIG    1        5.235  -0.312  -2.413  0.00  0.00    -0.009 C 
ATOM     25  C   LIG    1        4.402  -0.240  -1.115  0.00  0.00    +0.004 C 
ATOM     26  C   LIG    1        4.665   1.283  -1.126  0.00  0.00    +0.000 C 
ATOM     27  C   LIG    1        5.943   0.982  -1.937  0.00  0.00    +0.004 C 
ENDBRANCH  23  24
ENDBRANCH  15  23
ENDBRANCH  12  15
ENDBRANCH   3  11
BRANCH   1  28
ATOM     28  C   LIG    1        5.385   0.984  -7.426  0.00  0.00    +0.166 C 
BRANCH  28  32
ATOM     29  N   LIG    1        4.062   4.443  -6.845  0.00  0.00    -0.295 N 
ATOM     30  H   LIG    1        4.873   4.655  -6.301  0.00  0.00    +0.151 HD
ATOM     31  C   LIG    1        4.005   3.148  -7.314  0.00  0.00    +0.301 C 
ATOM     32  N   LIG    1        5.150   2.418  -7.032  0.00  0.00    -0.288 N 
ATOM     33  H   LIG    1        5.772   2.796  -6.333  0.00  0.00    +0.151 HD
ATOM     34  O   LIG    1        3.058   2.678  -7.972  0.00  0.00    -0.253 OA
BRANCH  29  36
ATOM     35  C   LIG    1        3.675   6.816  -6.239  0.00  0.00    +0.031 C 
ATOM     36  C   LIG    1        3.084   5.582  -6.973  0.00  0.00    +0.028 C 
ATOM     37  C   LIG    1        2.825   6.002  -8.431  0.00  0.00    +0.031 C 
ATOM     38  C   LIG    1        1.702   5.281  -6.365  0.00  0.00    +0.031 C 
ENDBRANCH  29  36
ENDBRANCH  28  32
BRANCH  28  39
ATOM     39  C   LIG    1        6.936   0.641  -7.517  0.00  0.00    -0.011 C 
ATOM     40  C   LIG    1        7.216  -0.761  -8.092  0.00  0.00    +0.013 C 
ATOM     41  C   LIG    1        7.670   0.713  -6.163  0.00  0.00    +0.013 C 
ATOM     42  C   LIG    1        7.620   1.620  -8.493  0.00  0.00    +0.013 C 
ENDBRANCH  28  39
ENDBRANCH   1  28
TORSDOF 10
