REMARK  Name = *****
REMARK                            x       y       z     vdW  Elec       q    Type
REMARK                         _______ _______ _______ _____ _____    ______ ____
ROOT
ATOM      1  O   LIG    1        4.707   0.316  -0.574  0.00  0.00    -0.458 OA
ENDROOT
BRANCH   1   2
ATOM      2  C   LIG    1        4.889  -1.069  -0.254  0.00  0.00    +0.180 C 
ATOM      3  C   LIG    1        4.329  -1.323   1.297  0.00  0.00    +0.063 C 
ATOM      4  C   LIG    1        3.991  -2.797   1.366  0.00  0.00    +0.061 C 
ATOM      5  N   LIG    1        3.119  -2.701   0.225  0.00  0.00    -0.289 NA
ATOM      6  C   LIG    1        3.927  -3.363  -0.763  0.00  0.00    +0.061 C 
ATOM      7  C   LIG    1        3.438  -4.802  -0.679  0.00  0.00    +0.030 C 
ATOM      8  C   LIG    1        2.920  -5.044   0.859  0.00  0.00    +0.060 C 
ATOM      9  C   LIG    1        1.548  -4.442   0.736  0.00  0.00    +0.150 C 
ATOM     10  O   LIG    1        0.498  -5.039   0.926  0.00  0.00    -0.296 OA
ATOM     11  C   LIG    1        1.675  -2.989   0.343  0.00  0.00    +0.159 C 
ATOM     12  C   LIG    1        3.515  -4.074   2.039  0.00  0.00    +0.030 C 
ATOM     13  C   LIG    1        4.247  -2.051  -1.453  0.00  0.00    +0.063 C 
ENDBRANCH   1   2
BRANCH   1  15
ATOM     14  O   LIG    1        6.505   0.198  -1.990  0.00  0.00    -0.245 OA
ATOM     15  C   LIG    1        5.578   0.828  -1.491  0.00  0.00    +0.342 C 
BRANCH  15  16
ATOM     16  C   LIG    1        5.263   2.205  -1.841  0.00  0.00    +0.084 C 
ATOM     17  C   LIG    1        5.646   2.906  -3.031  0.00  0.00    +0.014 C 
ATOM     18  C   LIG    1        5.098   4.188  -2.960  0.00  0.00    +0.047 C 
ATOM     19  C   LIG    1        5.252   5.136  -3.978  0.00  0.00    +0.026 C 
ATOM     20  C   LIG    1        5.985   4.761  -5.109  0.00  0.00    +0.002 C 
ATOM     21  C   LIG    1        6.545   3.491  -5.212  0.00  0.00    +0.001 C 
ATOM     22  N   LIG    1        4.430   4.276  -1.762  0.00  0.00    -0.360 NA
ATOM     23  H   LIG    1        3.937   5.098  -1.442  0.00  0.00    +0.165 HD
ATOM     24  C   LIG    1        6.385   2.557  -4.182  0.00  0.00    +0.011 C 
ATOM     25  C   LIG    1        4.511   3.090  -1.085  0.00  0.00    +0.098 C 
ENDBRANCH  15  16
ENDBRANCH   1  15
TORSDOF 3
