REMARK  Name = *****
REMARK                            x       y       z     vdW  Elec       q    Type
REMARK                         _______ _______ _______ _____ _____    ______ ____
ROOT
ATOM      1  C   LIG    1        4.294   0.018   0.057  0.00  0.00    +0.342 C 
ENDROOT
BRANCH   1   3
ATOM      2  O   LIG    1        0.919   0.018   0.057  0.00  0.00    -0.256 OA
ATOM      3  P   LIG    1        2.464   0.018   0.057  0.00  0.00    +0.368 P 
BRANCH   3   4
ATOM      4  O   LIG    1        2.479   0.330  -1.570  0.00  0.00    -0.322 OA
ATOM      5  H   LIG    1        1.541   0.330  -1.862  0.00  0.00    +0.220 HD
ENDBRANCH   3   4
BRANCH   3   6
ATOM      6  O   LIG    1        2.498  -1.619  -0.132  0.00  0.00    -0.322 OA
ATOM      7  H   LIG    1        1.578  -1.924  -0.271  0.00  0.00    +0.220 HD
ENDBRANCH   3   6
ENDBRANCH   1   3
BRANCH   1   8
ATOM      8  P   LIG    1        5.151   1.413   0.782  0.00  0.00    +0.368 P 
ATOM      9  O   LIG    1        6.649   1.425   0.828  0.00  0.00    -0.256 OA
BRANCH   8  10
ATOM     10  O   LIG    1        4.564   1.558   2.270  0.00  0.00    -0.322 OA
ATOM     11  H   LIG    1        5.137   2.119   2.831  0.00  0.00    +0.220 HD
ENDBRANCH   8  10
BRANCH   8  12
ATOM     12  O   LIG    1        4.579   2.755   0.123  0.00  0.00    -0.322 OA
ATOM     13  H   LIG    1        5.173   3.517   0.266  0.00  0.00    +0.220 HD
ENDBRANCH   8  12
ENDBRANCH   1   8
BRANCH   1  14
ATOM     14  O   LIG    1        4.820  -0.231  -1.276  0.00  0.00    -0.370 OA
ATOM     15  H   LIG    1        4.016  -0.263  -1.841  0.00  0.00    +0.211 HD
ENDBRANCH   1  14
TORSDOF 7
