REMARK  Name = *****
REMARK                            x       y       z     vdW  Elec       q    Type
REMARK                         _______ _______ _______ _____ _____    ______ ____
ROOT
ATOM      1  C   LIG    1        0.739   1.170   0.504  0.00  0.00    +0.044 C 
ATOM      2  C   LIG    1        2.022   0.522   0.077  0.00  0.00    -0.050 A 
ATOM      3  C   LIG    1        2.179  -0.861   0.188  0.00  0.00    +0.009 A 
ATOM      4  C   LIG    1        3.369  -1.494  -0.227  0.00  0.00    -0.015 A 
ATOM      5  C   LIG    1        4.435  -0.727  -0.741  0.00  0.00    +0.035 A 
ATOM      6  C   LIG    1        4.249   0.653  -0.884  0.00  0.00    +0.024 A 
ATOM      7  C   LIG    1        3.062   1.271  -0.477  0.00  0.00    +0.005 A 
ENDROOT
BRANCH   5   8
ATOM      8  N   LIG    1        5.610  -1.371  -1.205  0.00  0.00    -0.311 N 
ATOM      9  H   LIG    1        5.391  -1.866  -2.074  0.00  0.00    +0.152 HD
BRANCH   8  10
ATOM     10  C   LIG    1        6.931  -0.835  -1.301  0.00  0.00    +0.086 A 
ATOM     11  C   LIG    1        7.774  -1.209  -2.367  0.00  0.00    +0.065 A 
ATOM     12 CL   LIG    1        7.194  -2.246  -3.626  0.00  0.00    -0.082 Cl
ATOM     13  C   LIG    1        9.096  -0.747  -2.457  0.00  0.00    +0.022 A 
ATOM     14  C   LIG    1        9.614   0.082  -1.464  0.00  0.00    +0.004 A 
ATOM     15  C   LIG    1        8.810   0.440  -0.386  0.00  0.00    +0.040 A 
ATOM     16  C   LIG    1        7.493  -0.019  -0.306  0.00  0.00    +0.146 A 
ATOM     17  F   LIG    1        6.776   0.327   0.775  0.00  0.00    -0.203 F 
ENDBRANCH   8  10
ENDBRANCH   5   8
BRANCH   4  18
ATOM     18  C   LIG    1        3.499  -2.981   0.024  0.00  0.00    +0.157 C 
BRANCH  18  19
ATOM     19  C   LIG    1        3.985  -3.369   1.402  0.00  0.00    +0.309 C 
ATOM     20  O   LIG    1        4.088  -4.545   1.741  0.00  0.00    -0.251 OA
BRANCH  19  21
ATOM     21  O   LIG    1        4.269  -2.373   2.268  0.00  0.00    -0.480 OA
ATOM     22  H   LIG    1        4.206  -1.470   1.895  0.00  0.00    +0.295 HD
ENDBRANCH  19  21
ENDBRANCH  18  19
ENDBRANCH   4  18
TORSDOF 5
