REMARK  Name = *****
REMARK                            x       y       z     vdW  Elec       q    Type
REMARK                         _______ _______ _______ _____ _____    ______ ____
ROOT
ATOM      1  C   LIG    1        4.195  -0.072   2.366  0.00  0.00    +0.095 C 
ENDROOT
BRANCH   1   2
ATOM      2  C   LIG    1        4.193  -1.554   2.963  0.00  0.00    +0.025 C 
ATOM      3  C   LIG    1        3.073  -2.502   2.454  0.00  0.00    +0.006 C 
ATOM      4  C   LIG    1        3.403  -3.332   1.215  0.00  0.00    +0.000 C 
ATOM      5  C   LIG    1        4.735  -4.057   1.335  0.00  0.00    +0.000 C 
ATOM      6  C   LIG    1        5.864  -3.116   1.730  0.00  0.00    +0.000 C 
ATOM      7  C   LIG    1        5.541  -2.310   2.987  0.00  0.00    +0.006 C 
ENDBRANCH   1   2
BRANCH   1   8
ATOM      8  C   LIG    1        5.022   0.849   3.283  0.00  0.00    -0.016 A 
ATOM      9  C   LIG    1        4.472   1.355   4.484  0.00  0.00    +0.006 A 
ATOM     10  C   LIG    1        5.234   2.128   5.362  0.00  0.00    +0.000 A 
ATOM     11  C   LIG    1        6.558   2.421   5.078  0.00  0.00    +0.000 A 
ATOM     12  C   LIG    1        7.127   1.940   3.898  0.00  0.00    +0.000 A 
ATOM     13  C   LIG    1        6.366   1.162   3.021  0.00  0.00    +0.006 A 
ENDBRANCH   1   8
BRANCH   1  14
ATOM     14  O   LIG    1        2.824   0.372   2.424  0.00  0.00    -0.384 OA
ATOM     15  H   LIG    1        2.831   1.348   2.403  0.00  0.00    +0.211 HD
ENDBRANCH   1  14
BRANCH   1  16
ATOM     16  C   LIG    1        4.587  -0.007   0.862  0.00  0.00    +0.055 C 
BRANCH  16  17
ATOM     17  C   LIG    1        4.332   1.327   0.096  0.00  0.00    +0.087 C 
BRANCH  17  18
ATOM     18  N   LIG    1        4.765   1.268  -1.322  0.00  0.00    -0.302 NA
ATOM     19  C   LIG    1        4.174   0.169  -2.099  0.00  0.00    +0.084 C 
ATOM     20  C   LIG    1        2.702   0.394  -2.438  0.00  0.00    +0.015 C 
ATOM     21  C   LIG    1        2.556   1.642  -3.296  0.00  0.00    +0.002 C 
ATOM     22  C   LIG    1        3.208   2.843  -2.615  0.00  0.00    +0.015 C 
ATOM     23  C   LIG    1        4.609   2.540  -2.057  0.00  0.00    +0.084 C 
ENDBRANCH  17  18
ENDBRANCH  16  17
ENDBRANCH   1  16
TORSDOF 6
