REMARK  Name = *****
REMARK                            x       y       z     vdW  Elec       q    Type
REMARK                         _______ _______ _______ _____ _____    ______ ____
ROOT
ATOM      1  O   LIG    1        6.748  -4.551   0.545  0.00  0.00    -0.489 OA
ENDROOT
BRANCH   1   2
ATOM      2  C   LIG    1        7.973  -4.820   1.124  0.00  0.00    +0.128 A 
ATOM      3  C   LIG    1        8.795  -5.788   0.482  0.00  0.00    +0.024 A 
ATOM      4  C   LIG    1       10.050  -6.113   1.044  0.00  0.00    -0.014 A 
ATOM      5  C   LIG    1       10.892  -7.048   0.414  0.00  0.00    +0.008 A 
ATOM      6  C   LIG    1       10.512  -7.643  -0.789  0.00  0.00    +0.001 A 
ATOM      7  C   LIG    1        9.281  -7.341  -1.352  0.00  0.00    +0.001 A 
ATOM      8  C   LIG    1       10.474  -5.488   2.228  0.00  0.00    +0.009 A 
ATOM      9  C   LIG    1        9.675  -4.524   2.836  0.00  0.00    +0.004 A 
ATOM     10  C   LIG    1        8.421  -6.437  -0.718  0.00  0.00    +0.012 A 
ATOM     11  C   LIG    1        8.440  -4.191   2.290  0.00  0.00    +0.046 A 
ENDBRANCH   1   2
BRANCH   1  12
ATOM     12  C   LIG    1        5.957  -3.551   1.186  0.00  0.00    +0.261 C 
BRANCH  12  13
ATOM     13  C   LIG    1        4.627  -3.299   0.465  0.00  0.00    +0.166 C 
BRANCH  13  14
ATOM     14  O   LIG    1        3.983  -2.182   1.099  0.00  0.00    -0.387 OA
ATOM     15  H   LIG    1        3.814  -2.449   2.022  0.00  0.00    +0.210 HD
ENDBRANCH  13  14
BRANCH  13  16
ATOM     16  C   LIG    1        3.657  -4.508   0.398  0.00  0.00    +0.115 C 
BRANCH  16  17
ATOM     17  N   LIG    1        3.153  -4.968   1.709  0.00  0.00    -0.311 NA
ATOM     18  H   LIG    1        3.942  -5.290   2.269  0.00  0.00    +0.122 HD
BRANCH  17  20
ATOM     19  C   LIG    1        1.775  -6.531   3.000  0.00  0.00    +0.024 C 
ATOM     20  C   LIG    1        2.198  -6.095   1.593  0.00  0.00    +0.048 C 
ATOM     21  C   LIG    1        0.945  -5.757   0.777  0.00  0.00    +0.024 C 
ENDBRANCH  17  20
ENDBRANCH  16  17
ENDBRANCH  13  16
ENDBRANCH  12  13
ENDBRANCH   1  12
TORSDOF 7
