REMARK  Name = *****
REMARK                            x       y       z     vdW  Elec       q    Type
REMARK                         _______ _______ _______ _____ _____    ______ ____
ROOT
ATOM      1  C   LIG    1        6.939   0.179   0.364  0.00  0.00    +0.248 C 
ATOM      2  N   LIG    1        7.522  -1.037   0.034  0.00  0.00    -0.281 N 
ATOM      3  H   LIG    1        7.076  -1.876   0.378  0.00  0.00    +0.155 HD
ATOM      4  O   LIG    1        7.391   1.293   0.125  0.00  0.00    -0.270 OA
ENDROOT
BRANCH   1   9
ATOM      5  C   LIG    1        1.982  -0.087   3.385  0.00  0.00    +0.045 C 
ATOM      6  C   LIG    1        3.250   0.012   2.584  0.00  0.00    -0.035 A 
ATOM      7  C   LIG    1        4.127   1.110   2.725  0.00  0.00    +0.029 A 
ATOM      8  C   LIG    1        5.315   1.149   1.977  0.00  0.00    +0.030 A 
ATOM      9  C   LIG    1        5.651   0.100   1.113  0.00  0.00    +0.038 A 
ATOM     10  C   LIG    1        4.772  -0.978   0.962  0.00  0.00    +0.013 A 
ATOM     11  C   LIG    1        3.586  -1.021   1.698  0.00  0.00    +0.005 A 
BRANCH   7  12
ATOM     12  C   LIG    1        3.861   2.156   3.658  0.00  0.00    -0.059 C 
ATOM     13  C   LIG    1        3.627   2.979   4.515  0.00  0.00    -0.040 C 
BRANCH  13  14
ATOM     14  C   LIG    1        3.355   3.848   5.591  0.00  0.00    +0.136 A 
ATOM     15  N   LIG    1        2.493   3.588   6.628  0.00  0.00    -0.205 N 
ATOM     16  C   LIG    1        2.582   4.667   7.497  0.00  0.00    +0.155 A 
ATOM     17  C   LIG    1        1.811   4.609   8.680  0.00  0.00    +0.050 A 
ATOM     18  C   LIG    1        1.028   3.546   8.902  0.00  0.00    +0.025 A 
ATOM     19  C   LIG    1        1.021   2.483   7.870  0.00  0.00    +0.133 A 
ATOM     20  N   LIG    1        3.414   5.586   7.051  0.00  0.00    -0.233 NA
ATOM     21  N   LIG    1        1.712   2.470   6.774  0.00  0.00    -0.172 NA
ATOM     22  C   LIG    1        3.896   5.085   5.865  0.00  0.00    +0.150 A 
ENDBRANCH  13  14
ENDBRANCH   7  12
ENDBRANCH   1   9
BRANCH   2  23
ATOM     23  C   LIG    1        8.731  -1.236  -0.669  0.00  0.00    +0.034 A 
ATOM     24  C   LIG    1        9.163  -2.553  -0.879  0.00  0.00    +0.036 A 
ATOM     25  C   LIG    1       10.382  -2.854  -1.544  0.00  0.00    +0.061 A 
ATOM     26  C   LIG    1       11.171  -1.791  -2.023  0.00  0.00    -0.022 A 
ATOM     27  C   LIG    1       10.704  -0.475  -1.840  0.00  0.00    +0.007 A 
ATOM     28  C   LIG    1        9.514  -0.203  -1.161  0.00  0.00    +0.024 A 
BRANCH  25  29
ATOM     29  C   LIG    1       10.727  -4.324  -1.681  0.00  0.00    +0.418 C 
ATOM     30  F   LIG    1        9.751  -4.995  -2.364  0.00  0.00    -0.166 F 
ATOM     31  F   LIG    1       10.794  -4.940  -0.464  0.00  0.00    -0.166 F 
ATOM     32  F   LIG    1       11.878  -4.636  -2.326  0.00  0.00    -0.166 F 
ENDBRANCH  25  29
BRANCH  26  33
ATOM     33  C   LIG    1       12.498  -1.963  -2.743  0.00  0.00    +0.120 C 
BRANCH  33  34
ATOM     34  N   LIG    1       13.566  -2.592  -1.947  0.00  0.00    -0.296 NA
ATOM     35  C   LIG    1       14.822  -2.655  -2.735  0.00  0.00    +0.100 C 
ATOM     36  C   LIG    1       15.559  -1.297  -2.905  0.00  0.00    +0.099 C 
ATOM     37  N   LIG    1       15.746  -0.503  -1.674  0.00  0.00    -0.303 NA
ATOM     38  C   LIG    1       16.892  -0.975  -0.898  0.00  0.00    +0.105 C 
ATOM     39  C   LIG    1       14.514  -0.507  -0.859  0.00  0.00    +0.099 C 
ATOM     40  C   LIG    1       13.871  -1.900  -0.681  0.00  0.00    +0.100 C 
ENDBRANCH  33  34
ENDBRANCH  26  33
ENDBRANCH   2  23
TORSDOF 7
