REMARK  Name = *****
REMARK                            x       y       z     vdW  Elec       q    Type
REMARK                         _______ _______ _______ _____ _____    ______ ____
ROOT
ATOM      1  N   LIG    1        2.477  -2.118   1.042  0.00  0.00    -0.230 N 
ATOM      2  H   LIG    1        2.253  -2.145   2.031  0.00  0.00    +0.173 HD
ATOM      3  C   LIG    1        2.372  -3.247   0.241  0.00  0.00    +0.260 C 
ATOM      4  O   LIG    1        2.855  -3.386  -0.878  0.00  0.00    -0.269 OA
ENDROOT
BRANCH   1   7
ATOM      5  C   LIG    1        2.689   0.438  -1.289  0.00  0.00    +0.030 C 
ATOM      6  C   LIG    1        2.510   0.201   0.208  0.00  0.00    +0.096 C 
ATOM      7  N   LIG    1        3.282  -1.011   0.642  0.00  0.00    -0.247 N 
ATOM      8  C   LIG    1        4.067  -0.537   1.738  0.00  0.00    +0.051 A 
ATOM      9  C   LIG    1        3.934   0.828   1.983  0.00  0.00    -0.023 A 
ATOM     10  C   LIG    1        4.597   1.459   3.025  0.00  0.00    +0.005 A 
ATOM     11  C   LIG    1        5.421   0.689   3.843  0.00  0.00    +0.000 A 
ATOM     12  C   LIG    1        5.574  -0.684   3.602  0.00  0.00    +0.002 A 
ATOM     13  C   LIG    1        4.899  -1.303   2.544  0.00  0.00    +0.025 A 
ATOM     14  C   LIG    1        3.009   1.437   0.998  0.00  0.00    +0.061 C 
ENDBRANCH   1   7
BRANCH   3  15
ATOM     15  C   LIG    1        1.566  -4.379   0.830  0.00  0.00    +0.040 A 
ATOM     16  C   LIG    1        1.803  -5.705   0.432  0.00  0.00    +0.043 A 
ATOM     17  C   LIG    1        1.012  -6.763   0.933  0.00  0.00    +0.124 A 
ATOM     18  C   LIG    1       -0.007  -6.502   1.851  0.00  0.00    +0.067 A 
ATOM     19 CL   LIG    1       -1.018  -7.715   2.549  0.00  0.00    -0.082 Cl
ATOM     20  C   LIG    1       -0.240  -5.180   2.249  0.00  0.00    +0.022 A 
ATOM     21  C   LIG    1        0.530  -4.128   1.735  0.00  0.00    +0.014 A 
BRANCH  17  22
ATOM     22  S   LIG    1        1.298  -8.416   0.378  0.00  0.00    +0.057 S 
ATOM     23  O   LIG    1        0.171  -8.839  -0.434  0.00  0.00    -0.153 OA
ATOM     24  O   LIG    1        1.824  -9.194   1.470  0.00  0.00    -0.153 OA
BRANCH  22  25
ATOM     25  N   LIG    1        2.575  -8.266  -0.706  0.00  0.00    -0.203 NA
ATOM     26  H   LIG    1        2.279  -8.525  -1.647  0.00  0.00    +0.144 HD
ATOM     27  H   LIG    1        3.391  -8.777  -0.366  0.00  0.00    +0.144 HD
ENDBRANCH  22  25
ENDBRANCH  17  22
ENDBRANCH   3  15
TORSDOF 4
