REMARK  Name = *****
REMARK                            x       y       z     vdW  Elec       q    Type
REMARK                         _______ _______ _______ _____ _____    ______ ____
ROOT
ATOM      1  C   LIG    1        4.559  -1.556   0.463  0.00  0.00    +0.015 C 
ATOM      2  C   LIG    1        5.880  -0.781   0.446  0.00  0.00    +0.112 C 
ATOM      3  N   LIG    1        6.785  -1.607   1.208  0.00  0.00    -0.290 N 
ATOM      4  C   LIG    1        6.346  -2.922   1.313  0.00  0.00    +0.216 C 
ATOM      5  O   LIG    1        6.929  -3.844   1.844  0.00  0.00    -0.276 OA
ATOM      6  C   LIG    1        5.024  -3.017   0.566  0.00  0.00    +0.101 C 
ENDROOT
BRANCH   1   7
ATOM      7  C   LIG    1        3.647  -1.162   1.641  0.00  0.00    +0.005 C 
BRANCH   7   9
ATOM      8  C   LIG    1        2.235   0.654   2.699  0.00  0.00    +0.004 C 
ATOM      9  C   LIG    1        3.130   0.278   1.529  0.00  0.00    -0.003 C 
ENDBRANCH   7   9
ENDBRANCH   1   7
BRANCH   3  10
ATOM     10  C   LIG    1        8.092  -1.153   1.677  0.00  0.00    +0.161 C 
BRANCH  10  11
ATOM     11  C   LIG    1        7.901  -0.164   2.844  0.00  0.00    +0.231 C 
ATOM     12  O   LIG    1        7.754   1.047   2.705  0.00  0.00    -0.274 OA
ATOM     13  N   LIG    1        7.816  -0.726   4.086  0.00  0.00    -0.328 N 
ATOM     14  H   LIG    1        7.621  -0.106   4.862  0.00  0.00    +0.145 HD
ATOM     15  H   LIG    1        7.664  -1.719   4.209  0.00  0.00    +0.145 HD
ENDBRANCH  10  11
BRANCH  10  16
ATOM     16  C   LIG    1        8.924  -0.492   0.568  0.00  0.00    +0.028 C 
ATOM     17  C   LIG    1        9.226  -1.425  -0.596  0.00  0.00    +0.006 C 
ENDBRANCH  10  16
ENDBRANCH   3  10
TORSDOF 5
