REMARK  Name = *****
REMARK                            x       y       z     vdW  Elec       q    Type
REMARK                         _______ _______ _______ _____ _____    ______ ____
ROOT
ATOM      1  C   LIG    1        3.129   1.720  -0.312  0.00  0.00    -0.006 A 
ATOM      2  C   LIG    1        4.502   2.088  -0.392  0.00  0.00    +0.007 A 
ATOM      3  C   LIG    1        5.554   1.164  -0.596  0.00  0.00    +0.010 A 
ATOM      4  C   LIG    1        6.884   1.565  -0.656  0.00  0.00    +0.001 A 
ATOM      5  C   LIG    1        7.191   2.905  -0.505  0.00  0.00    +0.014 A 
ATOM      6  C   LIG    1        6.170   3.858  -0.315  0.00  0.00    +0.081 A 
ATOM      7  C   LIG    1        4.831   3.468  -0.275  0.00  0.00    +0.084 A 
ATOM      8  N   LIG    1        3.880   4.402  -0.129  0.00  0.00    -0.242 NA
ATOM      9  C   LIG    1        2.565   4.064  -0.124  0.00  0.00    +0.145 A 
ATOM     10  C   LIG    1        2.167   2.737  -0.217  0.00  0.00    +0.039 A 
ENDROOT
BRANCH   6  11
ATOM     11  C   LIG    1        6.595   5.298  -0.161  0.00  0.00    +0.419 C 
ATOM     12  F   LIG    1        7.295   5.734  -1.252  0.00  0.00    -0.166 F 
ATOM     13  F   LIG    1        7.457   5.449   0.890  0.00  0.00    -0.166 F 
ATOM     14  F   LIG    1        5.623   6.226   0.039  0.00  0.00    -0.166 F 
ENDBRANCH   6  11
BRANCH   9  15
ATOM     15  C   LIG    1        1.523   5.166   0.016  0.00  0.00    +0.434 C 
ATOM     16  F   LIG    1        1.567   6.084  -0.991  0.00  0.00    -0.164 F 
ATOM     17  F   LIG    1        1.651   5.872   1.178  0.00  0.00    -0.164 F 
ATOM     18  F   LIG    1        0.239   4.697   0.023  0.00  0.00    -0.164 F 
ENDBRANCH   9  15
BRANCH   1  19
ATOM     19  C   LIG    1        2.644   0.275  -0.316  0.00  0.00    +0.162 C 
BRANCH  19  20
ATOM     20  C   LIG    1        1.850  -0.161   0.966  0.00  0.00    +0.087 C 
ATOM     21  N   LIG    1        1.204  -1.490   0.771  0.00  0.00    -0.311 NA
ATOM     22  H   LIG    1        0.520  -1.617   1.522  0.00  0.00    +0.122 HD
ATOM     23  C   LIG    1        2.156  -2.605   0.846  0.00  0.00    +0.081 C 
ATOM     24  C   LIG    1        2.946  -2.611   2.151  0.00  0.00    +0.015 C 
ATOM     25  C   LIG    1        3.655  -1.282   2.377  0.00  0.00    +0.003 C 
ATOM     26  C   LIG    1        2.672  -0.121   2.263  0.00  0.00    +0.021 C 
ENDBRANCH  19  20
BRANCH  19  27
ATOM     27  O   LIG    1        1.781   0.117  -1.451  0.00  0.00    -0.386 OA
ATOM     28  H   LIG    1        1.244  -0.673  -1.235  0.00  0.00    +0.210 HD
ENDBRANCH  19  27
ENDBRANCH   1  19
TORSDOF 5
