REMARK  Name = *****
REMARK                            x       y       z     vdW  Elec       q    Type
REMARK                         _______ _______ _______ _____ _____    ______ ____
ROOT
ATOM      1  C   LIG    1        1.696   6.625  10.224  0.00  0.00    +0.178 C 
ATOM      2  C   LIG    1        1.639   6.585   8.678  0.00  0.00    +0.151 C 
ATOM      3  C   LIG    1        1.978   5.159   8.236  0.00  0.00    +0.095 C 
ATOM      4  C   LIG    1        1.167   4.148   9.059  0.00  0.00    +0.253 C 
ATOM      5  O   LIG    1        0.089   4.792   9.735  0.00  0.00    -0.346 OA
ATOM      6  C   LIG    1        0.554   5.712  10.743  0.00  0.00    +0.150 C 
ATOM      7  C   LIG    1       -0.658   6.519  11.193  0.00  0.00    +0.040 C 
ENDROOT
BRANCH   2   8
ATOM      8  O   LIG    1        2.550   7.514   8.088  0.00  0.00    -0.389 OA
ATOM      9  H   LIG    1        2.486   7.408   7.123  0.00  0.00    +0.210 HD
ENDBRANCH   2   8
BRANCH   1  10
ATOM     10  O   LIG    1        3.002   6.114  10.554  0.00  0.00    -0.343 OA
BRANCH  10  14
ATOM     11  C   LIG    1        4.591   5.887  14.327  0.00  0.00    +0.178 C 
ATOM     12  C   LIG    1        5.576   5.780  13.154  0.00  0.00    +0.151 C 
ATOM     13  C   LIG    1        4.803   5.433  11.890  0.00  0.00    +0.095 C 
ATOM     14  C   LIG    1        3.362   5.971  11.919  0.00  0.00    +0.254 C 
ATOM     15  O   LIG    1        3.242   7.186  12.647  0.00  0.00    -0.346 OA
ATOM     16  C   LIG    1        3.717   7.135  14.011  0.00  0.00    +0.150 C 
ATOM     17  C   LIG    1        4.488   8.438  14.239  0.00  0.00    +0.040 C 
BRANCH  12  18
ATOM     18  O   LIG    1        6.645   4.874  13.414  0.00  0.00    -0.389 OA
ATOM     19  H   LIG    1        6.466   4.034  12.963  0.00  0.00    +0.210 HD
ENDBRANCH  12  18
BRANCH  11  20
ATOM     20  O   LIG    1        3.818   4.650  14.387  0.00  0.00    -0.343 OA
BRANCH  20  26
ATOM     21  C   LIG    1        3.220   5.421  18.970  0.00  0.00    +0.040 C 
ATOM     22  C   LIG    1        2.470   5.033  17.705  0.00  0.00    +0.149 C 
ATOM     23  C   LIG    1        1.624   3.763  17.878  0.00  0.00    +0.171 C 
ATOM     24  C   LIG    1        0.994   3.354  16.532  0.00  0.00    +0.150 C 
ATOM     25  C   LIG    1        2.023   3.345  15.399  0.00  0.00    +0.095 C 
ATOM     26  C   LIG    1        2.826   4.650  15.414  0.00  0.00    +0.254 C 
ATOM     27  O   LIG    1        3.442   4.834  16.678  0.00  0.00    -0.346 OA
BRANCH  23  28
ATOM     28  O   LIG    1        0.584   3.980  18.835  0.00  0.00    -0.387 OA
ATOM     29  H   LIG    1       -0.085   4.525  18.372  0.00  0.00    +0.210 HD
ENDBRANCH  23  28
BRANCH  24  30
ATOM     30  O   LIG    1       -0.046   4.301  16.224  0.00  0.00    -0.389 OA
ATOM     31  H   LIG    1       -0.637   3.881  15.571  0.00  0.00    +0.210 HD
ENDBRANCH  24  30
ENDBRANCH  20  26
ENDBRANCH  11  20
ENDBRANCH  10  14
ENDBRANCH   1  10
BRANCH   4  32
ATOM     32  O   LIG    1        0.682   3.155   8.166  0.00  0.00    -0.348 OA
BRANCH  32  33
ATOM     33  C   LIG    1       -0.055   2.078   8.758  0.00  0.00    +0.122 C 
ATOM     34  C   LIG    1        0.762   1.249   9.760  0.00  0.00    +0.035 C 
ATOM     35  C   LIG    1        2.044   0.712   9.108  0.00  0.00    -0.002 C 
ATOM     36  C   LIG    1        2.937  -0.025  10.124  0.00  0.00    +0.004 C 
ATOM     37  C   LIG    1        4.050  -0.865   9.475  0.00  0.00    +0.007 C 
ATOM     38  C   LIG    1        4.404  -0.367   8.077  0.00  0.00    +0.025 C 
ATOM     39  C   LIG    1        5.561  -1.036   7.329  0.00  0.00    +0.077 C 
ATOM     40  C   LIG    1        5.265  -2.466   6.774  0.00  0.00    +0.029 C 
ATOM     41  C   LIG    1        5.278  -3.608   7.857  0.00  0.00    +0.017 C 
ATOM     42  C   LIG    1        6.569  -2.725   5.928  0.00  0.00    +0.030 C 
ATOM     43  C   LIG    1        7.671  -2.101   6.871  0.00  0.00    +0.011 C 
ATOM     44  C   LIG    1        3.845  -2.548   6.168  0.00  0.00    +0.124 C 
ATOM     45  C   LIG    1        3.199  -1.200   5.867  0.00  0.00    +0.036 C 
ATOM     46  C   LIG    1        6.953  -1.198   7.920  0.00  0.00    +0.036 C 
ATOM     47  C   LIG    1        3.166  -0.243   7.094  0.00  0.00    +0.003 C 
ATOM     48  C   LIG    1        1.779  -0.127   7.821  0.00  0.00    -0.026 C 
ATOM     49  C   LIG    1        1.149  -1.501   8.153  0.00  0.00    +0.012 C 
ATOM     50  C   LIG    1        0.778   0.618   6.880  0.00  0.00    +0.009 C 
ATOM     51  C   LIG    1       -0.462   1.162   7.600  0.00  0.00    +0.032 C 
BRANCH  42  52
ATOM     52  C   LIG    1        6.661  -2.247   4.489  0.00  0.00    -0.022 C 
ATOM     53  C   LIG    1        6.342  -3.148   3.352  0.00  0.00    +0.264 C 
ATOM     54  O   LIG    1        6.618  -2.370   2.176  0.00  0.00    -0.457 OA
ATOM     55  C   LIG    1        7.037  -1.150   2.552  0.00  0.00    +0.332 C 
ATOM     56  O   LIG    1        7.331  -0.219   1.790  0.00  0.00    -0.246 OA
ATOM     57  C   LIG    1        7.117  -1.091   4.002  0.00  0.00    +0.094 C 
ENDBRANCH  42  52
BRANCH  39  58
ATOM     58  O   LIG    1        5.774  -0.101   6.240  0.00  0.00    -0.388 OA
ATOM     59  H   LIG    1        6.051   0.755   6.612  0.00  0.00    +0.210 HD
ENDBRANCH  39  58
BRANCH  44  60
ATOM     60  O   LIG    1        3.795  -3.424   5.054  0.00  0.00    -0.391 OA
ATOM     61  H   LIG    1        2.884  -3.412   4.712  0.00  0.00    +0.210 HD
ENDBRANCH  44  60
ENDBRANCH  32  33
ENDBRANCH   4  32
TORSDOF 13
