REMARK  Name = *****
REMARK                            x       y       z     vdW  Elec       q    Type
REMARK                         _______ _______ _______ _____ _____    ______ ____
ROOT
ATOM      1  C   LIG    1        3.407  -0.033  -0.150  0.00  0.00    +0.132 C 
ATOM      2  C   LIG    1        4.138   1.232   0.411  0.00  0.00    +0.014 C 
ATOM      3  C   LIG    1        3.413   2.419  -0.317  0.00  0.00    +0.002 C 
ATOM      4  C   LIG    1        2.367   3.249   0.480  0.00  0.00    -0.003 C 
ATOM      5  C   LIG    1        2.720   3.428   1.974  0.00  0.00    -0.000 C 
ATOM      6  C   LIG    1        2.897   2.031   2.572  0.00  0.00    +0.005 C 
ATOM      7  C   LIG    1        3.919   4.399   2.161  0.00  0.00    +0.019 C 
ATOM      8  C   LIG    1        3.561   5.723   1.505  0.00  0.00    -0.064 C 
ATOM      9  C   LIG    1        3.453   6.890   2.162  0.00  0.00    +0.026 C 
ATOM     10  C   LIG    1        3.587   6.936   3.647  0.00  0.00    +0.080 C 
ATOM     11  C   LIG    1        3.542   5.605   4.370  0.00  0.00    +0.059 C 
ATOM     12  N   LIG    1        3.687   8.009   4.371  0.00  0.00    -0.092 NA
ATOM     13  C   LIG    1        3.261   5.623   0.033  0.00  0.00    +0.031 C 
ATOM     14  C   LIG    1        4.385   4.590   3.616  0.00  0.00    +0.014 C 
ATOM     15  C   LIG    1        2.122   4.623  -0.192  0.00  0.00    +0.008 C 
ATOM     16  C   LIG    1        2.745   1.811  -1.578  0.00  0.00    +0.008 C 
ATOM     17  C   LIG    1        4.080   1.291   1.970  0.00  0.00    +0.011 C 
ATOM     18  C   LIG    1        3.057   0.319  -1.597  0.00  0.00    +0.049 C 
ENDROOT
BRANCH   1  20
ATOM     19  C   LIG    1        4.850  -2.281  -0.021  0.00  0.00    +0.007 C 
ATOM     20  C   LIG    1        4.200  -1.270  -0.076  0.00  0.00    -0.070 C 
ENDBRANCH   1  20
BRANCH   1  21
ATOM     21  O   LIG    1        2.187  -0.273   0.554  0.00  0.00    -0.376 OA
ATOM     22  H   LIG    1        1.558   0.430   0.333  0.00  0.00    +0.211 HD
ENDBRANCH   1  21
BRANCH  12  23
ATOM     23  O   LIG    1        3.710   9.170   3.589  0.00  0.00    -0.409 OA
ATOM     24  H   LIG    1        3.820   9.869   4.261  0.00  0.00    +0.328 HD
ENDBRANCH  12  23
BRANCH   2  25
ATOM     25  C   LIG    1        5.680   1.286   0.067  0.00  0.00    +0.007 C 
ATOM     26  C   LIG    1        6.131   1.209  -1.385  0.00  0.00    +0.004 C 
ENDBRANCH   2  25
TORSDOF 4
