REMARK  Name = *****
REMARK                            x       y       z     vdW  Elec       q    Type
REMARK                         _______ _______ _______ _____ _____    ______ ____
ROOT
ATOM      1  N   LIG    1        3.080  -8.442  -3.948  0.00  0.00    -0.302 NA
ATOM      2  C   LIG    1        4.182  -8.822  -4.831  0.00  0.00    +0.085 C 
ATOM      3  C   LIG    1        4.871 -10.132  -4.448  0.00  0.00    +0.022 C 
ATOM      4  C   LIG    1        3.936 -11.324  -4.084  0.00  0.00    +0.032 C 
ATOM      5  C   LIG    1        2.559 -10.863  -3.543  0.00  0.00    +0.022 C 
ATOM      6  C   LIG    1        2.067  -9.499  -4.020  0.00  0.00    +0.085 C 
ENDROOT
BRANCH   1   7
ATOM      7  C   LIG    1        3.464  -8.116  -2.566  0.00  0.00    +0.084 C 
BRANCH   7   8
ATOM      8  C   LIG    1        4.453  -6.941  -2.449  0.00  0.00    +0.018 C 
BRANCH   8   9
ATOM      9  C   LIG    1        4.784  -6.659  -0.977  0.00  0.00    +0.037 C 
BRANCH   9  10
ATOM     10  C   LIG    1        5.786  -5.508  -0.767  0.00  0.00    +0.144 C 
BRANCH  10  14
ATOM     11  C   LIG    1        6.625  -4.951   3.505  0.00  0.00    -0.042 A 
ATOM     12  C   LIG    1        6.876  -6.165   2.845  0.00  0.00    +0.004 A 
ATOM     13  C   LIG    1        6.621  -6.335   1.478  0.00  0.00    +0.006 A 
ATOM     14  C   LIG    1        6.078  -5.298   0.712  0.00  0.00    -0.019 A 
ATOM     15  C   LIG    1        5.824  -4.083   1.359  0.00  0.00    +0.006 A 
ATOM     16  C   LIG    1        6.089  -3.911   2.728  0.00  0.00    +0.004 A 
BRANCH  11  18
ATOM     17  C   LIG    1        7.960  -3.607   5.192  0.00  0.00    +0.015 C 
ATOM     18  C   LIG    1        6.935  -4.748   5.000  0.00  0.00    -0.013 C 
ATOM     19  C   LIG    1        5.664  -4.377   5.793  0.00  0.00    +0.015 C 
ATOM     20  C   LIG    1        7.526  -6.021   5.648  0.00  0.00    +0.015 C 
ENDBRANCH  11  18
ENDBRANCH  10  14
BRANCH  10  21
ATOM     21  O   LIG    1        5.260  -4.309  -1.334  0.00  0.00    -0.387 OA
ATOM     22  H   LIG    1        5.304  -4.396  -2.300  0.00  0.00    +0.210 HD
ENDBRANCH  10  21
ENDBRANCH   9  10
ENDBRANCH   8   9
ENDBRANCH   7   8
ENDBRANCH   1   7
BRANCH   4  23
ATOM     23  C   LIG    1        3.890 -12.489  -5.156  0.00  0.00    +0.119 C 
BRANCH  23  24
ATOM     24  C   LIG    1        3.193 -12.012  -6.445  0.00  0.00    -0.011 A 
ATOM     25  C   LIG    1        1.807 -12.176  -6.607  0.00  0.00    +0.007 A 
ATOM     26  C   LIG    1        1.150 -11.726  -7.751  0.00  0.00    +0.000 A 
ATOM     27  C   LIG    1        1.873 -11.094  -8.760  0.00  0.00    +0.000 A 
ATOM     28  C   LIG    1        3.249 -10.933  -8.629  0.00  0.00    +0.000 A 
ATOM     29  C   LIG    1        3.909 -11.397  -7.488  0.00  0.00    +0.007 A 
ENDBRANCH  23  24
BRANCH  23  30
ATOM     30  C   LIG    1        3.331 -13.855  -4.662  0.00  0.00    -0.011 A 
ATOM     31  C   LIG    1        2.803 -14.057  -3.368  0.00  0.00    +0.007 A 
ATOM     32  C   LIG    1        2.265 -15.292  -2.985  0.00  0.00    +0.000 A 
ATOM     33  C   LIG    1        2.238 -16.352  -3.869  0.00  0.00    +0.000 A 
ATOM     34  C   LIG    1        2.760 -16.191  -5.155  0.00  0.00    +0.000 A 
ATOM     35  C   LIG    1        3.311 -14.960  -5.534  0.00  0.00    +0.007 A 
ENDBRANCH  23  30
BRANCH  23  36
ATOM     36  O   LIG    1        5.272 -12.778  -5.477  0.00  0.00    -0.379 OA
ATOM     37  H   LIG    1        5.630 -13.299  -4.740  0.00  0.00    +0.211 HD
ENDBRANCH  23  36
ENDBRANCH   4  23
TORSDOF 11
