REMARK  Name = *****
REMARK                            x       y       z     vdW  Elec       q    Type
REMARK                         _______ _______ _______ _____ _____    ______ ____
ROOT
ATOM      1  C   LIG    1       -0.453   3.354  -3.350  0.00  0.00    +0.082 C 
ATOM      2  C   LIG    1        0.773   2.399  -3.379  0.00  0.00    +0.143 C 
ATOM      3  O   LIG    1        1.165   1.847  -2.336  0.00  0.00    -0.297 OA
ATOM      4  C   LIG    1        1.597   2.201  -4.622  0.00  0.00    +0.106 C 
ATOM      5  C   LIG    1        2.545   3.347  -4.963  0.00  0.00    +0.128 C 
ATOM      6  C   LIG    1        2.629   3.727  -6.474  0.00  0.00    +0.060 C 
ATOM      7  C   LIG    1        1.456   3.321  -7.376  0.00  0.00    +0.014 C 
ATOM      8  C   LIG    1        3.076   5.207  -6.738  0.00  0.00    +0.207 C 
ATOM      9  O   LIG    1        1.955   5.911  -7.327  0.00  0.00    -0.455 OA
ATOM     10  C   LIG    1        1.666   7.163  -6.897  0.00  0.00    +0.328 C 
ATOM     11  O   LIG    1        2.394   7.844  -6.184  0.00  0.00    -0.249 OA
ATOM     12  C   LIG    1        0.371   7.710  -7.532  0.00  0.00    +0.185 C 
ATOM     13  N   LIG    1       -0.789   6.783  -7.518  0.00  0.00    -0.281 N 
ATOM     14  C   LIG    1       -1.324   6.343  -8.799  0.00  0.00    +0.109 C 
ATOM     15  C   LIG    1       -0.238   5.970  -9.793  0.00  0.00    +0.019 C 
ATOM     16  C   LIG    1        0.821   7.055  -9.970  0.00  0.00    +0.004 C 
ATOM     17  C   LIG    1       -1.631   6.613  -6.399  0.00  0.00    +0.288 C 
ATOM     18  O   LIG    1       -2.687   5.984  -6.424  0.00  0.00    -0.267 OA
ATOM     19  C   LIG    1       -1.299   7.355  -5.119  0.00  0.00    +0.276 C 
ATOM     20  O   LIG    1       -1.496   8.573  -5.110  0.00  0.00    -0.281 OA
ATOM     21  C   LIG    1       -0.698   6.514  -3.926  0.00  0.00    +0.240 C 
ATOM     22  C   LIG    1        0.179   7.823  -2.784  0.00  0.00    +0.056 C 
ATOM     23  C   LIG    1        1.707   7.754  -2.775  0.00  0.00    +0.013 C 
ATOM     24  C   LIG    1       -0.478   8.131  -1.014  0.00  0.00    +0.043 C 
ATOM     25  C   LIG    1       -1.832   6.990  -0.273  0.00  0.00    +0.150 C 
ATOM     26  C   LIG    1       -2.454   5.473  -1.341  0.00  0.00    +0.179 C 
ATOM     27  C   LIG    1       -2.369   4.117  -0.511  0.00  0.00    +0.149 C 
ATOM     28  C   LIG    1       -1.020   3.618   0.080  0.00  0.00    +0.038 C 
ATOM     29  C   LIG    1        0.066   4.605   0.524  0.00  0.00    -0.008 C 
ATOM     30  C   LIG    1        1.338   3.837   0.930  0.00  0.00    +0.008 C 
ATOM     31  C   LIG    1        0.437   5.782  -0.445  0.00  0.00    +0.033 C 
ATOM     32  C   LIG    1       -0.460   5.887  -1.846  0.00  0.00    -0.076 C 
ATOM     33  C   LIG    1       -1.909   7.215  -2.380  0.00  0.00    +0.038 C 
ATOM     34  O   LIG    1       -2.007   5.408  -3.157  0.00  0.00    -0.334 OA
ATOM     35  C   LIG    1        0.704   8.193  -8.955  0.00  0.00    +0.034 C 
ATOM     36  C   LIG    1       -0.042   4.590  -2.371  0.00  0.00    -0.017 C 
ENDROOT
BRANCH   8  37
ATOM     37  C   LIG    1        4.309   5.348  -7.658  0.00  0.00    -0.036 C 
ATOM     38  C   LIG    1        4.677   4.404  -8.555  0.00  0.00    -0.021 C 
ATOM     39  C   LIG    1        5.142   6.572  -7.364  0.00  0.00    +0.042 C 
BRANCH  38  40
ATOM     40  C   LIG    1        5.955   4.295  -9.361  0.00  0.00    +0.014 C 
ATOM     41  C   LIG    1        7.075   3.576  -8.580  0.00  0.00    +0.042 C 
ATOM     42  C   LIG    1        6.870   2.056  -8.417  0.00  0.00    +0.147 C 
ATOM     43  C   LIG    1        6.626   1.384  -9.784  0.00  0.00    +0.143 C 
ATOM     44  C   LIG    1        5.513   2.071 -10.582  0.00  0.00    +0.034 C 
ATOM     45  C   LIG    1        5.709   3.588 -10.705  0.00  0.00    +0.010 C 
BRANCH  42  46
ATOM     46  O   LIG    1        5.774   1.742  -7.550  0.00  0.00    -0.377 OA
ATOM     47  C   LIG    1        5.982   2.140  -6.200  0.00  0.00    +0.194 C 
ENDBRANCH  42  46
BRANCH  43  48
ATOM     48  O   LIG    1        7.832   1.354 -10.554  0.00  0.00    -0.389 OA
ATOM     49  H   LIG    1        8.055   2.258 -10.828  0.00  0.00    +0.210 HD
ENDBRANCH  43  48
ENDBRANCH  38  40
ENDBRANCH   8  37
BRANCH   5  50
ATOM     50  O   LIG    1        2.393   4.470  -4.099  0.00  0.00    -0.391 OA
ATOM     51  H   LIG    1        2.767   4.210  -3.233  0.00  0.00    +0.210 HD
ENDBRANCH   5  50
BRANCH  27  52
ATOM     52  O   LIG    1       -3.006   3.055  -1.259  0.00  0.00    -0.377 OA
ATOM     53  C   LIG    1       -3.295   1.879  -0.508  0.00  0.00    +0.194 C 
ENDBRANCH  27  52
BRANCH  25  54
ATOM     54  O   LIG    1       -1.646   6.753   1.127  0.00  0.00    -0.377 OA
ATOM     55  C   LIG    1       -1.732   7.963   1.889  0.00  0.00    +0.194 C 
ENDBRANCH  25  54
BRANCH  21  56
ATOM     56  O   LIG    1        0.291   5.810  -4.686  0.00  0.00    -0.358 OA
ATOM     57  H   LIG    1        1.099   5.700  -4.147  0.00  0.00    +0.213 HD
ENDBRANCH  21  56
BRANCH   1  58
ATOM     58  C   LIG    1       -1.267   3.367  -4.687  0.00  0.00    +0.041 C 
BRANCH  58  60
ATOM     59  C   LIG    1       -1.663   1.835  -6.644  0.00  0.00    +0.004 C 
ATOM     60  C   LIG    1       -1.546   2.015  -5.320  0.00  0.00    -0.034 C 
ENDBRANCH  58  60
ENDBRANCH   1  58
TORSDOF 10
