REMARK  Name = *****
REMARK                            x       y       z     vdW  Elec       q    Type
REMARK                         _______ _______ _______ _____ _____    ______ ____
ROOT
ATOM      1  CA  LIG    1       -5.428  -1.260   2.093  0.00  0.00    +0.191 C 
ATOM      2  C   LIG    1       -6.772  -1.900   1.624  0.00  0.00    +0.169 C 
ATOM      3  N   LIG    1       -7.396  -1.113   2.677  0.00  0.00    -0.249 N 
ATOM      4  CA  LIG    1       -8.678  -1.248   3.118  0.00  0.00    +0.128 C 
ATOM      5  C   LIG    1       -9.482  -2.233   2.627  0.00  0.00    +0.033 C 
ATOM      6  C   LIG    1       -8.926  -3.348   1.746  0.00  0.00    +0.110 C 
ATOM      7  S   LIG    1       -7.151  -3.625   1.968  0.00  0.00    -0.131 S 
ATOM      8  C   LIG    1       -6.407  -0.190   2.721  0.00  0.00    +0.244 C 
ATOM      9  O   LIG    1       -6.371   0.959   3.091  0.00  0.00    -0.273 OA
ENDROOT
BRANCH   1  11
ATOM     10  C   LIG    1       -3.703  -2.964   2.718  0.00  0.00    +0.268 C 
ATOM     11  N   LIG    1       -4.586  -1.973   3.083  0.00  0.00    -0.296 N 
ATOM     12  H   LIG    1       -4.734  -1.865   4.087  0.00  0.00    +0.150 HD
ATOM     13  O   LIG    1       -3.550  -3.324   1.559  0.00  0.00    -0.268 OA
BRANCH  10  15
ATOM     14  N   LIG    1       -3.335  -3.781   5.061  0.00  0.00    -0.078 NA
ATOM     15  C   LIG    1       -2.863  -3.554   3.864  0.00  0.00    +0.190 C 
BRANCH  15  16
ATOM     16  C   LIG    1       -1.441  -3.845   3.659  0.00  0.00    +0.107 A 
ATOM     17  N   LIG    1       -0.521  -3.722   4.705  0.00  0.00    -0.223 NA
ATOM     18  C   LIG    1        0.692  -3.987   4.292  0.00  0.00    +0.156 A 
ATOM     19  S   LIG    1        0.818  -4.475   2.654  0.00  0.00    -0.060 S 
ATOM     20  C   LIG    1       -0.870  -4.252   2.466  0.00  0.00    +0.078 A 
BRANCH  18  21
ATOM     21  N   LIG    1        1.776  -3.891   5.075  0.00  0.00    -0.338 N 
ATOM     22  H   LIG    1        1.613  -3.826   6.073  0.00  0.00    +0.144 HD
ATOM     23  H   LIG    1        2.619  -4.385   4.809  0.00  0.00    +0.144 HD
ENDBRANCH  18  21
ENDBRANCH  15  16
BRANCH  14  25
ATOM     24  C   LIG    1       -5.084  -3.792   6.548  0.00  0.00    +0.313 C 
ATOM     25  O   LIG    1       -4.701  -3.511   5.202  0.00  0.00    -0.396 OA
ENDBRANCH  14  25
ENDBRANCH  10  15
ENDBRANCH   1  11
BRANCH   4  26
ATOM     26  C   LIG    1       -9.132  -0.336   4.225  0.00  0.00    +0.352 C 
ATOM     27  O   LIG    1      -10.287  -0.083   4.508  0.00  0.00    -0.244 OA
BRANCH  26  28
ATOM     28  OXT LIG    1       -8.121   0.104   4.984  0.00  0.00    -0.476 OA
ATOM     29  HXT LIG    1       -8.484   0.760   5.616  0.00  0.00    +0.295 HD
ENDBRANCH  26  28
ENDBRANCH   4  26
BRANCH   5  30
ATOM     30  C   LIG    1      -10.967  -2.406   2.930  0.00  0.00    +0.392 C 
BRANCH  30  31
ATOM     31  N   LIG    1      -11.807  -1.675   1.929  0.00  0.00    -0.197 N 
ATOM     32  C   LIG    1      -12.258  -2.253   0.791  0.00  0.00    +0.187 A 
ATOM     33  C   LIG    1      -12.117  -3.681   0.337  0.00  0.00    +0.107 C 
ATOM     34  C   LIG    1      -13.214  -3.758  -0.739  0.00  0.00    +0.015 C 
ATOM     35  C   LIG    1      -13.331  -2.354  -1.344  0.00  0.00    +0.042 C 
ATOM     36  C   LIG    1      -12.967  -1.512  -0.161  0.00  0.00    +0.019 A 
ATOM     37  C   LIG    1      -13.245  -0.177   0.032  0.00  0.00    +0.015 A 
ATOM     38  C   LIG    1      -12.850   0.385   1.234  0.00  0.00    +0.070 A 
ATOM     39  C   LIG    1      -12.157  -0.382   2.171  0.00  0.00    +0.309 A 
ENDBRANCH  30  31
ENDBRANCH   5  30
TORSDOF 9
