REMARK  Name = *****
REMARK                            x       y       z     vdW  Elec       q    Type
REMARK                         _______ _______ _______ _____ _____    ______ ____
ROOT
ATOM      1  C   LIG    1        2.989  -2.282  -0.693  0.00  0.00    +0.284 C 
ENDROOT
BRANCH   1   2
ATOM      2  C   LIG    1        3.120  -1.131   0.331  0.00  0.00    +0.174 C 
BRANCH   2   4
ATOM      3  C   LIG    1        0.801  -0.155  -0.090  0.00  0.00    +0.192 C 
ATOM      4  N   LIG    1        2.288   0.144   0.005  0.00  0.00    +0.239 N 
ATOM      5  C   LIG    1        2.492   1.163   1.135  0.00  0.00    +0.192 C 
ATOM      6  C   LIG    1        2.764   0.780  -1.293  0.00  0.00    +0.192 C 
ENDBRANCH   2   4
ENDBRANCH   1   2
BRANCH   1   7
ATOM      7  O   LIG    1        3.405  -1.973  -2.035  0.00  0.00    -0.445 OA
BRANCH   7   8
ATOM      8  C   LIG    1        4.741  -1.857  -2.223  0.00  0.00    +0.398 C 
ATOM      9  O   LIG    1        5.567  -1.833  -1.337  0.00  0.00    -0.227 OA
ATOM     10  N   LIG    1        5.017  -1.737  -3.542  0.00  0.00    -0.295 N 
ATOM     11  H   LIG    1        5.983  -1.777  -3.840  0.00  0.00    +0.148 HD
ATOM     12  H   LIG    1        4.291  -1.809  -4.238  0.00  0.00    +0.148 HD
ENDBRANCH   7   8
ENDBRANCH   1   7
TORSDOF 4
