REMARK  Name = *****
REMARK                            x       y       z     vdW  Elec       q    Type
REMARK                         _______ _______ _______ _____ _____    ______ ____
ROOT
ATOM      1  N   LIG    1        3.608  -2.705  -0.508  0.00  0.00    -0.327 N 
ATOM      2  C   LIG    1        2.512  -2.521  -1.487  0.00  0.00    +0.120 C 
ATOM      3  C   LIG    1        1.954  -3.897  -1.961  0.00  0.00    +0.103 C 
ATOM      4  N   LIG    1        1.588  -4.880  -0.902  0.00  0.00    -0.299 NA
ATOM      5  C   LIG    1        2.734  -4.965   0.038  0.00  0.00    +0.103 C 
ATOM      6  C   LIG    1        3.223  -3.611   0.596  0.00  0.00    +0.120 C 
ENDROOT
BRANCH   1   9
ATOM      7  C   LIG    1        5.616  -1.459  -2.278  0.00  0.00    +0.045 C 
ATOM      8  C   LIG    1        5.232  -0.905  -0.932  0.00  0.00    -0.029 A 
ATOM      9  C   LIG    1        4.242  -1.504  -0.117  0.00  0.00    +0.033 A 
ATOM     10  C   LIG    1        3.962  -0.885   1.118  0.00  0.00    +0.023 A 
ATOM     11  C   LIG    1        4.644   0.257   1.550  0.00  0.00    +0.002 A 
ATOM     12  C   LIG    1        5.618   0.826   0.746  0.00  0.00    +0.000 A 
ATOM     13  C   LIG    1        5.900   0.258  -0.493  0.00  0.00    +0.005 A 
ENDBRANCH   1   9
BRANCH   4  14
ATOM     14  C   LIG    1        0.306  -4.519  -0.257  0.00  0.00    +0.092 C 
BRANCH  14  15
ATOM     15  C   LIG    1       -0.192  -5.544   0.783  0.00  0.00    +0.091 C 
BRANCH  15  16
ATOM     16  C   LIG    1       -1.515  -5.155   1.359  0.00  0.00    +0.135 A 
ATOM     17  N   LIG    1       -2.661  -5.903   1.319  0.00  0.00    -0.315 N 
ATOM     18  C   LIG    1       -2.862  -7.219   0.751  0.00  0.00    +0.125 C 
ATOM     19  C   LIG    1       -4.290  -7.760   0.918  0.00  0.00    +0.022 C 
ATOM     20  C   LIG    1       -4.956  -7.282   2.211  0.00  0.00    +0.009 C 
ATOM     21  C   LIG    1       -4.965  -5.754   2.273  0.00  0.00    +0.076 C 
ATOM     22  C   LIG    1       -3.599  -5.226   2.047  0.00  0.00    +0.134 A 
ATOM     23  N   LIG    1       -3.070  -4.101   2.483  0.00  0.00    -0.134 NA
ATOM     24  N   LIG    1       -1.763  -4.061   2.057  0.00  0.00    -0.134 NA
ENDBRANCH  15  16
ENDBRANCH  14  15
ENDBRANCH   4  14
TORSDOF 4
