REMARK  Name = *****
REMARK                            x       y       z     vdW  Elec       q    Type
REMARK                         _______ _______ _______ _____ _____    ______ ____
ROOT
ATOM      1  C   LIG    1        4.691  -5.673  -4.878  0.00  0.00    +0.241 C 
ATOM      2  N   LIG    1        5.119  -6.968  -4.711  0.00  0.00    -0.281 N 
ATOM      3  H   LIG    1        5.213  -7.318  -3.756  0.00  0.00    +0.155 HD
ATOM      4  O   LIG    1        4.456  -5.101  -5.933  0.00  0.00    -0.271 OA
ENDROOT
BRANCH   2   5
ATOM      5  C   LIG    1        5.407  -7.906  -5.729  0.00  0.00    +0.048 A 
ATOM      6  C   LIG    1        5.492  -9.276  -5.403  0.00  0.00    +0.080 A 
ATOM      7  C   LIG    1        5.836 -10.218  -6.389  0.00  0.00    +0.017 A 
ATOM      8  C   LIG    1        6.062  -9.805  -7.701  0.00  0.00    +0.001 A 
ATOM      9  C   LIG    1        5.957  -8.457  -8.032  0.00  0.00    +0.002 A 
ATOM     10  C   LIG    1        5.632  -7.515  -7.053  0.00  0.00    +0.024 A 
BRANCH   6  11
ATOM     11  C   LIG    1        5.202  -9.731  -4.023  0.00  0.00    +0.339 C 
ATOM     12  O   LIG    1        5.465  -9.046  -3.032  0.00  0.00    -0.245 OA
BRANCH  11  13
ATOM     13  O   LIG    1        4.553 -10.906  -3.944  0.00  0.00    -0.477 OA
ATOM     14  H   LIG    1        4.205 -11.243  -4.792  0.00  0.00    +0.295 HD
ENDBRANCH  11  13
ENDBRANCH   6  11
ENDBRANCH   2   5
BRANCH   1  16
ATOM     15  C   LIG    1        4.571  -3.659  -3.540  0.00  0.00    +0.013 C 
ATOM     16  C   LIG    1        4.489  -4.994  -3.574  0.00  0.00    +0.068 C 
BRANCH  15  20
ATOM     17  C   LIG    1        3.902  -1.084  -0.190  0.00  0.00    +0.162 A 
ATOM     18  C   LIG    1        3.203  -2.301  -0.264  0.00  0.00    +0.162 A 
ATOM     19  C   LIG    1        3.432  -3.166  -1.348  0.00  0.00    +0.057 A 
ATOM     20  C   LIG    1        4.364  -2.845  -2.343  0.00  0.00    -0.021 A 
ATOM     21  C   LIG    1        5.069  -1.648  -2.243  0.00  0.00    +0.012 A 
ATOM     22  C   LIG    1        4.837  -0.781  -1.183  0.00  0.00    +0.050 A 
BRANCH  17  24
ATOM     23  C   LIG    1        4.720   0.626   1.210  0.00  0.00    +0.277 C 
ATOM     24  O   LIG    1        3.616  -0.184   0.807  0.00  0.00    -0.491 OA
ENDBRANCH  17  24
BRANCH  18  25
ATOM     25  O   LIG    1        2.273  -2.771   0.629  0.00  0.00    -0.491 OA
ATOM     26  C   LIG    1        2.426  -2.319   1.970  0.00  0.00    +0.277 C 
ENDBRANCH  18  25
ENDBRANCH  15  20
ENDBRANCH   1  16
TORSDOF 7
