REMARK  Name = *****
REMARK                            x       y       z     vdW  Elec       q    Type
REMARK                         _______ _______ _______ _____ _____    ______ ____
ROOT
ATOM      1  C   LIG    1       -2.632  -1.168  -0.896  0.00  0.00    +0.024 C 
ATOM      2  C   LIG    1       -3.219  -0.601  -2.204  0.00  0.00    +0.028 C 
ATOM      3  C   LIG    1       -1.623  -2.403  -1.059  0.00  0.00    -0.014 C 
ATOM      4  C   LIG    1       -0.218  -2.183  -0.435  0.00  0.00    +0.013 C 
ATOM      5  C   LIG    1       -1.365  -2.827  -2.517  0.00  0.00    +0.013 C 
ATOM      6  C   LIG    1       -2.334  -3.524  -0.216  0.00  0.00    -0.003 C 
ATOM      7  C   LIG    1       -2.961  -2.732   0.936  0.00  0.00    +0.009 C 
ATOM      8  C   LIG    1       -3.600  -4.059  -0.907  0.00  0.00    +0.004 C 
ATOM      9  C   LIG    1       -4.583  -2.895  -0.768  0.00  0.00    +0.005 C 
ATOM     10  C   LIG    1       -3.762  -1.831  -0.011  0.00  0.00    +0.010 C 
ENDROOT
BRANCH   1  12
ATOM     11  C   LIG    1       -1.282   0.932  -0.765  0.00  0.00    +0.101 C 
ATOM     12  N   LIG    1       -2.070  -0.072  -0.064  0.00  0.00    -0.313 NA
ATOM     13  H   LIG    1       -2.824   0.406   0.429  0.00  0.00    +0.122 HD
ENDBRANCH   1  12
TORSDOF 1
