REMARK  Name = *****
REMARK                            x       y       z     vdW  Elec       q    Type
REMARK                         _______ _______ _______ _____ _____    ______ ____
ROOT
ATOM      1  C   LIG    1        6.751  -1.534   1.292  0.00  0.00    -0.018 A 
ATOM      2  C   LIG    1        5.992  -1.512   0.110  0.00  0.00    +0.008 A 
ATOM      3  C   LIG    1        6.324  -2.331  -0.973  0.00  0.00    +0.025 A 
ATOM      4  C   LIG    1        7.430  -3.174  -0.891  0.00  0.00    +0.048 A 
ATOM      5  C   LIG    1        8.196  -3.214   0.270  0.00  0.00    +0.025 A 
ATOM      6  C   LIG    1        7.867  -2.386   1.351  0.00  0.00    +0.008 A 
ENDROOT
BRANCH   4   7
ATOM      7  N   LIG    1        7.712  -4.075  -1.965  0.00  0.00    -0.221 N 
ATOM      8  H   LIG    1        7.552  -3.668  -2.889  0.00  0.00    +0.173 HD
BRANCH   7   9
ATOM      9  S   LIG    1        6.908  -5.574  -1.884  0.00  0.00    +0.040 S 
ATOM     10  O   LIG    1        6.252  -5.745  -3.168  0.00  0.00    -0.155 OA
ATOM     11  O   LIG    1        6.188  -5.705  -0.642  0.00  0.00    -0.155 OA
ATOM     12  C   LIG    1        8.302  -6.672  -1.842  0.00  0.00    +0.218 C 
ENDBRANCH   7   9
ENDBRANCH   4   7
BRANCH   1  13
ATOM     13  C   LIG    1        6.381  -0.670   2.486  0.00  0.00    +0.158 C 
BRANCH  13  14
ATOM     14  O   LIG    1        6.440   0.701   2.083  0.00  0.00    -0.386 OA
ATOM     15  H   LIG    1        5.936   1.187   2.764  0.00  0.00    +0.210 HD
ENDBRANCH  13  14
BRANCH  13  16
ATOM     16  C   LIG    1        4.967  -0.991   3.050  0.00  0.00    +0.117 C 
BRANCH  16  17
ATOM     17  N   LIG    1        4.577  -0.120   4.185  0.00  0.00    -0.311 NA
ATOM     18  H   LIG    1        5.263  -0.208   4.937  0.00  0.00    +0.122 HD
BRANCH  17  20
ATOM     19  C   LIG    1        2.943   0.443   5.920  0.00  0.00    +0.024 C 
ATOM     20  C   LIG    1        3.243  -0.469   4.726  0.00  0.00    +0.048 C 
ATOM     21  C   LIG    1        2.128  -0.326   3.685  0.00  0.00    +0.024 C 
ENDBRANCH  17  20
ENDBRANCH  16  17
ENDBRANCH  13  16
ENDBRANCH   1  13
TORSDOF 7
