REMARK  Name = *****
REMARK                            x       y       z     vdW  Elec       q    Type
REMARK                         _______ _______ _______ _____ _____    ______ ____
ROOT
ATOM      1  C   LIG    1        2.307  -0.046  -0.015  0.00  0.00    +0.117 A 
ATOM      2  C   LIG    1        3.010  -1.246  -0.079  0.00  0.00    +0.047 A 
ATOM      3  C   LIG    1        4.398  -1.226  -0.224  0.00  0.00    +0.023 A 
ATOM      4  C   LIG    1        5.067  -0.006  -0.302  0.00  0.00    +0.041 A 
ATOM      5 CL   LIG    1        6.777   0.022  -0.487  0.00  0.00    -0.084 Cl
ATOM      6  C   LIG    1        4.359   1.195  -0.231  0.00  0.00    +0.023 A 
ATOM      7  C   LIG    1        2.970   1.177  -0.086  0.00  0.00    +0.047 A 
ENDROOT
BRANCH   1   8
ATOM      8  O   LIG    1        0.953  -0.113   0.118  0.00  0.00    -0.507 OA
ATOM      9  H   LIG    1        0.592   0.789   0.108  0.00  0.00    +0.292 HD
ENDBRANCH   1   8
TORSDOF 1
