REMARK  Name = *****
REMARK                            x       y       z     vdW  Elec       q    Type
REMARK                         _______ _______ _______ _____ _____    ______ ____
ROOT
ATOM      1  C   LIG    1        6.949  -0.841   0.042  0.00  0.00    +0.083 C 
ENDROOT
BRANCH   1   6
ATOM      2 CL   LIG    1       11.328   0.184   4.121  0.00  0.00    -0.084 Cl
ATOM      3  C   LIG    1       10.086  -0.128   2.972  0.00  0.00    +0.041 A 
ATOM      4  C   LIG    1       10.323  -1.006   1.913  0.00  0.00    +0.020 A 
ATOM      5  C   LIG    1        9.317  -1.255   0.970  0.00  0.00    +0.006 A 
ATOM      6  C   LIG    1        8.069  -0.625   1.071  0.00  0.00    -0.037 A 
ATOM      7  C   LIG    1        7.852   0.254   2.154  0.00  0.00    +0.006 A 
ATOM      8  C   LIG    1        8.854   0.496   3.097  0.00  0.00    +0.020 A 
ENDBRANCH   1   6
BRANCH   1   9
ATOM      9  C   LIG    1        6.303  -2.234   0.192  0.00  0.00    -0.019 A 
ATOM     10  C   LIG    1        5.296  -2.491   1.146  0.00  0.00    +0.045 A 
ATOM     11 CL   LIG    1        4.721  -1.290   2.248  0.00  0.00    -0.083 Cl
ATOM     12  C   LIG    1        4.686  -3.750   1.228  0.00  0.00    +0.020 A 
ATOM     13  C   LIG    1        5.055  -4.774   0.362  0.00  0.00    +0.001 A 
ATOM     14  C   LIG    1        6.052  -4.550  -0.577  0.00  0.00    +0.000 A 
ATOM     15  C   LIG    1        6.680  -3.303  -0.649  0.00  0.00    +0.006 A 
ENDBRANCH   1   9
BRANCH   1  16
ATOM     16  C   LIG    1        7.387  -0.498  -1.417  0.00  0.00    +0.183 C 
ATOM     17 CL   LIG    1        8.120   1.133  -1.563  0.00  0.00    -0.104 Cl
ATOM     18 CL   LIG    1        5.991  -0.550  -2.554  0.00  0.00    -0.104 Cl
ENDBRANCH   1  16
TORSDOF 3
