REMARK  Name = *****
REMARK                            x       y       z     vdW  Elec       q    Type
REMARK                         _______ _______ _______ _____ _____    ______ ____
ROOT
ATOM      1  C   LIG    1        4.908  -1.637  -2.114  0.00  0.00    +0.122 C 
ATOM      2  C   LIG    1        6.092  -2.270  -2.076  0.00  0.00    +0.079 C 
ATOM      3  N   LIG    1        6.510  -3.217  -2.993  0.00  0.00    -0.267 N 
ATOM      4  C   LIG    1        5.681  -3.698  -4.080  0.00  0.00    +0.139 C 
ATOM      5  C   LIG    1        7.823  -3.684  -2.859  0.00  0.00    +0.248 C 
ATOM      6  O   LIG    1        8.298  -4.612  -3.511  0.00  0.00    -0.273 OA
ATOM      7  C   LIG    1        8.625  -2.842  -1.833  0.00  0.00    +0.208 C 
ATOM      8  S   LIG    1        7.290  -2.063  -0.845  0.00  0.00    -0.081 S 
ENDROOT
BRANCH   7   9
ATOM      9  N   LIG    1        9.482  -1.849  -2.537  0.00  0.00    -0.283 NA
ATOM     10  C   LIG    1       10.094  -0.837  -1.656  0.00  0.00    +0.086 C 
ATOM     11  C   LIG    1       11.180  -1.385  -0.730  0.00  0.00    +0.015 C 
ATOM     12  C   LIG    1       12.261  -2.121  -1.515  0.00  0.00    +0.002 C 
ATOM     13  C   LIG    1       11.656  -3.124  -2.491  0.00  0.00    +0.015 C 
ATOM     14  C   LIG    1       10.550  -2.483  -3.335  0.00  0.00    +0.086 C 
ENDBRANCH   7   9
BRANCH   1  15
ATOM     15  C   LIG    1        4.460  -0.584  -1.179  0.00  0.00    +0.334 C 
ATOM     16  O   LIG    1        5.177   0.151  -0.521  0.00  0.00    -0.245 OA
BRANCH  15  17
ATOM     17  O   LIG    1        3.102  -0.557  -1.191  0.00  0.00    -0.462 OA
BRANCH  17  19
ATOM     18  C   LIG    1        2.467   1.772  -0.813  0.00  0.00    +0.048 C 
ATOM     19  C   LIG    1        2.500   0.359  -0.258  0.00  0.00    +0.229 C 
ENDBRANCH  17  19
ENDBRANCH  15  17
ENDBRANCH   1  15
TORSDOF 4
