REMARK  Name = *****
REMARK                            x       y       z     vdW  Elec       q    Type
REMARK                         _______ _______ _______ _____ _____    ______ ____
ROOT
ATOM      1  P   LIG    1        5.206   8.094   0.480  0.00  0.00    +0.345 P 
ATOM      2  O   LIG    1        4.243   7.740  -0.673  0.00  0.00    -0.257 OA
ENDROOT
BRANCH   1   3
ATOM      3  N   LIG    1        4.072   9.220   1.202  0.00  0.00    -0.221 NA
ATOM      4  H   LIG    1        3.943   8.912   2.164  0.00  0.00    +0.133 HD
BRANCH   3   5
ATOM      5  C   LIG    1        2.712   9.429   0.610  0.00  0.00    +0.169 C 
ATOM      6  C   LIG    1        1.957  10.426   1.500  0.00  0.00    +0.036 C 
BRANCH   5   7
ATOM      7  C   LIG    1        2.751  10.108  -0.774  0.00  0.00    +0.325 C 
ATOM      8  O   LIG    1        3.729  10.624  -1.265  0.00  0.00    -0.249 OA
BRANCH   7   9
ATOM      9  O   LIG    1        1.472  10.251  -1.281  0.00  0.00    -0.461 OA
BRANCH   9  11
ATOM     10  C   LIG    1        0.901  11.164  -3.486  0.00  0.00    +0.051 C 
ATOM     11  C   LIG    1        1.246  11.467  -2.032  0.00  0.00    +0.170 C 
ATOM     12  C   LIG    1        0.115  12.247  -1.357  0.00  0.00    +0.051 C 
ENDBRANCH   9  11
ENDBRANCH   7   9
ENDBRANCH   5   7
ENDBRANCH   3   5
ENDBRANCH   1   3
BRANCH   1  13
ATOM     13  O   LIG    1        6.265   8.483   1.748  0.00  0.00    -0.431 OA
BRANCH  13  14
ATOM     14  C   LIG    1        7.575   8.608   1.308  0.00  0.00    +0.129 A 
ATOM     15  C   LIG    1        7.872   8.981  -0.013  0.00  0.00    +0.046 A 
ATOM     16  C   LIG    1        9.178   8.913  -0.494  0.00  0.00    +0.004 A 
ATOM     17  C   LIG    1       10.206   8.516   0.353  0.00  0.00    +0.000 A 
ATOM     18  C   LIG    1        9.928   8.219   1.689  0.00  0.00    +0.004 A 
ATOM     19  C   LIG    1        8.612   8.269   2.172  0.00  0.00    +0.046 A 
ENDBRANCH  13  14
ENDBRANCH   1  13
BRANCH   1  20
ATOM     20  C   LIG    1        4.757   6.429   1.550  0.00  0.00    +0.286 C 
BRANCH  20  21
ATOM     21  O   LIG    1        3.643   6.732   2.412  0.00  0.00    -0.363 OA
BRANCH  21  22
ATOM     22  C   LIG    1        3.253   5.613   3.233  0.00  0.00    +0.136 C 
ATOM     23  C   LIG    1        2.790   4.437   2.364  0.00  0.00    +0.039 C 
BRANCH  22  24
ATOM     24  C   LIG    1        2.071   6.012   4.144  0.00  0.00    +0.156 C 
BRANCH  24  25
ATOM     25  N   LIG    1        2.335   7.099   5.060  0.00  0.00    -0.312 N 
ATOM     26  C   LIG    1        3.234   7.107   6.090  0.00  0.00    +0.165 A 
ATOM     27  N   LIG    1        4.069   6.125   6.467  0.00  0.00    -0.216 NA
ATOM     28  C   LIG    1        4.850   6.532   7.490  0.00  0.00    +0.225 A 
ATOM     29  N   LIG    1        4.881   7.738   8.100  0.00  0.00    -0.219 NA
ATOM     30  C   LIG    1        4.002   8.683   7.694  0.00  0.00    +0.147 A 
ATOM     31  C   LIG    1        3.119   8.371   6.648  0.00  0.00    +0.147 A 
ATOM     32  N   LIG    1        2.133   9.101   6.015  0.00  0.00    -0.231 NA
ATOM     33  C   LIG    1        1.664   8.294   5.088  0.00  0.00    +0.201 A 
BRANCH  30  34
ATOM     34  N   LIG    1        4.047   9.932   8.305  0.00  0.00    -0.341 N 
ATOM     35  H   LIG    1        3.634  10.660   7.730  0.00  0.00    +0.144 HD
ATOM     36  H   LIG    1        4.962  10.119   8.694  0.00  0.00    +0.144 HD
ENDBRANCH  30  34
ENDBRANCH  24  25
ENDBRANCH  22  24
ENDBRANCH  21  22
ENDBRANCH  20  21
ENDBRANCH   1  20
TORSDOF 13
