REMARK  Name = *****
REMARK                            x       y       z     vdW  Elec       q    Type
REMARK                         _______ _______ _______ _____ _____    ______ ____
ROOT
ATOM      1  C   LIG    1        5.687   0.353   2.824  0.00  0.00    -0.017 C 
ATOM      2  C   LIG    1        6.972   0.425   3.236  0.00  0.00    -0.013 C 
ATOM      3  C   LIG    1        7.234   0.502   4.701  0.00  0.00    -0.004 A 
ATOM      4  C   LIG    1        8.093  -0.371   5.404  0.00  0.00    +0.016 A 
ATOM      5  C   LIG    1        8.257  -0.181   6.793  0.00  0.00    +0.015 A 
ATOM      6  C   LIG    1        7.599   0.841   7.478  0.00  0.00    +0.001 A 
ATOM      7  C   LIG    1        6.771   1.709   6.785  0.00  0.00    +0.001 A 
ATOM      8  S   LIG    1        9.070  -1.748   4.771  0.00  0.00    -0.120 S 
ATOM      9  C   LIG    1        8.428  -2.043   3.097  0.00  0.00    +0.110 C 
ATOM     10  C   LIG    1        8.763  -0.919   2.155  0.00  0.00    -0.029 A 
ATOM     11  C   LIG    1        9.782  -1.055   1.200  0.00  0.00    +0.005 A 
ATOM     12  C   LIG    1       10.092   0.001   0.342  0.00  0.00    +0.000 A 
ATOM     13  C   LIG    1        9.398   1.206   0.438  0.00  0.00    +0.001 A 
ATOM     14  C   LIG    1        8.389   1.356   1.389  0.00  0.00    +0.009 A 
ATOM     15  C   LIG    1        6.597   1.546   5.411  0.00  0.00    +0.009 A 
ATOM     16  C   LIG    1        8.062   0.294   2.244  0.00  0.00    -0.014 A 
ENDROOT
BRANCH   1  17
ATOM     17  C   LIG    1        5.177   0.149   1.416  0.00  0.00    +0.043 C 
BRANCH  17  18
ATOM     18  C   LIG    1        4.375   1.360   0.905  0.00  0.00    +0.088 C 
BRANCH  18  20
ATOM     19  C   LIG    1        3.009   2.333  -0.827  0.00  0.00    +0.104 C 
ATOM     20  N   LIG    1        3.858   1.192  -0.469  0.00  0.00    -0.308 NA
ATOM     21  C   LIG    1        4.938   1.061  -1.450  0.00  0.00    +0.104 C 
ENDBRANCH  18  20
ENDBRANCH  17  18
ENDBRANCH   1  17
TORSDOF 3
