REMARK  Name = *****
REMARK                            x       y       z     vdW  Elec       q    Type
REMARK                         _______ _______ _______ _____ _____    ______ ____
ROOT
ATOM      1  O   LIG    1        4.631   0.528   5.645  0.00  0.00    -0.275 OA
ATOM      2  C   LIG    1        3.488   0.536   5.244  0.00  0.00    +0.226 C 
ATOM      3  N   LIG    1        2.694   1.503   4.730  0.00  0.00    -0.263 N 
ATOM      4  C   LIG    1        1.490   0.675   4.596  0.00  0.00    +0.123 C 
ATOM      5  C   LIG    1        2.403  -0.536   5.007  0.00  0.00    +0.101 C 
ENDROOT
BRANCH   3   6
ATOM      6  C   LIG    1        2.981   2.783   4.266  0.00  0.00    +0.037 A 
ATOM      7  C   LIG    1        1.967   3.578   3.719  0.00  0.00    +0.026 A 
ATOM      8  C   LIG    1        2.268   4.832   3.184  0.00  0.00    +0.040 A 
ATOM      9  C   LIG    1        3.580   5.291   3.202  0.00  0.00    +0.123 A 
ATOM     10  F   LIG    1        3.869   6.487   2.675  0.00  0.00    -0.205 F 
ATOM     11  C   LIG    1        4.595   4.525   3.756  0.00  0.00    +0.040 A 
ATOM     12  C   LIG    1        4.294   3.273   4.293  0.00  0.00    +0.026 A 
ENDBRANCH   3   6
BRANCH   4  13
ATOM     13  C   LIG    1        0.261   1.041   5.554  0.00  0.00    -0.026 A 
ATOM     14  C   LIG    1        0.445   1.428   6.900  0.00  0.00    +0.009 A 
ATOM     15  C   LIG    1       -0.628   1.747   7.738  0.00  0.00    +0.045 A 
ATOM     16  C   LIG    1       -1.922   1.686   7.249  0.00  0.00    +0.117 A 
ATOM     17  C   LIG    1       -2.158   1.319   5.932  0.00  0.00    +0.045 A 
ATOM     18  C   LIG    1       -1.075   1.002   5.099  0.00  0.00    +0.009 A 
BRANCH  16  19
ATOM     19  O   LIG    1       -2.939   1.996   8.101  0.00  0.00    -0.507 OA
ATOM     20  H   LIG    1       -3.784   1.885   7.635  0.00  0.00    +0.292 HD
ENDBRANCH  16  19
ENDBRANCH   4  13
BRANCH   5  21
ATOM     21  C   LIG    1        2.731  -1.546   3.902  0.00  0.00    +0.018 C 
BRANCH  21  22
ATOM     22  C   LIG    1        3.957  -2.393   4.280  0.00  0.00    +0.037 C 
BRANCH  22  23
ATOM     23  C   LIG    1        4.323  -3.426   3.203  0.00  0.00    +0.144 C 
BRANCH  23  24
ATOM     24  C   LIG    1        5.553  -4.242   3.563  0.00  0.00    -0.019 A 
ATOM     25  C   LIG    1        6.711  -4.179   2.768  0.00  0.00    +0.009 A 
ATOM     26  C   LIG    1        7.839  -4.939   3.094  0.00  0.00    +0.039 A 
ATOM     27  C   LIG    1        7.813  -5.764   4.211  0.00  0.00    +0.123 A 
ATOM     28  F   LIG    1        8.894  -6.492   4.521  0.00  0.00    -0.205 F 
ATOM     29  C   LIG    1        6.680  -5.847   5.010  0.00  0.00    +0.039 A 
ATOM     30  C   LIG    1        5.553  -5.088   4.687  0.00  0.00    +0.009 A 
ENDBRANCH  23  24
BRANCH  23  31
ATOM     31  O   LIG    1        3.208  -4.293   2.995  0.00  0.00    -0.387 OA
ATOM     32  H   LIG    1        3.551  -5.195   2.874  0.00  0.00    +0.210 HD
ENDBRANCH  23  31
ENDBRANCH  22  23
ENDBRANCH  21  22
ENDBRANCH   5  21
TORSDOF 8
