REMARK  Name = *****
REMARK                            x       y       z     vdW  Elec       q    Type
REMARK                         _______ _______ _______ _____ _____    ______ ____
ROOT
ATOM      1  C   LIG    1        2.736  -0.889   2.554  0.00  0.00    +0.263 A 
ATOM      2  C   LIG    1        2.943   0.477   2.426  0.00  0.00    +0.239 A 
ATOM      3  C   LIG    1        4.147   0.876   2.979  0.00  0.00    +0.178 A 
ATOM      4 CL   LIG    1        4.679   2.517   2.910  0.00  0.00    -0.058 Cl
ATOM      5  N   LIG    1        5.032   0.077   3.615  0.00  0.00    -0.217 NA
ATOM      6  C   LIG    1        4.704  -1.218   3.688  0.00  0.00    +0.132 A 
ATOM      7  C   LIG    1        5.633  -2.135   4.416  0.00  0.00    +0.088 C 
ATOM      8  N   LIG    1        3.573  -1.743   3.189  0.00  0.00    -0.195 NA
ENDROOT
BRANCH   2   9
ATOM      9  N   LIG    1        2.096   1.369   1.722  0.00  0.00    -0.068 NA
ATOM     10  C   LIG    1        0.882   1.532   2.087  0.00  0.00    +0.370 C 
ATOM     11  N   LIG    1        0.149   0.952   3.099  0.00  0.00    -0.235 N 
ATOM     12  H   LIG    1        0.356  -0.028   3.261  0.00  0.00    +0.244 HD
ATOM     13  C   LIG    1       -1.261   1.319   3.028  0.00  0.00    +0.219 C 
ATOM     14  C   LIG    1       -1.242   2.546   2.107  0.00  0.00    +0.219 C 
ATOM     15  N   LIG    1        0.038   2.400   1.450  0.00  0.00    -0.235 N 
ATOM     16  H   LIG    1        0.460   3.157   0.929  0.00  0.00    +0.244 HD
ENDBRANCH   2   9
BRANCH   1  18
ATOM     17  C   LIG    1        1.645  -2.788   1.729  0.00  0.00    +0.279 C 
ATOM     18  O   LIG    1        1.548  -1.406   2.062  0.00  0.00    -0.477 OA
ENDBRANCH   1  18
TORSDOF 2
