REMARK  Name = *****
REMARK                            x       y       z     vdW  Elec       q    Type
REMARK                         _______ _______ _______ _____ _____    ______ ____
ROOT
ATOM      1  C   LIG    1        5.140   0.756  -1.430  0.00  0.00    +0.122 C 
ATOM      2  C   LIG    1        6.577   0.832  -2.015  0.00  0.00    +0.036 C 
ATOM      3  C   LIG    1        6.599   0.113  -3.397  0.00  0.00    +0.028 C 
ATOM      4  C   LIG    1        5.641  -1.105  -3.490  0.00  0.00    +0.058 C 
ATOM      5  N   LIG    1        5.402  -1.617  -2.129  0.00  0.00    -0.296 NA
ATOM      6  C   LIG    1        4.256  -0.689  -4.005  0.00  0.00    +0.020 C 
ATOM      7  C   LIG    1        3.406  -0.530  -2.749  0.00  0.00    +0.021 C 
ATOM      8  C   LIG    1        4.429  -0.626  -1.605  0.00  0.00    +0.071 C 
ENDROOT
BRANCH   2   9
ATOM      9  C   LIG    1        7.747   0.398  -1.118  0.00  0.00    -0.043 A 
ATOM     10  C   LIG    1        8.346  -0.868  -1.228  0.00  0.00    +0.005 A 
ATOM     11  C   LIG    1        9.464  -1.224  -0.473  0.00  0.00    +0.014 A 
ATOM     12  C   LIG    1        9.994  -0.318   0.434  0.00  0.00    +0.013 A 
ATOM     13  I   LIG    1       11.653  -0.857   1.561  0.00  0.00    -0.044 I 
ATOM     14  C   LIG    1        9.416   0.941   0.582  0.00  0.00    +0.014 A 
ATOM     15  C   LIG    1        8.306   1.300  -0.196  0.00  0.00    +0.005 A 
ENDBRANCH   2   9
BRANCH   1  16
ATOM     16  C   LIG    1        4.985   1.294  -0.020  0.00  0.00    +0.312 C 
ATOM     17  O   LIG    1        4.509   2.386   0.241  0.00  0.00    -0.251 OA
BRANCH  16  19
ATOM     18  C   LIG    1        5.288   0.767   2.260  0.00  0.00    +0.280 C 
ATOM     19  O   LIG    1        5.436   0.387   0.894  0.00  0.00    -0.468 OA
ENDBRANCH  16  19
ENDBRANCH   1  16
BRANCH   5  20
ATOM     20  C   LIG    1        4.947  -3.021  -2.061  0.00  0.00    +0.087 C 
BRANCH  20  21
ATOM     21  C   LIG    1        6.021  -4.012  -2.551  0.00  0.00    +0.049 C 
BRANCH  21  22
ATOM     22  C   LIG    1        5.584  -5.464  -2.440  0.00  0.00    +0.214 C 
ATOM     23  F   LIG    1        4.454  -5.653  -3.173  0.00  0.00    -0.249 F 
ENDBRANCH  21  22
ENDBRANCH  20  21
ENDBRANCH   5  20
TORSDOF 6
