REMARK  Name = *****
REMARK                            x       y       z     vdW  Elec       q    Type
REMARK                         _______ _______ _______ _____ _____    ______ ____
ROOT
ATOM      1  C   LIG    1        5.550  -1.229   1.634  0.00  0.00    +0.139 A 
ATOM      2  C   LIG    1        5.663  -2.629   1.665  0.00  0.00    +0.083 A 
ATOM      3 CL   LIG    1        4.693  -3.638   0.647  0.00  0.00    -0.080 Cl
ATOM      4  C   LIG    1        6.572  -3.260   2.527  0.00  0.00    +0.028 A 
ATOM      5  C   LIG    1        7.386  -2.500   3.374  0.00  0.00    -0.035 A 
ATOM      6  C   LIG    1        7.287  -1.106   3.329  0.00  0.00    +0.008 A 
ATOM      7  C   LIG    1        6.393  -0.479   2.458  0.00  0.00    +0.047 A 
ENDROOT
BRANCH   1   8
ATOM      8  O   LIG    1        4.591  -0.693   0.813  0.00  0.00    -0.486 OA
BRANCH   8   9
ATOM      9  C   LIG    1        4.456   0.727   0.772  0.00  0.00    +0.256 C 
BRANCH   9  11
ATOM     10  C   LIG    1        2.737   1.827  -0.699  0.00  0.00    +0.007 C 
ATOM     11  C   LIG    1        3.059   1.057   0.348  0.00  0.00    +0.006 C 
ENDBRANCH   9  11
ENDBRANCH   8   9
ENDBRANCH   1   8
BRANCH   5  12
ATOM     12  C   LIG    1        8.350  -3.149   4.335  0.00  0.00    +0.155 C 
BRANCH  12  13
ATOM     13  C   LIG    1        9.792  -2.743   4.103  0.00  0.00    +0.309 C 
ATOM     14  O   LIG    1       10.492  -2.217   4.948  0.00  0.00    -0.251 OA
BRANCH  13  15
ATOM     15  O   LIG    1       10.248  -3.036   2.861  0.00  0.00    -0.480 OA
ATOM     16  H   LIG    1        9.572  -3.422   2.274  0.00  0.00    +0.295 HD
ENDBRANCH  13  15
ENDBRANCH  12  13
ENDBRANCH   5  12
TORSDOF 6
