REMARK  Name = *****
REMARK                            x       y       z     vdW  Elec       q    Type
REMARK                         _______ _______ _______ _____ _____    ______ ____
ROOT
ATOM      1  C   LIG    1        3.414  -0.018  -1.230  0.00  0.00    +0.041 A 
ATOM      2  C   LIG    1        3.226  -1.378  -1.502  0.00  0.00    +0.062 A 
ATOM      3  C   LIG    1        4.000  -2.035  -2.466  0.00  0.00    +0.163 A 
ATOM      4  C   LIG    1        4.977  -1.317  -3.171  0.00  0.00    +0.168 A 
ATOM      5  C   LIG    1        5.198   0.035  -2.856  0.00  0.00    +0.050 A 
ATOM      6  C   LIG    1        4.412   0.691  -1.897  0.00  0.00    +0.017 A 
ENDROOT
BRANCH   1   8
ATOM      7  O   LIG    1        2.130  -0.128   0.721  0.00  0.00    -0.270 OA
ATOM      8  C   LIG    1        2.554   0.584  -0.173  0.00  0.00    +0.248 C 
ATOM      9  N   LIG    1        2.208   1.921  -0.352  0.00  0.00    -0.279 N 
ATOM     10  H   LIG    1        2.156   2.232  -1.318  0.00  0.00    +0.155 HD
BRANCH   9  11
ATOM     11  C   LIG    1        1.288   2.512   0.566  0.00  0.00    +0.074 A 
ATOM     12  C   LIG    1        0.044   2.985   0.125  0.00  0.00    +0.082 A 
ATOM     13 CL   LIG    1       -0.437   2.900  -1.528  0.00  0.00    -0.080 Cl
ATOM     14  C   LIG    1       -0.846   3.490   1.067  0.00  0.00    +0.132 A 
ATOM     15  N   LIG    1       -0.580   3.577   2.392  0.00  0.00    -0.260 NA
ATOM     16  C   LIG    1        0.644   3.151   2.787  0.00  0.00    +0.132 A 
ATOM     17  C   LIG    1        1.602   2.631   1.927  0.00  0.00    +0.082 A 
ATOM     18 CL   LIG    1        3.183   2.315   2.551  0.00  0.00    -0.080 Cl
ENDBRANCH   9  11
ENDBRANCH   1   8
BRANCH   3  19
ATOM     19  O   LIG    1        3.882  -3.369  -2.736  0.00  0.00    -0.488 OA
BRANCH  19  20
ATOM     20  C   LIG    1        2.892  -4.109  -2.035  0.00  0.00    +0.232 C 
BRANCH  20  21
ATOM     21  C   LIG    1        2.852  -5.497  -2.596  0.00  0.00    +0.027 C 
ATOM     22  C   LIG    1        3.344  -6.662  -1.777  0.00  0.00    +0.007 C 
ATOM     23  C   LIG    1        1.871  -6.476  -2.008  0.00  0.00    +0.007 C 
ENDBRANCH  20  21
ENDBRANCH  19  20
ENDBRANCH   3  19
BRANCH   4  24
ATOM     24  O   LIG    1        5.814  -1.838  -4.127  0.00  0.00    -0.430 OA
BRANCH  24  25
ATOM     25  C   LIG    1        5.276  -2.864  -4.956  0.00  0.00    +0.541 C 
ATOM     26  F   LIG    1        6.209  -3.142  -5.907  0.00  0.00    -0.166 F 
ATOM     27  F   LIG    1        4.193  -2.381  -5.618  0.00  0.00    -0.166 F 
ENDBRANCH  24  25
ENDBRANCH   4  24
TORSDOF 7
