REMARK  Name = *****
REMARK                            x       y       z     vdW  Elec       q    Type
REMARK                         _______ _______ _______ _____ _____    ______ ____
ROOT
ATOM      1  F   LIG    1        2.338  -0.184   1.413  0.00  0.00    -0.168 F 
ATOM      2  C   LIG    1        2.409   0.030   0.080  0.00  0.00    +0.415 C 
ATOM      3  F   LIG    1        1.161  -0.136  -0.424  0.00  0.00    -0.168 F 
ATOM      4  F   LIG    1        3.171  -0.958  -0.451  0.00  0.00    -0.168 F 
ENDROOT
BRANCH   2   5
ATOM      5  C   LIG    1        2.962   1.402  -0.272  0.00  0.00    +0.251 C 
ATOM      6 BR   LIG    1        4.785   1.619   0.402  0.00  0.00    -0.061 Br
ATOM      7 CL   LIG    1        1.964   2.732   0.370  0.00  0.00    -0.100 Cl
ENDBRANCH   2   5
TORSDOF 1
