REMARK  Name = *****
REMARK                            x       y       z     vdW  Elec       q    Type
REMARK                         _______ _______ _______ _____ _____    ______ ____
ROOT
ATOM      1  C   LIG    1       -0.099  -0.267  -0.842  0.00  0.00    +0.003 C 
ATOM      2  C   LIG    1       -1.350   0.087  -0.329  0.00  0.00    +0.020 C 
ATOM      3  C   LIG    1       -2.465  -0.691  -0.654  0.00  0.00    +0.001 C 
ATOM      4  C   LIG    1       -3.837  -0.578  -0.328  0.00  0.00    +0.036 C 
ATOM      5  C   LIG    1       -4.473  -1.652  -0.896  0.00  0.00    +0.057 C 
ATOM      6  C   LIG    1       -5.831  -2.127  -0.885  0.00  0.00    +0.040 C 
ATOM      7  C   LIG    1       -6.078  -3.392  -1.440  0.00  0.00    +0.133 C 
ATOM      8  C   LIG    1       -7.343  -3.954  -1.347  0.00  0.00    +0.056 C 
ATOM      9  C   LIG    1       -8.375  -3.228  -0.743  0.00  0.00    +0.005 C 
ATOM     10  C   LIG    1       -8.131  -1.936  -0.251  0.00  0.00    +0.011 C 
ATOM     11  O   LIG    1       -5.103  -4.146  -2.052  0.00  0.00    -0.464 OA
ATOM     12  C   LIG    1       -3.957  -3.416  -2.558  0.00  0.00    +0.308 C 
ATOM     13  C   LIG    1       -6.860  -1.386  -0.313  0.00  0.00    +0.014 C 
ATOM     14  N   LIG    1       -3.551  -2.349  -1.635  0.00  0.00    -0.300 NA
ATOM     15  C   LIG    1       -2.298  -1.821  -1.458  0.00  0.00    +0.053 C 
ATOM     16  C   LIG    1       -1.050  -2.219  -1.949  0.00  0.00    +0.027 C 
ATOM     17  C   LIG    1        0.046  -1.413  -1.632  0.00  0.00    +0.012 C 
ENDROOT
BRANCH   1  22
ATOM     18  C   LIG    1        2.220   2.033   0.503  0.00  0.00    +0.128 A 
ATOM     19  N   LIG    1        2.834   1.778  -0.702  0.00  0.00    -0.346 N 
ATOM     20  H   LIG    1        3.684   2.214  -1.030  0.00  0.00    +0.167 HD
ATOM     21  C   LIG    1        2.084   0.852  -1.371  0.00  0.00    +0.112 A 
ATOM     22  C   LIG    1        1.015   0.599  -0.545  0.00  0.00    +0.089 A 
ATOM     23  N   LIG    1        1.095   1.353   0.600  0.00  0.00    -0.231 NA
BRANCH  18  26
ATOM     24  C   LIG    1        2.756   5.227   0.507  0.00  0.00    +0.237 C 
ATOM     25  N   LIG    1        2.239   4.293   1.386  0.00  0.00    -0.290 N 
ATOM     26  C   LIG    1        2.815   2.957   1.528  0.00  0.00    +0.142 C 
ATOM     27  C   LIG    1        2.441   2.550   2.956  0.00  0.00    +0.032 C 
ATOM     28  C   LIG    1        1.151   3.304   3.266  0.00  0.00    +0.021 C 
ATOM     29  C   LIG    1        1.079   4.435   2.249  0.00  0.00    +0.108 C 
ATOM     30  O   LIG    1        3.756   4.956  -0.172  0.00  0.00    -0.274 OA
BRANCH  24  31
ATOM     31  C   LIG    1        2.033   6.620   0.340  0.00  0.00    +0.165 C 
BRANCH  31  33
ATOM     32  C   LIG    1        3.172   8.933   0.317  0.00  0.00    +0.401 C 
ATOM     33  N   LIG    1        3.107   7.596   0.069  0.00  0.00    -0.270 N 
ATOM     34  H   LIG    1        3.867   7.274  -0.523  0.00  0.00    +0.153 HD
ATOM     35  O   LIG    1        4.222   9.552   0.182  0.00  0.00    -0.227 OA
BRANCH  32  37
ATOM     36  C   LIG    1        1.828  10.790  -0.119  0.00  0.00    +0.282 C 
ATOM     37  O   LIG    1        1.968   9.517   0.537  0.00  0.00    -0.454 OA
ENDBRANCH  32  37
ENDBRANCH  31  33
BRANCH  31  38
ATOM     38  C   LIG    1        1.017   6.571  -0.833  0.00  0.00    +0.012 C 
ATOM     39  C   LIG    1        0.348   7.914  -1.113  0.00  0.00    +0.009 C 
ATOM     40  C   LIG    1       -0.104   5.556  -0.642  0.00  0.00    +0.009 C 
ENDBRANCH  31  38
ENDBRANCH  24  31
ENDBRANCH  18  26
ENDBRANCH   1  22
BRANCH   9  41
ATOM     41  C   LIG    1       -9.707  -3.777  -0.665  0.00  0.00    +0.089 C 
ATOM     42  N   LIG    1      -10.229  -4.651  -1.578  0.00  0.00    -0.231 NA
ATOM     43  C   LIG    1      -11.502  -4.797  -1.252  0.00  0.00    +0.128 C 
ATOM     44  N   LIG    1      -11.797  -4.044  -0.141  0.00  0.00    -0.346 NA
ATOM     45  H   LIG    1      -12.712  -3.927   0.269  0.00  0.00    +0.167 HD
ATOM     46  C   LIG    1      -10.642  -3.462   0.293  0.00  0.00    +0.112 C 
BRANCH  43  47
ATOM     47  C   LIG    1      -12.525  -5.680  -1.922  0.00  0.00    +0.142 C 
ATOM     48  N   LIG    1      -12.469  -5.509  -3.378  0.00  0.00    -0.290 N 
ATOM     49  C   LIG    1      -13.255  -4.617  -4.097  0.00  0.00    +0.237 C 
ATOM     50  O   LIG    1      -14.067  -3.888  -3.520  0.00  0.00    -0.274 OA
ATOM     51  C   LIG    1      -11.503  -6.440  -3.948  0.00  0.00    +0.108 C 
ATOM     52  C   LIG    1      -11.046  -7.338  -2.798  0.00  0.00    +0.021 C 
ATOM     53  C   LIG    1      -12.151  -7.160  -1.760  0.00  0.00    +0.032 C 
BRANCH  49  54
ATOM     54  C   LIG    1      -13.206  -4.716  -5.673  0.00  0.00    +0.165 C 
BRANCH  54  55
ATOM     55  N   LIG    1      -14.273  -5.618  -6.143  0.00  0.00    -0.270 N 
ATOM     56  H   LIG    1      -15.236  -5.445  -5.895  0.00  0.00    +0.153 HD
ATOM     57  C   LIG    1      -14.034  -6.715  -6.945  0.00  0.00    +0.401 C 
ATOM     58  O   LIG    1      -12.963  -7.082  -7.324  0.00  0.00    -0.227 OA
BRANCH  57  59
ATOM     59  O   LIG    1      -15.239  -7.317  -7.216  0.00  0.00    -0.454 OA
ATOM     60  C   LIG    1      -15.178  -8.516  -8.004  0.00  0.00    +0.282 C 
ENDBRANCH  57  59
ENDBRANCH  54  55
BRANCH  54  61
ATOM     61  C   LIG    1      -13.258  -3.374  -6.464  0.00  0.00    +0.012 C 
ATOM     62  C   LIG    1      -11.954  -2.576  -6.348  0.00  0.00    +0.009 C 
ATOM     63  C   LIG    1      -14.424  -2.441  -6.135  0.00  0.00    +0.009 C 
ENDBRANCH  54  61
ENDBRANCH  49  54
ENDBRANCH  43  47
ENDBRANCH   9  41
BRANCH  12  64
ATOM     64  C   LIG    1       -4.210  -2.903  -3.977  0.00  0.00    +0.014 C 
ATOM     65  C   LIG    1       -4.685  -1.600  -4.221  0.00  0.00    +0.009 C 
ATOM     66  C   LIG    1       -4.926  -1.140  -5.514  0.00  0.00    +0.001 C 
ATOM     67  C   LIG    1       -4.708  -1.979  -6.598  0.00  0.00    +0.000 C 
ATOM     68  C   LIG    1       -4.248  -3.278  -6.386  0.00  0.00    +0.001 C 
ATOM     69  C   LIG    1       -4.003  -3.741  -5.087  0.00  0.00    +0.009 C 
ENDBRANCH  12  64
TORSDOF 13
