REMARK  Name = *****
REMARK                            x       y       z     vdW  Elec       q    Type
REMARK                         _______ _______ _______ _____ _____    ______ ____
ROOT
ATOM      1  CA  LIG    1        6.600   1.128   4.817  0.00  0.00    +0.190 C 
ATOM      2  C   LIG    1        8.145   1.293   4.813  0.00  0.00    +0.165 C 
ATOM      3  S   LIG    1        9.055   0.890   6.344  0.00  0.00    -0.127 S 
ATOM      4  C   LIG    1        9.584  -0.796   5.817  0.00  0.00    +0.042 C 
ATOM      5  CA  LIG    1        9.285  -0.903   4.299  0.00  0.00    +0.201 C 
ATOM      6  C   LIG    1        8.770  -1.831   6.612  0.00  0.00    +0.025 C 
ATOM      7  C   LIG    1       11.056  -0.926   6.230  0.00  0.00    +0.025 C 
ATOM      8  N   LIG    1        8.229   0.075   3.977  0.00  0.00    -0.271 N 
ATOM      9  C   LIG    1        6.918  -0.258   4.218  0.00  0.00    +0.240 C 
ATOM     10  O   LIG    1        6.340  -1.327   4.126  0.00  0.00    -0.273 OA
ENDROOT
BRANCH   1  12
ATOM     11  C   LIG    1        6.039   2.245   6.994  0.00  0.00    +0.254 C 
ATOM     12  N   LIG    1        5.904   1.161   6.134  0.00  0.00    -0.299 N 
ATOM     13  H   LIG    1        5.284   0.400   6.389  0.00  0.00    +0.150 HD
ATOM     14  O   LIG    1        6.674   3.244   6.664  0.00  0.00    -0.272 OA
BRANCH  11  16
ATOM     15  C   LIG    1        5.854   0.845   9.069  0.00  0.00    +0.062 C 
ATOM     16  C   LIG    1        5.301   2.077   8.342  0.00  0.00    +0.255 C 
BRANCH  16  17
ATOM     17  O   LIG    1        5.403   3.242   9.169  0.00  0.00    -0.480 OA
BRANCH  17  18
ATOM     18  C   LIG    1        4.312   3.506   9.964  0.00  0.00    +0.122 A 
ATOM     19  C   LIG    1        3.412   2.534  10.410  0.00  0.00    +0.045 A 
ATOM     20  C   LIG    1        2.323   2.875  11.210  0.00  0.00    +0.004 A 
ATOM     21  C   LIG    1        2.123   4.199  11.579  0.00  0.00    +0.000 A 
ATOM     22  C   LIG    1        3.021   5.178  11.156  0.00  0.00    +0.004 A 
ATOM     23  C   LIG    1        4.119   4.832  10.357  0.00  0.00    +0.045 A 
ENDBRANCH  17  18
ENDBRANCH  16  17
ENDBRANCH  11  16
ENDBRANCH   1  12
BRANCH   5  24
ATOM     24  C   LIG    1       10.524  -0.720   3.411  0.00  0.00    +0.327 C 
ATOM     25  O   LIG    1       11.480  -1.483   3.415  0.00  0.00    -0.249 OA
BRANCH  24  26
ATOM     26  OXT LIG    1       10.493   0.370   2.611  0.00  0.00    -0.479 OA
ATOM     27  HXT LIG    1        9.647   0.851   2.690  0.00  0.00    +0.295 HD
ENDBRANCH  24  26
ENDBRANCH   5  24
TORSDOF 6
