REMARK  Name = *****
REMARK                            x       y       z     vdW  Elec       q    Type
REMARK                         _______ _______ _______ _____ _____    ______ ____
ROOT
ATOM      1  C   LIG    1        5.688   1.978  -1.954  0.00  0.00    +0.134 A 
ATOM      2  C   LIG    1        6.268   1.234  -2.977  0.00  0.00    +0.052 A 
ATOM      3  C   LIG    1        6.467   1.851  -4.205  0.00  0.00    -0.014 A 
ATOM      4  C   LIG    1        7.065   1.261  -5.438  0.00  0.00    +0.028 C 
ATOM      5  C   LIG    1        7.035   2.462  -6.448  0.00  0.00    +0.154 C 
ATOM      6  N   LIG    1        6.422   3.618  -5.742  0.00  0.00    -0.316 N 
ATOM      7  C   LIG    1        7.090   4.906  -5.850  0.00  0.00    +0.131 C 
ATOM      8  N   LIG    1        8.410   2.538  -6.995  0.00  0.00    -0.287 NA
ATOM      9  C   LIG    1        8.427   2.792  -8.429  0.00  0.00    +0.106 C 
ATOM     10  C   LIG    1        9.098   1.291  -6.659  0.00  0.00    +0.087 C 
ATOM     11  C   LIG    1        8.551   0.943  -5.291  0.00  0.00    +0.030 C 
ATOM     12  C   LIG    1        6.262   0.054  -5.936  0.00  0.00    +0.019 C 
ATOM     13  C   LIG    1        6.143   3.187  -4.431  0.00  0.00    +0.035 A 
ATOM     14  C   LIG    1        5.579   3.930  -3.402  0.00  0.00    +0.027 A 
ATOM     15  C   LIG    1        5.355   3.324  -2.155  0.00  0.00    +0.048 A 
ENDROOT
BRANCH   1  16
ATOM     16  O   LIG    1        5.523   1.469  -0.646  0.00  0.00    -0.411 OA
BRANCH  16  20
ATOM     17  C   LIG    1        5.832  -1.604   1.182  0.00  0.00    +0.131 C 
ATOM     18  N   LIG    1        5.575  -0.229   0.843  0.00  0.00    -0.284 N 
ATOM     19  H   LIG    1        5.972   0.507   1.409  0.00  0.00    +0.152 HD
ATOM     20  C   LIG    1        5.262   0.115  -0.449  0.00  0.00    +0.405 C 
ATOM     21  O   LIG    1        4.877  -0.676  -1.295  0.00  0.00    -0.226 OA
ENDBRANCH  16  20
ENDBRANCH   1  16
TORSDOF 2
