REMARK  Name = *****
REMARK                            x       y       z     vdW  Elec       q    Type
REMARK                         _______ _______ _______ _____ _____    ______ ____
ROOT
ATOM      1  C   LIG    1        2.977  -1.349   0.019  0.00  0.00    +0.100 C 
ENDROOT
BRANCH   1   2
ATOM      2  C   LIG    1        2.155  -0.239  -0.732  0.00  0.00    -0.028 A 
ATOM      3  C   LIG    1        1.896   1.005  -0.104  0.00  0.00    +0.005 A 
ATOM      4  C   LIG    1        1.228   2.042  -0.755  0.00  0.00    +0.000 A 
ATOM      5  C   LIG    1        0.797   1.868  -2.064  0.00  0.00    +0.000 A 
ATOM      6  C   LIG    1        1.041   0.659  -2.712  0.00  0.00    +0.000 A 
ATOM      7  C   LIG    1        1.716  -0.382  -2.058  0.00  0.00    +0.005 A 
ENDBRANCH   1   2
BRANCH   1   8
ATOM      8  C   LIG    1        2.643  -2.806  -0.499  0.00  0.00    -0.028 A 
ATOM      9  C   LIG    1        3.325  -3.387  -1.593  0.00  0.00    +0.005 A 
ATOM     10  C   LIG    1        3.045  -4.691  -2.033  0.00  0.00    +0.000 A 
ATOM     11  C   LIG    1        2.072  -5.453  -1.410  0.00  0.00    +0.000 A 
ATOM     12  C   LIG    1        1.366  -4.909  -0.346  0.00  0.00    +0.000 A 
ATOM     13  C   LIG    1        1.644  -3.606   0.092  0.00  0.00    +0.005 A 
ENDBRANCH   1   8
BRANCH   1  17
ATOM     14  N   LIG    1        1.341  -1.166   1.945  0.00  0.00    -0.328 N 
ATOM     15  H   LIG    1        0.589  -1.102   1.272  0.00  0.00    +0.145 HD
ATOM     16  H   LIG    1        1.128  -1.154   2.932  0.00  0.00    +0.145 HD
ATOM     17  C   LIG    1        2.658  -1.283   1.574  0.00  0.00    +0.226 C 
ATOM     18  O   LIG    1        3.496  -1.350   2.469  0.00  0.00    -0.275 OA
ENDBRANCH   1  17
BRANCH   1  19
ATOM     19  C   LIG    1        4.519  -1.014  -0.202  0.00  0.00    +0.028 C 
ATOM     20  C   LIG    1        4.974   0.390   0.235  0.00  0.00    +0.089 C 
ATOM     21  N   LIG    1        6.390   0.289   0.617  0.00  0.00    -0.302 NA
ATOM     22  C   LIG    1        6.462  -1.025   1.277  0.00  0.00    +0.085 C 
ATOM     23  C   LIG    1        5.537  -1.947   0.485  0.00  0.00    +0.022 C 
BRANCH  21  24
ATOM     24  C   LIG    1        7.347   0.382  -0.499  0.00  0.00    +0.089 C 
BRANCH  24  25
ATOM     25  C   LIG    1        7.342   1.748  -1.207  0.00  0.00    +0.050 C 
BRANCH  25  26
ATOM     26  C   LIG    1        8.407   1.834  -2.278  0.00  0.00    -0.046 A 
ATOM     27  C   LIG    1        9.683   2.335  -1.973  0.00  0.00    +0.011 A 
ATOM     28  C   LIG    1       10.625   2.408  -2.986  0.00  0.00    -0.002 A 
ATOM     29  C   LIG    1       12.001   2.947  -2.949  0.00  0.00    +0.080 C 
ATOM     30  C   LIG    1       12.473   2.559  -4.353  0.00  0.00    +0.234 C 
ATOM     31  O   LIG    1       11.342   2.171  -5.167  0.00  0.00    -0.491 OA
ATOM     32  C   LIG    1       10.321   2.001  -4.272  0.00  0.00    +0.124 A 
ATOM     33  C   LIG    1        9.082   1.496  -4.603  0.00  0.00    +0.046 A 
ATOM     34  C   LIG    1        8.120   1.407  -3.594  0.00  0.00    +0.007 A 
ENDBRANCH  25  26
ENDBRANCH  24  25
ENDBRANCH  21  24
ENDBRANCH   1  19
TORSDOF 7
