REMARK  Name = *****
REMARK                            x       y       z     vdW  Elec       q    Type
REMARK                         _______ _______ _______ _____ _____    ______ ____
ROOT
ATOM      1  C   LIG    1        3.383   0.942   1.567  0.00  0.00    +0.009 A 
ATOM      2  C   LIG    1        3.845   0.108   2.601  0.00  0.00    +0.039 A 
ATOM      3  C   LIG    1        4.195   0.592   3.885  0.00  0.00    +0.049 A 
ATOM      4  N   LIG    1        4.657  -0.267   4.933  0.00  0.00    -0.298 N 
ATOM      5  C   LIG    1        4.998   0.153   6.256  0.00  0.00    +0.048 A 
ATOM      6  C   LIG    1        4.961   1.509   6.640  0.00  0.00    +0.034 A 
ATOM      7  S   LIG    1        4.454   2.832   5.573  0.00  0.00    -0.086 S 
ATOM      8  C   LIG    1        5.334   1.918   7.939  0.00  0.00    +0.017 A 
ATOM      9  C   LIG    1        5.741   0.996   8.893  0.00  0.00    +0.001 A 
ATOM     10  C   LIG    1        5.767  -0.345   8.555  0.00  0.00    +0.002 A 
ATOM     11  C   LIG    1        5.393  -0.756   7.267  0.00  0.00    +0.024 A 
ATOM     12  C   LIG    1        4.056   1.983   4.069  0.00  0.00    +0.034 A 
ATOM     13  C   LIG    1        3.592   2.819   3.030  0.00  0.00    +0.018 A 
ATOM     14  C   LIG    1        3.259   2.304   1.786  0.00  0.00    +0.016 A 
ENDROOT
BRANCH   1  16
ATOM     15  C   LIG    1        1.226  -0.117   0.289  0.00  0.00    +0.090 C 
ATOM     16  S   LIG    1        2.971   0.249  -0.024  0.00  0.00    -0.129 S 
ENDBRANCH   1  16
BRANCH   4  17
ATOM     17  C   LIG    1        4.837  -1.704   4.604  0.00  0.00    +0.112 C 
BRANCH  17  18
ATOM     18  C   LIG    1        3.541  -2.505   4.838  0.00  0.00    +0.038 C 
BRANCH  18  19
ATOM     19  C   LIG    1        3.686  -4.017   4.518  0.00  0.00    +0.058 C 
ATOM     20  N   LIG    1        2.490  -4.839   4.809  0.00  0.00    -0.302 NA
ATOM     21  C   LIG    1        2.120  -4.871   6.219  0.00  0.00    +0.105 C 
ATOM     22  C   LIG    1        1.338  -4.522   3.959  0.00  0.00    +0.084 C 
ATOM     23  C   LIG    1        1.673  -4.713   2.479  0.00  0.00    +0.015 C 
ATOM     24  C   LIG    1        2.947  -3.980   2.078  0.00  0.00    +0.003 C 
ATOM     25  C   LIG    1        4.077  -4.300   3.052  0.00  0.00    +0.019 C 
ENDBRANCH  18  19
ENDBRANCH  17  18
ENDBRANCH   4  17
TORSDOF 4
