REMARK  Name = *****
REMARK                            x       y       z     vdW  Elec       q    Type
REMARK                         _______ _______ _______ _____ _____    ______ ____
ROOT
ATOM      1  C   LIG    1        6.422  -2.465   2.200  0.00  0.00    +0.142 A 
ATOM      2  C   LIG    1        7.070  -3.669   1.848  0.00  0.00    +0.067 A 
ATOM      3  C   LIG    1        8.466  -3.725   1.882  0.00  0.00    +0.027 A 
ATOM      4  C   LIG    1        9.214  -2.635   2.336  0.00  0.00    +0.017 A 
ATOM      5  C   LIG    1        8.563  -1.440   2.671  0.00  0.00    +0.063 A 
ATOM      6  C   LIG    1        7.175  -1.351   2.583  0.00  0.00    +0.062 A 
ENDROOT
BRANCH   2   7
ATOM      7  N   LIG    1        6.344  -4.734   1.286  0.00  0.00    -0.355 N 
ATOM      8  H   LIG    1        5.355  -4.671   1.526  0.00  0.00    +0.142 HD
ATOM      9  H   LIG    1        6.745  -5.648   1.467  0.00  0.00    +0.142 HD
ENDBRANCH   2   7
BRANCH   5  10
ATOM     10  C   LIG    1        9.387  -0.303   3.152  0.00  0.00    +0.339 C 
ATOM     11  O   LIG    1       10.480  -0.437   3.678  0.00  0.00    -0.245 OA
BRANCH  10  12
ATOM     12  O   LIG    1        8.759   0.872   2.897  0.00  0.00    -0.460 OA
BRANCH  12  13
ATOM     13  C   LIG    1        9.463   2.065   3.303  0.00  0.00    +0.247 C 
BRANCH  13  14
ATOM     14  C   LIG    1        9.100   2.410   4.761  0.00  0.00    +0.125 C 
BRANCH  14  15
ATOM     15  N   LIG    1        9.672   3.644   5.334  0.00  0.00    -0.300 NA
BRANCH  15  16
ATOM     16  C   LIG    1        9.698   3.579   6.817  0.00  0.00    +0.081 C 
ATOM     17  C   LIG    1        8.352   3.408   7.525  0.00  0.00    +0.020 C 
ENDBRANCH  15  16
BRANCH  15  18
ATOM     18  C   LIG    1        9.027   4.893   4.894  0.00  0.00    +0.081 C 
ATOM     19  C   LIG    1        9.161   5.206   3.411  0.00  0.00    +0.020 C 
ENDBRANCH  15  18
ENDBRANCH  14  15
ENDBRANCH  13  14
ENDBRANCH  12  13
ENDBRANCH  10  12
ENDBRANCH   5  10
BRANCH   1  20
ATOM     20  O   LIG    1        5.044  -2.473   2.138  0.00  0.00    -0.490 OA
BRANCH  20  21
ATOM     21  C   LIG    1        4.394  -1.607   3.074  0.00  0.00    +0.229 C 
BRANCH  21  22
ATOM     22  C   LIG    1        2.878  -1.794   2.995  0.00  0.00    +0.041 C 
BRANCH  22  24
ATOM     23  C   LIG    1        2.729  -3.660   4.727  0.00  0.00    +0.004 C 
ATOM     24  C   LIG    1        2.387  -3.207   3.316  0.00  0.00    +0.000 C 
ENDBRANCH  22  24
ENDBRANCH  21  22
ENDBRANCH  20  21
ENDBRANCH   1  20
TORSDOF 12
