REMARK  Name = *****
REMARK                            x       y       z     vdW  Elec       q    Type
REMARK                         _______ _______ _______ _____ _____    ______ ____
ROOT
ATOM      1  C   LIG    1        3.736  -0.445  -0.092  0.00  0.00    +0.161 C 
ENDROOT
BRANCH   1   2
ATOM      2  C   LIG    1        4.811  -0.185  -1.133  0.00  0.00    -0.018 A 
ATOM      3  C   LIG    1        4.722  -0.697  -2.437  0.00  0.00    +0.006 A 
ATOM      4  C   LIG    1        5.750  -0.494  -3.362  0.00  0.00    +0.000 A 
ATOM      5  C   LIG    1        6.883   0.231  -2.997  0.00  0.00    +0.000 A 
ATOM      6  C   LIG    1        6.984   0.756  -1.713  0.00  0.00    +0.000 A 
ATOM      7  C   LIG    1        5.957   0.551  -0.787  0.00  0.00    +0.006 A 
ENDBRANCH   1   2
BRANCH   1   9
ATOM      8  C   LIG    1        3.047   2.031   0.274  0.00  0.00    +0.027 C 
ATOM      9  C   LIG    1        2.584   0.602   0.016  0.00  0.00    +0.081 C 
BRANCH   9  10
ATOM     10  N   LIG    1        1.684   0.535  -1.156  0.00  0.00    -0.325 NA
ATOM     11  H   LIG    1        0.969   1.258  -1.067  0.00  0.00    +0.118 HD
ATOM     12  H   LIG    1        2.219   0.787  -1.991  0.00  0.00    +0.118 HD
ENDBRANCH   9  10
ENDBRANCH   1   9
BRANCH   1  13
ATOM     13  O   LIG    1        3.137  -1.728  -0.341  0.00  0.00    -0.386 OA
ATOM     14  H   LIG    1        2.278  -1.515  -0.761  0.00  0.00    +0.210 HD
ENDBRANCH   1  13
TORSDOF 4
