REMARK  Name = *****
REMARK                            x       y       z     vdW  Elec       q    Type
REMARK                         _______ _______ _______ _____ _____    ______ ____
ROOT
ATOM      1  N   LIG    1        4.532   0.572  -0.990  0.00  0.00    -0.109 NA
ATOM      2  C   LIG    1        5.101   1.463  -1.724  0.00  0.00    +0.201 C 
ATOM      3  N   LIG    1        6.473   1.721  -1.678  0.00  0.00    -0.326 N 
ATOM      4  H   LIG    1        7.029   1.383  -0.911  0.00  0.00    +0.169 HD
ATOM      5  C   LIG    1        6.724   2.935  -2.327  0.00  0.00    +0.066 A 
ATOM      6  C   LIG    1        5.517   3.349  -2.921  0.00  0.00    +0.065 A 
ATOM      7  C   LIG    1        5.447   4.458  -3.726  0.00  0.00    +0.028 A 
ATOM      8  C   LIG    1        6.628   5.187  -3.903  0.00  0.00    +0.014 A 
ATOM      9  C   LIG    1        7.851   4.771  -3.312  0.00  0.00    +0.024 A 
ATOM     10  C   LIG    1        7.901   3.623  -2.509  0.00  0.00    +0.039 A 
ATOM     11  N   LIG    1        4.556   2.386  -2.617  0.00  0.00    -0.326 N 
ATOM     12  H   LIG    1        3.561   2.569  -2.616  0.00  0.00    +0.169 HD
ENDROOT
BRANCH   1  13
ATOM     13  C   LIG    1        3.172   0.455  -1.080  0.00  0.00    +0.427 C 
ATOM     14  O   LIG    1        2.425   1.138  -1.767  0.00  0.00    -0.224 OA
BRANCH  13  16
ATOM     15  C   LIG    1        1.332  -0.716  -0.271  0.00  0.00    +0.282 C 
ATOM     16  O   LIG    1        2.745  -0.538  -0.256  0.00  0.00    -0.452 OA
ENDBRANCH  13  16
ENDBRANCH   1  13
BRANCH   9  17
ATOM     17  C   LIG    1        9.046   5.628  -3.529  0.00  0.00    +0.193 C 
ATOM     18  O   LIG    1        8.873   6.837  -3.675  0.00  0.00    -0.287 OA
BRANCH  17  19
ATOM     19  C   LIG    1       10.435   5.094  -3.575  0.00  0.00    +0.022 A 
ATOM     20  C   LIG    1       10.736   3.803  -4.024  0.00  0.00    +0.012 A 
ATOM     21  C   LIG    1       12.066   3.379  -4.098  0.00  0.00    +0.001 A 
ATOM     22  C   LIG    1       13.100   4.242  -3.738  0.00  0.00    +0.000 A 
ATOM     23  C   LIG    1       12.809   5.532  -3.299  0.00  0.00    +0.001 A 
ATOM     24  C   LIG    1       11.482   5.958  -3.221  0.00  0.00    +0.012 A 
ENDBRANCH  17  19
ENDBRANCH   9  17
TORSDOF 4
