REMARK  Name = *****
REMARK                            x       y       z     vdW  Elec       q    Type
REMARK                         _______ _______ _______ _____ _____    ______ ____
ROOT
ATOM      1  C   LIG    1        5.094  -3.318   0.673  0.00  0.00    +0.065 C 
ATOM      2  C   LIG    1        4.519  -4.525  -0.096  0.00  0.00    +0.096 C 
ATOM      3  C   LIG    1        5.457  -5.755   0.035  0.00  0.00    +0.065 C 
ATOM      4  C   LIG    1        6.764  -5.593   0.372  0.00  0.00    +0.016 C 
ATOM      5  C   LIG    1        7.784  -6.691   0.575  0.00  0.00    +0.061 C 
ATOM      6  N   LIG    1        7.248  -4.316   0.622  0.00  0.00    -0.321 N 
ATOM      7  H   LIG    1        8.188  -4.276   1.014  0.00  0.00    +0.152 HD
ATOM      8  C   LIG    1        6.422  -3.250   0.945  0.00  0.00    +0.016 C 
ATOM      9  C   LIG    1        7.125  -2.092   1.609  0.00  0.00    +0.061 C 
ENDROOT
BRANCH   2  10
ATOM     10  C   LIG    1        4.180  -4.170  -1.577  0.00  0.00    -0.028 A 
ATOM     11  C   LIG    1        2.864  -4.135  -2.124  0.00  0.00    -0.021 A 
ATOM     12  C   LIG    1        2.689  -3.818  -3.491  0.00  0.00    +0.008 A 
ATOM     13  C   LIG    1        3.759  -3.485  -4.310  0.00  0.00    +0.001 A 
ATOM     14  C   LIG    1        5.039  -3.483  -3.782  0.00  0.00    +0.000 A 
ATOM     15  C   LIG    1        5.248  -3.829  -2.442  0.00  0.00    +0.005 A 
BRANCH  11  16
ATOM     16  C   LIG    1        1.647  -4.483  -1.370  0.00  0.00    +0.015 C 
ATOM     17  C   LIG    1        0.404  -4.018  -1.633  0.00  0.00    +0.092 C 
BRANCH  17  18
ATOM     18  C   LIG    1       -0.780  -4.407  -0.839  0.00  0.00    +0.332 C 
ATOM     19  O   LIG    1       -1.897  -3.921  -1.030  0.00  0.00    -0.246 OA
BRANCH  18  20
ATOM     20  O   LIG    1       -0.417  -5.303   0.095  0.00  0.00    -0.456 OA
BRANCH  20  21
ATOM     21  C   LIG    1       -1.241  -5.566   1.250  0.00  0.00    +0.105 C 
ATOM     22  C   LIG    1       -1.428  -4.284   2.065  0.00  0.00    +0.055 C 
ATOM     23  C   LIG    1       -0.412  -6.552   2.086  0.00  0.00    +0.055 C 
ATOM     24  C   LIG    1       -2.572  -6.207   0.861  0.00  0.00    +0.055 C 
ENDBRANCH  20  21
ENDBRANCH  18  20
ENDBRANCH  17  18
ENDBRANCH  11  16
ENDBRANCH   2  10
BRANCH   1  25
ATOM     25  C   LIG    1        4.087  -2.346   1.181  0.00  0.00    +0.338 C 
ATOM     26  O   LIG    1        2.971  -2.212   0.711  0.00  0.00    -0.245 OA
BRANCH  25  27
ATOM     27  O   LIG    1        4.542  -1.722   2.299  0.00  0.00    -0.462 OA
BRANCH  27  29
ATOM     28  C   LIG    1        3.838   0.590   2.207  0.00  0.00    +0.048 C 
ATOM     29  C   LIG    1        3.678  -0.750   2.902  0.00  0.00    +0.229 C 
ENDBRANCH  27  29
ENDBRANCH  25  27
ENDBRANCH   1  25
BRANCH   3  30
ATOM     30  C   LIG    1        4.855  -7.117  -0.022  0.00  0.00    +0.338 C 
ATOM     31  O   LIG    1        5.397  -8.149   0.356  0.00  0.00    -0.245 OA
BRANCH  30  32
ATOM     32  O   LIG    1        3.612  -7.027  -0.549  0.00  0.00    -0.462 OA
BRANCH  32  33
ATOM     33  C   LIG    1        2.908  -8.249  -0.819  0.00  0.00    +0.229 C 
ATOM     34  C   LIG    1        3.661  -9.104  -1.823  0.00  0.00    +0.048 C 
ENDBRANCH  32  33
ENDBRANCH  30  32
ENDBRANCH   3  30
TORSDOF 11
