REMARK  Name = *****
REMARK                            x       y       z     vdW  Elec       q    Type
REMARK                         _______ _______ _______ _____ _____    ______ ____
ROOT
ATOM      1  N   LIG    1        1.273   1.131   1.517  0.00  0.00    -0.272 N 
ATOM      2  C   LIG    1        0.258   0.400   0.872  0.00  0.00    +0.230 C 
ATOM      3  O   LIG    1       -0.651  -0.147   1.548  0.00  0.00    -0.274 OA
ATOM      4  C   LIG    1        2.504   1.653   0.873  0.00  0.00    +0.138 C 
ENDROOT
BRANCH   1   6
ATOM      5  C   LIG    1        1.653   2.381   3.720  0.00  0.00    +0.009 A 
ATOM      6  C   LIG    1        1.348   1.224   2.970  0.00  0.00    +0.062 A 
ATOM      7  C   LIG    1        1.383  -0.020   3.674  0.00  0.00    +0.137 A 
ATOM      8  N   LIG    1        1.840  -0.209   4.949  0.00  0.00    -0.238 NA
ATOM      9  C   LIG    1        2.224   0.874   5.631  0.00  0.00    +0.122 A 
ATOM     10  C   LIG    1        2.037   2.152   5.079  0.00  0.00    +0.054 A 
BRANCH   5  13
ATOM     11  C   LIG    1       -0.288   3.815   1.579  0.00  0.00    +0.044 C 
ATOM     12  C   LIG    1        0.919   4.444   2.224  0.00  0.00    -0.043 A 
ATOM     13  C   LIG    1        1.729   3.826   3.214  0.00  0.00    -0.013 A 
ATOM     14  C   LIG    1        2.706   4.687   3.801  0.00  0.00    +0.009 A 
ATOM     15  C   LIG    1        2.939   6.011   3.398  0.00  0.00    +0.001 A 
ATOM     16  C   LIG    1        2.210   6.544   2.358  0.00  0.00    +0.000 A 
ATOM     17  C   LIG    1        1.204   5.773   1.789  0.00  0.00    +0.004 A 
ENDBRANCH   5  13
BRANCH   9  18
ATOM     18  N   LIG    1        2.956   0.779   6.849  0.00  0.00    -0.313 N 
ATOM     19  C   LIG    1        4.413   0.854   6.553  0.00  0.00    +0.122 C 
ATOM     20  C   LIG    1        5.261   0.769   7.849  0.00  0.00    +0.103 C 
ATOM     21  N   LIG    1        4.982  -0.392   8.720  0.00  0.00    -0.302 NA
ATOM     22  C   LIG    1        5.524  -1.633   8.171  0.00  0.00    +0.105 C 
ATOM     23  C   LIG    1        3.519  -0.478   8.936  0.00  0.00    +0.103 C 
ATOM     24  C   LIG    1        2.633  -0.421   7.654  0.00  0.00    +0.122 C 
ENDBRANCH   9  18
ENDBRANCH   1   6
BRANCH   2  25
ATOM     25  C   LIG    1        0.325   0.086  -0.708  0.00  0.00    +0.067 C 
ATOM     26  C   LIG    1        1.255  -1.140  -0.880  0.00  0.00    +0.025 C 
ATOM     27  C   LIG    1        0.841   1.200  -1.643  0.00  0.00    +0.025 C 
BRANCH  25  28
ATOM     28  C   LIG    1       -1.126  -0.224  -1.280  0.00  0.00    -0.032 A 
ATOM     29  C   LIG    1       -2.182   0.716  -1.193  0.00  0.00    +0.017 A 
ATOM     30  C   LIG    1       -3.453   0.461  -1.771  0.00  0.00    +0.056 A 
ATOM     31  C   LIG    1       -3.662  -0.741  -2.467  0.00  0.00    +0.024 A 
ATOM     32  C   LIG    1       -2.631  -1.673  -2.603  0.00  0.00    +0.056 A 
ATOM     33  C   LIG    1       -1.392  -1.406  -1.994  0.00  0.00    +0.017 A 
BRANCH  30  34
ATOM     34  C   LIG    1       -4.583   1.466  -1.667  0.00  0.00    +0.417 C 
ATOM     35  F   LIG    1       -4.288   2.650  -2.272  0.00  0.00    -0.166 F 
ATOM     36  F   LIG    1       -4.908   1.770  -0.381  0.00  0.00    -0.166 F 
ATOM     37  F   LIG    1       -5.742   1.039  -2.249  0.00  0.00    -0.166 F 
ENDBRANCH  30  34
BRANCH  32  38
ATOM     38  C   LIG    1       -2.832  -2.953  -3.380  0.00  0.00    +0.417 C 
ATOM     39  F   LIG    1       -3.600  -2.786  -4.492  0.00  0.00    -0.166 F 
ATOM     40  F   LIG    1       -3.442  -3.920  -2.642  0.00  0.00    -0.166 F 
ATOM     41  F   LIG    1       -1.663  -3.498  -3.820  0.00  0.00    -0.166 F 
ENDBRANCH  32  38
ENDBRANCH  25  28
ENDBRANCH   2  25
TORSDOF 7
