REMARK  Name = *****
REMARK                            x       y       z     vdW  Elec       q    Type
REMARK                         _______ _______ _______ _____ _____    ______ ____
ROOT
ATOM      1  C   LIG    1       -5.357  -1.865   0.114  0.00  0.00    +0.132 C 
ATOM      2  C   LIG    1       -5.943  -1.257   1.448  0.00  0.00    +0.017 C 
ATOM      3  C   LIG    1       -4.985  -0.056   1.787  0.00  0.00    +0.003 C 
ATOM      4  C   LIG    1       -4.357  -0.115   3.207  0.00  0.00    +0.001 C 
ATOM      5  C   LIG    1       -5.443  -0.346   4.293  0.00  0.00    +0.025 C 
ATOM      6  C   LIG    1       -6.172  -1.659   3.991  0.00  0.00    -0.072 C 
ATOM      7  C   LIG    1       -6.847  -2.354   4.923  0.00  0.00    +0.008 C 
ATOM      8  C   LIG    1       -6.349   0.928   4.480  0.00  0.00    +0.023 C 
ATOM      9  C   LIG    1       -5.511   2.195   4.654  0.00  0.00    -0.063 C 
ATOM     10  C   LIG    1       -5.782   3.148   5.563  0.00  0.00    +0.045 C 
ATOM     11  C   LIG    1       -7.007   3.094   6.392  0.00  0.00    +0.156 C 
ATOM     12  O   LIG    1       -7.199   3.952   7.250  0.00  0.00    -0.293 OA
ATOM     13  C   LIG    1       -8.028   2.042   6.055  0.00  0.00    +0.079 C 
ATOM     14  C   LIG    1       -4.358   2.386   3.701  0.00  0.00    +0.031 C 
ATOM     15  C   LIG    1       -7.336   0.749   5.654  0.00  0.00    +0.016 C 
ATOM     16  C   LIG    1       -3.518   1.126   3.554  0.00  0.00    +0.009 C 
ATOM     17  C   LIG    1       -3.923  -0.027   0.677  0.00  0.00    +0.008 C 
ATOM     18  C   LIG    1       -5.949  -2.278   2.622  0.00  0.00    +0.041 C 
ATOM     19  C   LIG    1       -4.591  -0.695  -0.513  0.00  0.00    +0.049 C 
ENDROOT
BRANCH   1  21
ATOM     20  C   LIG    1       -3.677  -3.936   0.417  0.00  0.00    +0.007 C 
ATOM     21  C   LIG    1       -4.428  -3.005   0.298  0.00  0.00    -0.070 C 
ENDBRANCH   1  21
BRANCH   1  22
ATOM     22  O   LIG    1       -6.370  -2.297  -0.783  0.00  0.00    -0.376 OA
ATOM     23  H   LIG    1       -6.732  -3.127  -0.427  0.00  0.00    +0.211 HD
ENDBRANCH   1  22
BRANCH   2  24
ATOM     24  C   LIG    1       -7.433  -0.778   1.272  0.00  0.00    +0.008 C 
ATOM     25  C   LIG    1       -7.734   0.280   0.215  0.00  0.00    +0.004 C 
ENDBRANCH   2  24
TORSDOF 3
