REMARK  Name = *****
REMARK                            x       y       z     vdW  Elec       q    Type
REMARK                         _______ _______ _______ _____ _____    ______ ____
ROOT
ATOM      1  N   LIG    1        7.085  -0.777  -2.350  0.00  0.00    -0.269 N 
ATOM      2  C   LIG    1        7.891  -1.608  -1.601  0.00  0.00    +0.368 A 
ATOM      3  C   LIG    1        9.136  -1.033  -1.585  0.00  0.00    +0.217 A 
ATOM      4  N   LIG    1        9.137   0.103  -2.342  0.00  0.00    -0.234 NA
ATOM      5  C   LIG    1        7.907   0.250  -2.800  0.00  0.00    +0.112 A 
ATOM      6  C   LIG    1        7.488   1.409  -3.635  0.00  0.00    +0.086 C 
ENDROOT
BRANCH   2   7
ATOM      7  N   LIG    1        7.502  -2.812  -0.950  0.00  0.00    +0.100 N 
ATOM      8  O   LIG    1        8.384  -3.418  -0.333  0.00  0.00    -0.575 OA
ATOM      9  O   LIG    1        6.318  -3.157  -1.037  0.00  0.00    +0.043 OA
ENDBRANCH   2   7
BRANCH   1  10
ATOM     10  C   LIG    1        5.657  -0.905  -2.625  0.00  0.00    +0.152 C 
BRANCH  10  11
ATOM     11  C   LIG    1        4.793  -0.362  -1.496  0.00  0.00    +0.187 C 
BRANCH  11  12
ATOM     12  S   LIG    1        3.049  -0.475  -1.837  0.00  0.00    -0.030 S 
ATOM     13  O   LIG    1        2.346   0.031  -0.666  0.00  0.00    -0.174 OA
ATOM     14  O   LIG    1        2.834   0.134  -3.143  0.00  0.00    -0.174 OA
BRANCH  12  16
ATOM     15  C   LIG    1        1.258  -2.539  -2.244  0.00  0.00    +0.028 C 
ATOM     16  C   LIG    1        2.717  -2.219  -1.977  0.00  0.00    +0.162 C 
ENDBRANCH  12  16
ENDBRANCH  11  12
ENDBRANCH  10  11
ENDBRANCH   1  10
TORSDOF 5
