REMARK  Name = *****
REMARK                            x       y       z     vdW  Elec       q    Type
REMARK                         _______ _______ _______ _____ _____    ______ ____
ROOT
ATOM      1  N   LIG    1        3.377   8.321  -2.276  0.00  0.00    -0.220 NA
ENDROOT
BRANCH   1   2
ATOM      2  N   LIG    1        4.117   9.601  -2.203  0.00  0.00    -0.246 N 
ATOM      3  H   LIG    1        4.072  10.223  -3.004  0.00  0.00    +0.169 HD
ATOM      4  C   LIG    1        4.830   9.958  -1.070  0.00  0.00    +0.248 C 
ATOM      5  O   LIG    1        4.828   9.287  -0.042  0.00  0.00    -0.272 OA
BRANCH   4   6
ATOM      6  C   LIG    1        5.722  11.171  -1.048  0.00  0.00    +0.169 C 
BRANCH   6   7
ATOM      7  C   LIG    1        6.941  10.946  -2.017  0.00  0.00    -0.011 C 
ATOM      8  C   LIG    1        7.727  12.274  -2.072  0.00  0.00    +0.013 C 
ATOM      9  C   LIG    1        6.604  10.627  -3.498  0.00  0.00    +0.013 C 
ATOM     10  C   LIG    1        7.783   9.743  -1.513  0.00  0.00    +0.013 C 
ENDBRANCH   6   7
BRANCH   6  11
ATOM     11  N   LIG    1        6.231  11.473   0.371  0.00  0.00    -0.269 N 
ATOM     12  H   LIG    1        6.929  12.192   0.458  0.00  0.00    +0.153 HD
ATOM     13  C   LIG    1        5.750  11.109   1.635  0.00  0.00    +0.401 C 
ATOM     14  O   LIG    1        4.914  10.303   1.965  0.00  0.00    -0.227 OA
BRANCH  13  15
ATOM     15  O   LIG    1        6.338  11.911   2.571  0.00  0.00    -0.454 OA
ATOM     16  C   LIG    1        5.699  11.834   3.861  0.00  0.00    +0.282 C 
ENDBRANCH  13  15
ENDBRANCH   6  11
ENDBRANCH   4   6
ENDBRANCH   1   2
BRANCH   1  17
ATOM     17  C   LIG    1        2.415   8.406  -3.447  0.00  0.00    +0.139 C 
BRANCH  17  18
ATOM     18  C   LIG    1        1.226   9.522  -3.523  0.00  0.00    +0.150 C 
BRANCH  18  19
ATOM     19  O   LIG    1        0.583   9.733  -2.268  0.00  0.00    -0.389 OA
ATOM     20  H   LIG    1        0.419  10.681  -2.172  0.00  0.00    +0.210 HD
ENDBRANCH  18  19
BRANCH  18  21
ATOM     21  C   LIG    1        0.119   9.385  -4.653  0.00  0.00    +0.107 C 
BRANCH  21  23
ATOM     22  C   LIG    1       -1.938   7.811  -3.754  0.00  0.00    +0.234 C 
ATOM     23  N   LIG    1       -0.962   8.311  -4.545  0.00  0.00    -0.308 N 
ATOM     24  H   LIG    1       -1.283   8.031  -5.466  0.00  0.00    +0.149 HD
ATOM     25  O   LIG    1       -2.802   7.177  -4.381  0.00  0.00    -0.274 OA
BRANCH  22  26
ATOM     26  C   LIG    1       -2.029   7.836  -2.245  0.00  0.00    +0.167 C 
BRANCH  26  27
ATOM     27  C   LIG    1       -1.095   6.912  -1.508  0.00  0.00    -0.011 C 
ATOM     28  C   LIG    1       -1.446   5.330  -1.737  0.00  0.00    +0.013 C 
ATOM     29  C   LIG    1       -1.355   7.916   0.062  0.00  0.00    +0.013 C 
ATOM     30  C   LIG    1        0.229   6.732  -2.329  0.00  0.00    +0.013 C 
ENDBRANCH  26  27
BRANCH  26  32
ATOM     31  C   LIG    1       -4.327   8.234  -1.360  0.00  0.00    +0.401 C 
ATOM     32  N   LIG    1       -3.335   7.403  -1.697  0.00  0.00    -0.269 N 
ATOM     33  H   LIG    1       -3.275   6.735  -0.930  0.00  0.00    +0.153 HD
ATOM     34  O   LIG    1       -5.476   7.844  -1.237  0.00  0.00    -0.227 OA
BRANCH  31  36
ATOM     35  C   LIG    1       -4.825  10.454  -0.853  0.00  0.00    +0.282 C 
ATOM     36  O   LIG    1       -3.846   9.457  -1.066  0.00  0.00    -0.454 OA
ENDBRANCH  31  36
ENDBRANCH  26  32
ENDBRANCH  22  26
ENDBRANCH  21  23
BRANCH  21  37
ATOM     37  C   LIG    1       -0.633  10.722  -5.111  0.00  0.00    +0.060 C 
BRANCH  37  38
ATOM     38  C   LIG    1       -0.099  12.177  -5.095  0.00  0.00    -0.045 A 
ATOM     39  C   LIG    1        0.166  12.932  -6.196  0.00  0.00    +0.003 A 
ATOM     40  C   LIG    1        0.387  14.328  -6.140  0.00  0.00    +0.000 A 
ATOM     41  C   LIG    1        0.281  14.981  -4.933  0.00  0.00    +0.000 A 
ATOM     42  C   LIG    1       -0.018  14.248  -3.779  0.00  0.00    +0.000 A 
ATOM     43  C   LIG    1       -0.210  12.856  -3.856  0.00  0.00    +0.003 A 
ENDBRANCH  37  38
ENDBRANCH  21  37
ENDBRANCH  18  21
ENDBRANCH  17  18
ENDBRANCH   1  17
BRANCH   1  44
ATOM     44  C   LIG    1        2.912   7.956  -0.871  0.00  0.00    +0.140 C 
BRANCH  44  45
ATOM     45  C   LIG    1        2.249   6.752  -0.262  0.00  0.00    -0.032 A 
ATOM     46  C   LIG    1        2.655   5.445   0.218  0.00  0.00    +0.005 A 
ATOM     47  C   LIG    1        1.689   4.484   0.813  0.00  0.00    +0.010 A 
ATOM     48  C   LIG    1        0.318   4.703   0.933  0.00  0.00    +0.000 A 
ATOM     49  C   LIG    1        0.135   6.004   0.653  0.00  0.00    +0.010 A 
ATOM     50  C   LIG    1        1.047   6.962   0.212  0.00  0.00    +0.005 A 
BRANCH  48  51
ATOM     51  C   LIG    1       -0.954   3.975   1.336  0.00  0.00    +0.071 A 
ATOM     52  N   LIG    1       -0.723   2.983   2.158  0.00  0.00    -0.255 NA
ATOM     53  C   LIG    1       -1.784   2.415   2.741  0.00  0.00    +0.111 A 
ATOM     54  C   LIG    1       -3.122   2.711   2.526  0.00  0.00    +0.020 A 
ATOM     55  C   LIG    1       -3.435   3.702   1.600  0.00  0.00    +0.004 A 
ATOM     56  C   LIG    1       -2.333   4.368   1.056  0.00  0.00    +0.028 A 
ENDBRANCH  48  51
ENDBRANCH  44  45
ENDBRANCH   1  44
TORSDOF 19
