REMARK  Name = *****
REMARK                            x       y       z     vdW  Elec       q    Type
REMARK                         _______ _______ _______ _____ _____    ______ ____
ROOT
ATOM      1  C   LIG    1        8.986  -2.719  -2.982  0.00  0.00    +0.123 C 
ATOM      2  N   LIG    1        7.854  -3.042  -2.443  0.00  0.00    -0.178 NA
ATOM      3  C   LIG    1        7.300  -2.238  -1.474  0.00  0.00    +0.352 C 
ATOM      4  O   LIG    1        6.192  -2.494  -1.011  0.00  0.00    -0.244 OA
ATOM      5  N   LIG    1        8.027  -1.123  -1.032  0.00  0.00    -0.273 N 
ATOM      6  C   LIG    1        9.218  -0.774  -1.631  0.00  0.00    +0.096 C 
ATOM      7  C   LIG    1        9.744  -1.511  -2.607  0.00  0.00    +0.061 C 
ENDROOT
BRANCH   5   8
ATOM      8  C   LIG    1        7.390  -0.285  -0.016  0.00  0.00    +0.224 C 
ATOM      9  O   LIG    1        8.170   0.908   0.224  0.00  0.00    -0.351 OA
ATOM     10  C   LIG    1        8.607   0.909   1.599  0.00  0.00    +0.146 C 
ATOM     11  C   LIG    1        8.435  -0.504   2.112  0.00  0.00    +0.038 C 
ATOM     12  C   LIG    1        7.224  -0.966   1.343  0.00  0.00    +0.057 C 
BRANCH  10  13
ATOM     13  C   LIG    1       10.051   1.398   1.668  0.00  0.00    +0.187 C 
BRANCH  13  14
ATOM     14  O   LIG    1       10.139   2.724   1.148  0.00  0.00    -0.393 OA
ATOM     15  H   LIG    1        9.598   2.726   0.334  0.00  0.00    +0.209 HD
ENDBRANCH  13  14
ENDBRANCH  10  13
ENDBRANCH   5   8
BRANCH   1  16
ATOM     16  N   LIG    1        9.476  -3.552  -3.949  0.00  0.00    -0.343 N 
ATOM     17  H   LIG    1        8.777  -4.217  -4.266  0.00  0.00    +0.144 HD
ATOM     18  H   LIG    1        9.991  -3.124  -4.708  0.00  0.00    +0.144 HD
ENDBRANCH   1  16
TORSDOF 4
