REMARK  Name = *****
REMARK                            x       y       z     vdW  Elec       q    Type
REMARK                         _______ _______ _______ _____ _____    ______ ____
ROOT
ATOM      1  C   LIG    1        0.926   0.053  -0.079  0.00  0.00    +0.011 C 
ATOM      2  C   LIG    1        2.458   0.054  -0.081  0.00  0.00    -0.030 C 
ATOM      3  C   LIG    1        2.991  -1.387   0.097  0.00  0.00    +0.013 C 
ATOM      4  C   LIG    1        4.538  -1.405   0.100  0.00  0.00    -0.030 C 
ATOM      5  C   LIG    1        5.042  -0.508   1.254  0.00  0.00    +0.010 C 
ATOM      6  C   LIG    1        4.531   0.931   1.078  0.00  0.00    -0.008 C 
ATOM      7  C   LIG    1        5.042   1.493  -0.259  0.00  0.00    +0.025 C 
ATOM      8  C   LIG    1        4.534   0.623  -1.427  0.00  0.00    +0.018 C 
ATOM      9  C   LIG    1        5.048  -2.837   0.281  0.00  0.00    +0.011 C 
ATOM     10  C   LIG    1        5.044  -0.821  -1.240  0.00  0.00    +0.028 C 
ATOM     11  C   LIG    1        2.990   0.619  -1.419  0.00  0.00    +0.028 C 
ATOM     12  C   LIG    1        2.994   0.928   1.075  0.00  0.00    +0.010 C 
ENDROOT
BRANCH   8  13
ATOM     13  N   LIG    1        5.033   1.160  -2.692  0.00  0.00    -0.325 NA
ATOM     14  H   LIG    1        4.678   0.602  -3.469  0.00  0.00    +0.119 HD
ATOM     15  H   LIG    1        4.675   2.103  -2.834  0.00  0.00    +0.119 HD
ENDBRANCH   8  13
TORSDOF 1
