REMARK  Name = *****
REMARK                            x       y       z     vdW  Elec       q    Type
REMARK                         _______ _______ _______ _____ _____    ______ ____
ROOT
ATOM      1  C   LIG    1        2.152  -0.934   1.921  0.00  0.00    +0.157 C 
ATOM      2  N   LIG    1        3.232  -0.540   0.990  0.00  0.00    -0.206 N 
ATOM      3  S   LIG    1        4.208   0.738   1.563  0.00  0.00    +0.075 S 
ATOM      4  O   LIG    1        5.297   0.180   2.333  0.00  0.00    -0.150 OA
ATOM      5  O   LIG    1        3.311   1.716   2.150  0.00  0.00    -0.150 OA
ATOM      6  C   LIG    1        4.936   1.552   0.148  0.00  0.00    +0.115 A 
ATOM      7  C   LIG    1        4.854   1.120  -1.192  0.00  0.00    +0.001 A 
ATOM      8  C   LIG    1        5.497   1.910  -2.174  0.00  0.00    +0.009 A 
ATOM      9  C   LIG    1        6.174   3.086  -1.842  0.00  0.00    +0.020 A 
ATOM     10  C   LIG    1        6.217   3.505  -0.519  0.00  0.00    +0.043 A 
ATOM     11 CL   LIG    1        7.010   4.975  -0.111  0.00  0.00    -0.084 Cl
ATOM     12  C   LIG    1        4.078  -0.098  -1.685  0.00  0.00    +0.118 C 
ATOM     13  C   LIG    1        4.458  -1.359  -0.935  0.00  0.00    -0.004 A 
ATOM     14  C   LIG    1        5.316  -2.302  -1.526  0.00  0.00    +0.007 A 
ATOM     15  C   LIG    1        5.684  -3.459  -0.838  0.00  0.00    +0.001 A 
ATOM     16  C   LIG    1        5.205  -3.682   0.450  0.00  0.00    +0.002 A 
ATOM     17  C   LIG    1        4.368  -2.745   1.056  0.00  0.00    +0.025 A 
ATOM     18  C   LIG    1        5.611   2.746   0.473  0.00  0.00    +0.049 A 
ATOM     19  C   LIG    1        3.985  -1.592   0.362  0.00  0.00    +0.056 A 
ENDROOT
BRANCH  12  20
ATOM     20  N   LIG    1        2.639   0.225  -1.707  0.00  0.00    -0.306 NA
ATOM     21  H   LIG    1        2.350   0.336  -0.734  0.00  0.00    +0.123 HD
BRANCH  20  22
ATOM     22  C   LIG    1        1.805  -0.810  -2.322  0.00  0.00    +0.082 C 
BRANCH  22  23
ATOM     23  C   LIG    1        0.323  -0.397  -2.324  0.00  0.00    +0.015 C 
BRANCH  23  24
ATOM     24  C   LIG    1       -0.267  -0.183  -0.921  0.00  0.00    +0.001 C 
BRANCH  24  25
ATOM     25  C   LIG    1       -1.741   0.236  -0.980  0.00  0.00    +0.001 C 
BRANCH  25  26
ATOM     26  C   LIG    1       -2.393   0.422   0.398  0.00  0.00    +0.011 C 
BRANCH  26  27
ATOM     27  C   LIG    1       -1.739   1.515   1.241  0.00  0.00    +0.120 C 
BRANCH  27  28
ATOM     28  C   LIG    1       -2.414   1.661   2.584  0.00  0.00    +0.305 C 
ATOM     29  O   LIG    1       -2.108   1.007   3.571  0.00  0.00    -0.251 OA
BRANCH  28  30
ATOM     30  O   LIG    1       -3.414   2.569   2.599  0.00  0.00    -0.481 OA
ATOM     31  H   LIG    1       -3.548   3.036   1.753  0.00  0.00    +0.295 HD
ENDBRANCH  28  30
ENDBRANCH  27  28
ENDBRANCH  26  27
ENDBRANCH  25  26
ENDBRANCH  24  25
ENDBRANCH  23  24
ENDBRANCH  22  23
ENDBRANCH  20  22
ENDBRANCH  12  20
TORSDOF 9
