REMARK  Name = *****
REMARK                            x       y       z     vdW  Elec       q    Type
REMARK                         _______ _______ _______ _____ _____    ______ ____
ROOT
ATOM      1  C   LIG    1        3.724  -0.044  -0.000  0.00  0.00    +0.146 C 
ENDROOT
BRANCH   1   2
ATOM      2  C   LIG    1        4.221  -0.467  -1.360  0.00  0.00    +0.032 C 
ATOM      3  C   LIG    1        5.021  -1.511  -1.615  0.00  0.00    +0.079 C 
ATOM      4 CL   LIG    1        5.540  -1.915  -3.196  0.00  0.00    -0.092 Cl
ENDBRANCH   1   2
BRANCH   1   6
ATOM      5  C   LIG    1        1.090  -0.044  -0.000  0.00  0.00    +0.007 C 
ATOM      6  C   LIG    1        2.280  -0.044  -0.000  0.00  0.00    -0.067 C 
ENDBRANCH   1   6
BRANCH   1   7
ATOM      7  C   LIG    1        4.280   1.350   0.356  0.00  0.00    +0.049 C 
ATOM      8  C   LIG    1        3.887   1.839   1.751  0.00  0.00    +0.008 C 
ENDBRANCH   1   7
BRANCH   1   9
ATOM      9  O   LIG    1        4.189  -0.972   0.979  0.00  0.00    -0.373 OA
ATOM     10  H   LIG    1        3.606  -1.748   0.925  0.00  0.00    +0.212 HD
ENDBRANCH   1   9
TORSDOF 4
