REMARK  Name = *****
REMARK                            x       y       z     vdW  Elec       q    Type
REMARK                         _______ _______ _______ _____ _____    ______ ____
ROOT
ATOM      1  S   LIG    1        6.665  -0.202  -0.538  0.00  0.00    +0.102 S 
ATOM      2  O   LIG    1        7.393   0.400   0.562  0.00  0.00    -0.146 OA
ATOM      3  O   LIG    1        6.689   0.420  -1.851  0.00  0.00    -0.146 OA
ENDROOT
BRANCH   1   7
ATOM      4  C   LIG    1        2.258  -0.465   0.660  0.00  0.00    +0.025 A 
ATOM      5  C   LIG    1        2.717  -1.077  -0.511  0.00  0.00    +0.024 A 
ATOM      6  C   LIG    1        4.058  -0.978  -0.890  0.00  0.00    +0.031 A 
ATOM      7  C   LIG    1        4.954  -0.295  -0.063  0.00  0.00    +0.113 A 
ATOM      8  C   LIG    1        4.526   0.274   1.135  0.00  0.00    +0.031 A 
ATOM      9  C   LIG    1        3.182   0.165   1.501  0.00  0.00    +0.024 A 
BRANCH   4  10
ATOM     10  N   LIG    1        0.947  -0.681   1.098  0.00  0.00    -0.358 N 
ATOM     11  H   LIG    1        0.284  -0.843   0.346  0.00  0.00    +0.142 HD
ATOM     12  H   LIG    1        0.614   0.018   1.756  0.00  0.00    +0.142 HD
ENDBRANCH   4  10
ENDBRANCH   1   7
BRANCH   1  13
ATOM     13  N   LIG    1        7.096  -1.751  -0.653  0.00  0.00    -0.091 NA
ATOM     14  C   LIG    1        7.647  -2.238  -1.709  0.00  0.00    +0.239 C 
BRANCH  14  15
ATOM     15  C   LIG    1        8.047  -3.662  -1.831  0.00  0.00    +0.038 A 
ATOM     16  C   LIG    1        8.659  -4.140  -2.998  0.00  0.00    +0.013 A 
ATOM     17  C   LIG    1        9.019  -5.483  -3.106  0.00  0.00    +0.001 A 
ATOM     18  C   LIG    1        8.768  -6.357  -2.051  0.00  0.00    +0.000 A 
ATOM     19  C   LIG    1        8.159  -5.892  -0.886  0.00  0.00    +0.001 A 
ATOM     20  C   LIG    1        7.798  -4.547  -0.773  0.00  0.00    +0.013 A 
ENDBRANCH  14  15
BRANCH  14  21
ATOM     21  O   LIG    1        7.917  -1.566  -2.845  0.00  0.00    -0.491 OA
ATOM     22  H   LIG    1        7.610  -0.636  -2.818  0.00  0.00    +0.294 HD
ENDBRANCH  14  21
ENDBRANCH   1  13
TORSDOF 5
