REMARK  Name = *****
REMARK                            x       y       z     vdW  Elec       q    Type
REMARK                         _______ _______ _______ _____ _____    ______ ____
ROOT
ATOM      1  C   LIG    1        4.242   3.017  -1.731  0.00  0.00    -0.016 A 
ATOM      2  C   LIG    1        3.727   3.380  -0.477  0.00  0.00    +0.011 A 
ATOM      3  C   LIG    1        3.083   4.618  -0.263  0.00  0.00    -0.024 A 
ATOM      4  C   LIG    1        2.986   5.505  -1.351  0.00  0.00    +0.044 A 
ATOM      5 CL   LIG    1        2.175   7.026  -1.223  0.00  0.00    -0.083 Cl
ATOM      6  C   LIG    1        3.535   5.177  -2.591  0.00  0.00    +0.020 A 
ATOM      7  C   LIG    1        4.155   3.944  -2.779  0.00  0.00    +0.008 A 
ENDROOT
BRANCH   1  12
ATOM      8  C   LIG    1        6.413   0.550  -3.428  0.00  0.00    +0.175 C 
ATOM      9  C   LIG    1        5.337  -0.368  -4.010  0.00  0.00    +0.176 C 
ATOM     10  C   LIG    1        4.307  -0.662  -2.923  0.00  0.00    +0.177 C 
ATOM     11  C   LIG    1        3.715   0.628  -2.345  0.00  0.00    +0.179 C 
ATOM     12  C   LIG    1        4.834   1.629  -1.959  0.00  0.00    +0.180 C 
ATOM     13  O   LIG    1        5.801   1.773  -3.003  0.00  0.00    -0.361 OA
BRANCH   9  14
ATOM     14  O   LIG    1        5.888  -1.597  -4.487  0.00  0.00    -0.387 OA
ATOM     15  H   LIG    1        5.113  -2.175  -4.647  0.00  0.00    +0.210 HD
ENDBRANCH   9  14
BRANCH  10  16
ATOM     16  O   LIG    1        3.261  -1.477  -3.483  0.00  0.00    -0.387 OA
ATOM     17  H   LIG    1        2.581  -1.530  -2.781  0.00  0.00    +0.210 HD
ENDBRANCH  10  16
BRANCH  11  18
ATOM     18  O   LIG    1        2.901   0.238  -1.224  0.00  0.00    -0.386 OA
ATOM     19  H   LIG    1        2.510   1.046  -0.846  0.00  0.00    +0.210 HD
ENDBRANCH  11  18
BRANCH   8  20
ATOM     20  C   LIG    1        7.479   0.886  -4.479  0.00  0.00    +0.190 C 
BRANCH  20  21
ATOM     21  O   LIG    1        8.494   1.712  -3.903  0.00  0.00    -0.392 OA
ATOM     22  H   LIG    1        9.146   1.887  -4.602  0.00  0.00    +0.209 HD
ENDBRANCH  20  21
ENDBRANCH   8  20
ENDBRANCH   1  12
BRANCH   3  23
ATOM     23  C   LIG    1        2.508   4.999   1.093  0.00  0.00    +0.071 C 
BRANCH  23  24
ATOM     24  C   LIG    1        2.691   3.982   2.199  0.00  0.00    -0.043 A 
ATOM     25  C   LIG    1        1.749   2.961   2.413  0.00  0.00    +0.007 A 
ATOM     26  C   LIG    1        1.989   1.977   3.382  0.00  0.00    +0.046 A 
ATOM     27  C   LIG    1        3.157   1.986   4.145  0.00  0.00    +0.121 A 
ATOM     28  C   LIG    1        4.096   2.999   3.920  0.00  0.00    +0.046 A 
ATOM     29  C   LIG    1        3.857   3.988   2.963  0.00  0.00    +0.007 A 
BRANCH  27  30
ATOM     30  O   LIG    1        3.273   0.983   5.074  0.00  0.00    -0.486 OA
BRANCH  30  31
ATOM     31  C   LIG    1        4.483   0.911   5.840  0.00  0.00    +0.201 C 
ATOM     32  C   LIG    1        5.506   0.003   5.170  0.00  0.00    +0.204 C 
ATOM     33  O   LIG    1        5.271  -1.337   5.638  0.00  0.00    -0.376 OA
ATOM     34  C   LIG    1        4.361  -1.279   6.742  0.00  0.00    +0.163 C 
ATOM     35  C   LIG    1        4.223   0.174   7.135  0.00  0.00    +0.075 C 
ENDBRANCH  30  31
ENDBRANCH  27  30
ENDBRANCH  23  24
ENDBRANCH   3  23
TORSDOF 10
