REMARK  Name = *****
REMARK                            x       y       z     vdW  Elec       q    Type
REMARK                         _______ _______ _______ _____ _____    ______ ____
ROOT
ATOM      1  C   LIG    1        3.888   3.199  -6.761  0.00  0.00    +0.159 C 
ENDROOT
BRANCH   1   2
ATOM      2  C   LIG    1        2.693   3.325  -7.697  0.00  0.00    -0.009 A 
ATOM      3  C   LIG    1        1.620   4.217  -7.458  0.00  0.00    +0.008 A 
ATOM      4  C   LIG    1        0.561   4.282  -8.388  0.00  0.00    +0.091 A 
ATOM      5  N   LIG    1       -0.486   5.201  -8.201  0.00  0.00    -0.319 N 
ATOM      6  H   LIG    1       -1.219   5.232  -8.904  0.00  0.00    +0.169 HD
ATOM      7  C   LIG    1       -0.552   6.080  -7.164  0.00  0.00    +0.249 C 
ATOM      8  C   LIG    1        0.518   5.976  -6.154  0.00  0.00    +0.071 C 
ATOM      9  O   LIG    1       -1.450   6.920  -7.047  0.00  0.00    -0.268 OA
ATOM     10  C   LIG    1        0.530   3.463  -9.517  0.00  0.00    +0.141 A 
ATOM     11  C   LIG    1        1.567   2.578  -9.758  0.00  0.00    +0.048 A 
ATOM     12  C   LIG    1        1.527   5.095  -6.281  0.00  0.00    +0.015 C 
ATOM     13  C   LIG    1        2.642   2.523  -8.864  0.00  0.00    +0.010 A 
BRANCH  10  14
ATOM     14  O   LIG    1       -0.532   3.562 -10.377  0.00  0.00    -0.505 OA
ATOM     15  H   LIG    1       -0.413   2.917 -11.094  0.00  0.00    +0.292 HD
ENDBRANCH  10  14
ENDBRANCH   1   2
BRANCH   1  16
ATOM     16  O   LIG    1        4.450   1.880  -6.852  0.00  0.00    -0.386 OA
ATOM     17  H   LIG    1        5.354   1.970  -6.489  0.00  0.00    +0.210 HD
ENDBRANCH   1  16
BRANCH   1  18
ATOM     18  C   LIG    1        5.018   4.234  -7.035  0.00  0.00    +0.117 C 
BRANCH  18  19
ATOM     19  N   LIG    1        6.171   3.998  -6.125  0.00  0.00    -0.310 NA
ATOM     20  H   LIG    1        5.852   4.081  -5.158  0.00  0.00    +0.122 HD
BRANCH  19  26
ATOM     21  C   LIG    1       11.635   6.652  -6.464  0.00  0.00    -0.044 A 
ATOM     22  C   LIG    1       11.304   6.756  -7.845  0.00  0.00    -0.044 A 
ATOM     23  C   LIG    1       10.098   6.202  -8.319  0.00  0.00    +0.007 A 
ATOM     24  C   LIG    1        9.232   5.594  -7.431  0.00  0.00    -0.042 A 
ATOM     25  C   LIG    1        7.911   4.956  -7.730  0.00  0.00    +0.054 C 
ATOM     26  C   LIG    1        7.252   4.981  -6.330  0.00  0.00    +0.062 C 
ATOM     27  C   LIG    1        8.438   4.800  -5.338  0.00  0.00    +0.054 C 
ATOM     28  C   LIG    1        9.539   5.505  -6.075  0.00  0.00    -0.042 A 
ATOM     29  C   LIG    1       10.733   6.011  -5.585  0.00  0.00    +0.007 A 
BRANCH  21  31
ATOM     30  C   LIG    1       12.823   8.594  -5.307  0.00  0.00    +0.009 C 
ATOM     31  C   LIG    1       12.927   7.183  -5.871  0.00  0.00    +0.032 C 
ENDBRANCH  21  31
BRANCH  22  32
ATOM     32  C   LIG    1       12.160   7.476  -8.863  0.00  0.00    +0.032 C 
ATOM     33  C   LIG    1       11.779   8.945  -8.976  0.00  0.00    +0.009 C 
ENDBRANCH  22  32
ENDBRANCH  19  26
ENDBRANCH  18  19
ENDBRANCH   1  18
TORSDOF 8
