REMARK  Name = *****
REMARK                            x       y       z     vdW  Elec       q    Type
REMARK                         _______ _______ _______ _____ _____    ______ ____
ROOT
ATOM      1  N   LIG    1        4.614   0.347  -5.593  0.00  0.00    -0.227 N 
ATOM      2  C   LIG    1        5.160  -0.425  -6.593  0.00  0.00    +0.134 A 
ATOM      3  C   LIG    1        5.701  -1.755  -6.516  0.00  0.00    +0.270 C 
ATOM      4  N   LIG    1        5.876  -2.407  -7.770  0.00  0.00    -0.266 N 
ATOM      5  C   LIG    1        5.495  -1.685  -9.015  0.00  0.00    +0.119 C 
ATOM      6  C   LIG    1        5.761  -0.167  -8.979  0.00  0.00    +0.059 C 
ATOM      7  O   LIG    1        6.032  -2.210  -5.423  0.00  0.00    -0.268 OA
ATOM      8  C   LIG    1        5.233   0.369  -7.712  0.00  0.00    +0.017 A 
ATOM      9  C   LIG    1        4.847   1.657  -7.296  0.00  0.00    +0.151 A 
ATOM     10  N   LIG    1        4.525   1.657  -5.985  0.00  0.00    -0.161 NA
ENDROOT
BRANCH   1  14
ATOM     11  C   LIG    1        3.153  -0.774  -1.776  0.00  0.00    +0.120 A 
ATOM     12  C   LIG    1        3.631   0.516  -2.005  0.00  0.00    +0.048 A 
ATOM     13  C   LIG    1        4.099   0.885  -3.272  0.00  0.00    +0.031 A 
ATOM     14  C   LIG    1        4.118  -0.047  -4.316  0.00  0.00    +0.066 A 
ATOM     15  C   LIG    1        3.616  -1.336  -4.091  0.00  0.00    +0.031 A 
ATOM     16  C   LIG    1        3.127  -1.690  -2.828  0.00  0.00    +0.048 A 
BRANCH  11  18
ATOM     17  C   LIG    1        3.215  -0.641   0.578  0.00  0.00    +0.277 C 
ATOM     18  O   LIG    1        2.642  -1.223  -0.589  0.00  0.00    -0.495 OA
ENDBRANCH  11  18
ENDBRANCH   1  14
BRANCH   4  19
ATOM     19  C   LIG    1        6.240  -3.808  -7.860  0.00  0.00    +0.037 A 
ATOM     20  C   LIG    1        6.359  -4.474  -9.086  0.00  0.00    +0.025 A 
ATOM     21  C   LIG    1        6.738  -5.829  -9.165  0.00  0.00    +0.025 A 
ATOM     22  C   LIG    1        7.010  -6.592  -8.022  0.00  0.00    +0.036 A 
ATOM     23  C   LIG    1        6.836  -5.945  -6.804  0.00  0.00    +0.025 A 
ATOM     24  C   LIG    1        6.476  -4.592  -6.728  0.00  0.00    +0.025 A 
BRANCH  22  25
ATOM     25  N   LIG    1        7.438  -7.972  -8.104  0.00  0.00    -0.271 N 
ATOM     26  C   LIG    1        8.122  -8.586  -7.039  0.00  0.00    +0.220 C 
ATOM     27  O   LIG    1        8.402  -8.059  -5.960  0.00  0.00    -0.275 OA
ATOM     28  C   LIG    1        8.494 -10.048  -7.194  0.00  0.00    +0.096 C 
ATOM     29  C   LIG    1        8.748 -10.476  -8.619  0.00  0.00    +0.011 C 
ATOM     30  C   LIG    1        7.532 -10.113  -9.438  0.00  0.00    +0.020 C 
ATOM     31  C   LIG    1        7.370  -8.604  -9.428  0.00  0.00    +0.114 C 
ENDBRANCH  22  25
ENDBRANCH   4  19
BRANCH   9  32
ATOM     32  C   LIG    1        4.831   2.880  -8.110  0.00  0.00    +0.262 C 
ATOM     33  O   LIG    1        5.123   2.912  -9.301  0.00  0.00    -0.269 OA
ATOM     34  N   LIG    1        4.471   4.008  -7.430  0.00  0.00    -0.324 N 
ATOM     35  H   LIG    1        4.479   4.897  -7.905  0.00  0.00    +0.145 HD
ATOM     36  H   LIG    1        4.281   3.941  -6.438  0.00  0.00    +0.145 HD
ENDBRANCH   9  32
TORSDOF 5
