REMARK  Name = *****
REMARK                            x       y       z     vdW  Elec       q    Type
REMARK                         _______ _______ _______ _____ _____    ______ ____
ROOT
ATOM      1  C   LIG    1        3.685  -3.078   1.132  0.00  0.00    +0.003 C 
ATOM      2  C   LIG    1        3.275  -4.272   1.623  0.00  0.00    -0.050 C 
ATOM      3  C   LIG    1        4.233  -5.436   1.628  0.00  0.00    +0.044 C 
ENDROOT
BRANCH   1   5
ATOM      4  C   LIG    1        3.407  -0.628   1.039  0.00  0.00    +0.003 C 
ATOM      5  C   LIG    1        2.891  -1.867   1.010  0.00  0.00    +0.001 C 
BRANCH   4   7
ATOM      6  C   LIG    1        2.998   1.503  -0.202  0.00  0.00    +0.044 C 
ATOM      7  C   LIG    1        2.602   0.587   0.925  0.00  0.00    -0.044 C 
ATOM      8  C   LIG    1        1.608   0.835   1.800  0.00  0.00    +0.094 C 
BRANCH   8   9
ATOM      9  C   LIG    1        0.715   2.022   1.743  0.00  0.00    +0.330 C 
ATOM     10  O   LIG    1        0.913   3.035   1.110  0.00  0.00    -0.246 OA
BRANCH   9  11
ATOM     11  O   LIG    1       -0.400   1.826   2.489  0.00  0.00    -0.477 OA
ATOM     12  H   LIG    1       -0.472   0.960   2.925  0.00  0.00    +0.295 HD
ENDBRANCH   9  11
ENDBRANCH   8   9
ENDBRANCH   4   7
ENDBRANCH   1   5
BRANCH   2  13
ATOM     13  C   LIG    1        1.922  -4.479   2.133  0.00  0.00    +0.003 C 
ATOM     14  C   LIG    1        1.406  -5.321   3.045  0.00  0.00    +0.004 C 
BRANCH  14  15
ATOM     15  C   LIG    1        2.012  -6.371   3.860  0.00  0.00    -0.043 C 
ATOM     16  C   LIG    1        1.329  -7.767   3.740  0.00  0.00    -0.010 C 
ATOM     17  C   LIG    1       -0.167  -7.688   4.144  0.00  0.00    +0.016 C 
ATOM     18  C   LIG    1        1.409  -8.302   2.294  0.00  0.00    +0.016 C 
ATOM     19  C   LIG    1        1.961  -8.824   4.690  0.00  0.00    +0.011 C 
ATOM     20  C   LIG    1        3.460  -8.644   4.835  0.00  0.00    +0.005 C 
ATOM     21  C   LIG    1        3.731  -7.281   5.453  0.00  0.00    +0.031 C 
ATOM     22  C   LIG    1        3.024  -6.150   4.737  0.00  0.00    -0.069 C 
ATOM     23  C   LIG    1        3.567  -4.801   5.143  0.00  0.00    +0.039 C 
ENDBRANCH  14  15
ENDBRANCH   2  13
TORSDOF 6
