REMARK  Name = *****
REMARK                            x       y       z     vdW  Elec       q    Type
REMARK                         _______ _______ _______ _____ _____    ______ ____
ROOT
ATOM      1  B   LIG    1        2.354   0.154   0.052  0.00  0.00    +0.000 B 
ATOM      2  C   LIG    1        3.572   1.349   0.051  0.00  0.00    +0.000 A 
ATOM      3  C   LIG    1        4.855   0.826   0.057  0.00  0.00    +0.000 A 
ATOM      4  C   LIG    1        5.981   1.667   0.058  0.00  0.00    +0.000 A 
ATOM      5  C   LIG    1        5.783   3.060   0.052  0.00  0.00    +0.000 A 
ATOM      6  C   LIG    1        4.475   3.585   0.046  0.00  0.00    +0.000 A 
ATOM      7  F   LIG    1        6.850   3.897   0.053  0.00  0.00    +0.000 F 
ATOM      8  C   LIG    1        4.840  -0.669   0.064  0.00  0.00    +0.000 C 
ATOM      9  C   LIG    1        3.370   2.719   0.045  0.00  0.00    +0.000 A 
ATOM     10  O   LIG    1        3.438  -1.101   0.060  0.00  0.00    +0.000 OA
ENDROOT
BRANCH   1  11
ATOM     11  O   LIG    1        1.818   0.120   0.049  0.00  0.00    +0.000 OA
ATOM     12  H   LIG    1        0.820  -0.673   0.049  0.00  0.00    +0.000 HD
ENDBRANCH   1  11
TORSDOF 1
