REMARK  Name = *****
REMARK                            x       y       z     vdW  Elec       q    Type
REMARK                         _______ _______ _______ _____ _____    ______ ____
ROOT
ATOM      1  C   LIG    1        2.920  -1.258  -0.745  0.00  0.00    +0.372 C 
ATOM      2  O   LIG    1        2.439  -1.453  -1.842  0.00  0.00    -0.242 OA
ENDROOT
BRANCH   1   4
ATOM      3  C   LIG    1        0.959   0.257  -0.044  0.00  0.00    +0.099 C 
ATOM      4  C   LIG    1        2.264  -0.380   0.316  0.00  0.00    +0.236 C 
ATOM      5  O   LIG    1        2.845  -0.256   1.391  0.00  0.00    -0.285 OA
ENDBRANCH   1   4
BRANCH   1   6
ATOM      6  O   LIG    1        4.080  -1.764  -0.283  0.00  0.00    -0.475 OA
ATOM      7  H   LIG    1        4.228  -1.442   0.638  0.00  0.00    +0.295 HD
ENDBRANCH   1   6
TORSDOF 2
