REMARK  Name = *****
REMARK                            x       y       z     vdW  Elec       q    Type
REMARK                         _______ _______ _______ _____ _____    ______ ____
ROOT
ATOM      1  C   LIG    1        2.870  -1.193   2.364  0.00  0.00    +0.159 A 
ATOM      2  C   LIG    1        4.000  -0.895   3.272  0.00  0.00    +0.179 A 
ATOM      3  F   LIG    1        3.809  -1.020   4.596  0.00  0.00    -0.200 F 
ATOM      4  C   LIG    1        5.138  -0.497   2.716  0.00  0.00    +0.135 A 
ATOM      5  N   LIG    1        5.236  -0.377   1.343  0.00  0.00    -0.269 N 
ATOM      6  C   LIG    1        4.175  -0.737   0.501  0.00  0.00    +0.352 A 
ATOM      7  O   LIG    1        4.313  -0.721  -0.718  0.00  0.00    -0.244 OA
ATOM      8  N   LIG    1        2.976  -1.109   1.071  0.00  0.00    -0.175 NA
ENDROOT
BRANCH   5   9
ATOM      9  C   LIG    1        6.479   0.041   0.708  0.00  0.00    +0.235 C 
ATOM     10  O   LIG    1        7.177   0.952   1.571  0.00  0.00    -0.340 OA
ATOM     11  C   LIG    1        8.504   1.141   1.059  0.00  0.00    +0.203 C 
ATOM     12  S   LIG    1        8.999  -0.337   0.123  0.00  0.00    -0.123 S 
ATOM     13  C   LIG    1        7.410  -1.136   0.413  0.00  0.00    +0.126 C 
BRANCH  11  14
ATOM     14  C   LIG    1        9.460   1.395   2.235  0.00  0.00    +0.198 C 
BRANCH  14  15
ATOM     15  O   LIG    1        9.530   0.274   3.124  0.00  0.00    -0.392 OA
ATOM     16  H   LIG    1        9.728  -0.502   2.569  0.00  0.00    +0.209 HD
ENDBRANCH  14  15
ENDBRANCH  11  14
ENDBRANCH   5   9
BRANCH   1  17
ATOM     17  N   LIG    1        1.651  -1.564   2.868  0.00  0.00    -0.341 N 
ATOM     18  H   LIG    1        1.426  -1.253   3.807  0.00  0.00    +0.144 HD
ATOM     19  H   LIG    1        0.892  -1.471   2.200  0.00  0.00    +0.144 HD
ENDBRANCH   1  17
TORSDOF 4
