REMARK  Name = *****
REMARK                            x       y       z     vdW  Elec       q    Type
REMARK                         _______ _______ _______ _____ _____    ______ ____
ROOT
ATOM      1  C   LIG    1        0.975  -0.081  -0.111  0.00  0.00    +0.134 C 
ATOM      2  N   LIG    1        2.404   0.021   0.216  0.00  0.00    -0.158 NA
ATOM      3  S   LIG    1        2.943   1.559   0.605  0.00  0.00    +0.064 S 
ATOM      4  O   LIG    1        2.362   1.925   1.879  0.00  0.00    -0.153 OA
ATOM      5  O   LIG    1        2.775   2.401  -0.559  0.00  0.00    -0.153 OA
ATOM      6  C   LIG    1        4.662   1.320   0.863  0.00  0.00    +0.128 A 
ATOM      7  C   LIG    1        5.158   0.027   1.015  0.00  0.00    +0.057 A 
ATOM      8  C   LIG    1        6.547  -0.111   1.153  0.00  0.00    +0.047 A 
ATOM      9  C   LIG    1        7.399   1.006   1.217  0.00  0.00    +0.069 A 
ATOM     10  C   LIG    1        6.861   2.288   1.109  0.00  0.00    +0.125 A 
ATOM     11 CL   LIG    1        9.084   0.694   1.421  0.00  0.00    -0.082 Cl
ATOM     12  N   LIG    1        4.376  -1.119   0.898  0.00  0.00    -0.325 N 
ATOM     13  H   LIG    1        4.773  -1.937   1.357  0.00  0.00    +0.148 HD
ATOM     14  C   LIG    1        5.486   2.449   0.917  0.00  0.00    +0.060 A 
ATOM     15  C   LIG    1        2.927  -1.047   1.068  0.00  0.00    +0.177 C 
ENDROOT
BRANCH  10  16
ATOM     16  S   LIG    1        7.902   3.704   1.226  0.00  0.00    +0.057 S 
ATOM     17  O   LIG    1        8.746   3.762   0.058  0.00  0.00    -0.153 OA
ATOM     18  O   LIG    1        8.396   3.802   2.580  0.00  0.00    -0.153 OA
BRANCH  16  19
ATOM     19  N   LIG    1        6.849   5.010   1.063  0.00  0.00    -0.203 NA
ATOM     20  H   LIG    1        7.097   5.543   0.227  0.00  0.00    +0.144 HD
ATOM     21  H   LIG    1        6.858   5.566   1.920  0.00  0.00    +0.144 HD
ENDBRANCH  16  19
ENDBRANCH  10  16
BRANCH  15  22
ATOM     22  C   LIG    1        2.520  -0.973   2.556  0.00  0.00    +0.148 C 
ATOM     23 CL   LIG    1        3.042  -2.450   3.431  0.00  0.00    -0.122 Cl
ENDBRANCH  15  22
TORSDOF 3
