REMARK  Name = *****
REMARK                            x       y       z     vdW  Elec       q    Type
REMARK                         _______ _______ _______ _____ _____    ______ ____
ROOT
ATOM      1  C   LIG    1        6.338   0.346  -2.403  0.00  0.00    +0.144 C 
ENDROOT
BRANCH   1   2
ATOM      2  C   LIG    1        5.066   1.245  -2.248  0.00  0.00    +0.072 C 
ATOM      3  N   LIG    1        3.960   0.740  -3.094  0.00  0.00    -0.312 NA
ATOM      4  H   LIG    1        4.217   0.824  -4.078  0.00  0.00    +0.122 HD
ATOM      5  C   LIG    1        2.720   1.474  -2.852  0.00  0.00    +0.081 C 
ATOM      6  C   LIG    1        2.875   2.951  -3.195  0.00  0.00    +0.015 C 
ATOM      7  C   LIG    1        4.043   3.567  -2.431  0.00  0.00    +0.003 C 
ATOM      8  C   LIG    1        5.318   2.731  -2.591  0.00  0.00    +0.020 C 
ENDBRANCH   1   2
BRANCH   1   9
ATOM      9  C   LIG    1        6.139  -1.144  -2.092  0.00  0.00    -0.032 A 
ATOM     10  C   LIG    1        5.298  -1.577  -1.053  0.00  0.00    +0.004 A 
ATOM     11  C   LIG    1        5.152  -2.934  -0.757  0.00  0.00    +0.000 A 
ATOM     12  C   LIG    1        5.855  -3.886  -1.485  0.00  0.00    +0.000 A 
ATOM     13  C   LIG    1        6.707  -3.479  -2.510  0.00  0.00    +0.000 A 
ATOM     14  C   LIG    1        6.853  -2.119  -2.811  0.00  0.00    +0.004 A 
ENDBRANCH   1   9
BRANCH   1  15
ATOM     15  C   LIG    1        7.477   0.902  -1.553  0.00  0.00    +0.316 C 
ATOM     16  O   LIG    1        8.518   1.356  -2.012  0.00  0.00    -0.250 OA
BRANCH  15  18
ATOM     17  C   LIG    1        8.246   1.216   0.646  0.00  0.00    +0.280 C 
ATOM     18  O   LIG    1        7.185   0.823  -0.222  0.00  0.00    -0.468 OA
ENDBRANCH  15  18
ENDBRANCH   1  15
TORSDOF 4
