REMARK  Name = *****
REMARK                            x       y       z     vdW  Elec       q    Type
REMARK                         _______ _______ _______ _____ _____    ______ ____
ROOT
ATOM      1  N   LIG    1        2.274  -2.469  -0.208  0.00  0.00    -0.248 N 
ATOM      2  C   LIG    1        1.209  -2.482  -1.200  0.00  0.00    +0.163 C 
ATOM      3  C   LIG    1       -0.208  -2.571  -0.615  0.00  0.00    +0.050 C 
ATOM      4  N   LIG    1        1.434  -3.607  -2.113  0.00  0.00    -0.325 N 
ATOM      5  H   LIG    1        0.757  -3.638  -2.870  0.00  0.00    +0.148 HD
ATOM      6  C   LIG    1        1.604  -4.841  -1.468  0.00  0.00    +0.042 A 
ATOM      7  C   LIG    1        2.185  -4.910  -0.198  0.00  0.00    +0.060 A 
ATOM      8  C   LIG    1        2.379  -6.142   0.438  0.00  0.00    +0.045 A 
ATOM      9  C   LIG    1        2.014  -7.328  -0.214  0.00  0.00    +0.124 A 
ATOM     10  C   LIG    1        1.481  -7.278  -1.505  0.00  0.00    +0.069 A 
ATOM     11 CL   LIG    1        1.027  -8.673  -2.418  0.00  0.00    -0.082 Cl
ATOM     12  C   LIG    1        1.298  -6.035  -2.131  0.00  0.00    +0.045 A 
ATOM     13  C   LIG    1        2.626  -3.648   0.447  0.00  0.00    +0.254 C 
ATOM     14  O   LIG    1        3.263  -3.716   1.494  0.00  0.00    -0.270 OA
ENDROOT
BRANCH   1  17
ATOM     15  C   LIG    1        5.219  -2.016  -0.287  0.00  0.00    +0.045 C 
ATOM     16  C   LIG    1        4.223  -0.986   0.177  0.00  0.00    -0.029 A 
ATOM     17  C   LIG    1        2.830  -1.218   0.201  0.00  0.00    +0.041 A 
ATOM     18  C   LIG    1        1.980  -0.175   0.601  0.00  0.00    +0.024 A 
ATOM     19  C   LIG    1        2.487   1.064   0.998  0.00  0.00    +0.002 A 
ATOM     20  C   LIG    1        3.856   1.289   0.982  0.00  0.00    +0.000 A 
ATOM     21  C   LIG    1        4.717   0.272   0.576  0.00  0.00    +0.005 A 
ENDBRANCH   1  17
BRANCH   9  22
ATOM     22  S   LIG    1        2.221  -8.854   0.644  0.00  0.00    +0.057 S 
ATOM     23  O   LIG    1        0.978  -9.584   0.624  0.00  0.00    -0.153 OA
ATOM     24  O   LIG    1        2.935  -8.607   1.878  0.00  0.00    -0.153 OA
BRANCH  22  25
ATOM     25  N   LIG    1        3.312  -9.694  -0.314  0.00  0.00    -0.203 NA
ATOM     26  H   LIG    1        2.866 -10.531  -0.695  0.00  0.00    +0.144 HD
ATOM     27  H   LIG    1        4.164  -9.885   0.216  0.00  0.00    +0.144 HD
ENDBRANCH  22  25
ENDBRANCH   9  22
TORSDOF 3
