REMARK  Name = *****
REMARK                            x       y       z     vdW  Elec       q    Type
REMARK                         _______ _______ _______ _____ _____    ______ ____
ROOT
ATOM      1  C   LIG    1       13.656   2.669  -6.454  0.00  0.00    +0.064 A 
ATOM      2  C   LIG    1       13.282   2.295  -5.126  0.00  0.00    +0.049 A 
ATOM      3  I   LIG    1       13.839   0.354  -4.382  0.00  0.00    -0.041 I 
ATOM      4  C   LIG    1       12.664   3.244  -4.233  0.00  0.00    +0.065 A 
ATOM      5  C   LIG    1       12.695   4.611  -4.574  0.00  0.00    +0.040 A 
ATOM      6  I   LIG    1       11.340   6.031  -3.713  0.00  0.00    -0.042 I 
ATOM      7  C   LIG    1       13.415   5.014  -5.712  0.00  0.00    +0.065 A 
ATOM      8  C   LIG    1       13.609   4.050  -6.728  0.00  0.00    +0.049 A 
ATOM      9  I   LIG    1       11.828   4.490  -8.234  0.00  0.00    -0.041 I 
ENDROOT
BRANCH   7  10
ATOM     10  C   LIG    1       14.122   6.312  -5.852  0.00  0.00    +0.246 C 
ATOM     11  N   LIG    1       15.344   6.270  -6.495  0.00  0.00    -0.309 N 
ATOM     12  H   LIG    1       15.753   5.381  -6.789  0.00  0.00    +0.149 HD
ATOM     13  O   LIG    1       13.679   7.366  -5.366  0.00  0.00    -0.270 OA
BRANCH  11  14
ATOM     14  C   LIG    1       16.119   7.473  -6.776  0.00  0.00    +0.132 C 
BRANCH  14  15
ATOM     15  C   LIG    1       17.109   7.848  -5.671  0.00  0.00    +0.174 C 
BRANCH  15  16
ATOM     16  O   LIG    1       18.073   6.815  -5.483  0.00  0.00    -0.394 OA
ATOM     17  H   LIG    1       17.597   6.058  -5.100  0.00  0.00    +0.209 HD
ENDBRANCH  15  16
ENDBRANCH  14  15
ENDBRANCH  11  14
ENDBRANCH   7  10
BRANCH   1  20
ATOM     18  C   LIG    1       16.633   0.917  -8.163  0.00  0.00    +0.110 C 
ATOM     19  C   LIG    1       15.815   1.867  -7.273  0.00  0.00    +0.217 C 
ATOM     20  N   LIG    1       14.423   1.829  -7.370  0.00  0.00    -0.267 N 
ATOM     21  O   LIG    1       16.407   2.607  -6.498  0.00  0.00    -0.276 OA
BRANCH  20  22
ATOM     22  C   LIG    1       13.700   1.075  -8.423  0.00  0.00    +0.147 C 
BRANCH  22  23
ATOM     23  C   LIG    1       13.171  -0.284  -7.955  0.00  0.00    +0.158 C 
BRANCH  23  24
ATOM     24  O   LIG    1       12.087  -0.124  -7.030  0.00  0.00    -0.388 OA
ATOM     25  H   LIG    1       11.375   0.387  -7.453  0.00  0.00    +0.210 HD
ENDBRANCH  23  24
BRANCH  23  26
ATOM     26  C   LIG    1       12.613  -1.137  -9.092  0.00  0.00    +0.188 C 
BRANCH  26  27
ATOM     27  O   LIG    1       12.151  -2.377  -8.552  0.00  0.00    -0.392 OA
ATOM     28  H   LIG    1       11.823  -2.180  -7.649  0.00  0.00    +0.209 HD
ENDBRANCH  26  27
ENDBRANCH  23  26
ENDBRANCH  22  23
ENDBRANCH  20  22
ENDBRANCH   1  20
BRANCH   4  29
ATOM     29  C   LIG    1       12.002   2.766  -2.951  0.00  0.00    +0.246 C 
ATOM     30  N   LIG    1       12.148   3.566  -1.809  0.00  0.00    -0.309 N 
ATOM     31  H   LIG    1       12.328   4.545  -1.957  0.00  0.00    +0.149 HD
ATOM     32  O   LIG    1       11.360   1.747  -2.942  0.00  0.00    -0.270 OA
BRANCH  30  33
ATOM     33  C   LIG    1       11.448   3.222  -0.558  0.00  0.00    +0.138 C 
BRANCH  33  34
ATOM     34  C   LIG    1       12.155   3.846   0.662  0.00  0.00    +0.157 C 
BRANCH  34  35
ATOM     35  O   LIG    1       13.527   3.432   0.710  0.00  0.00    -0.388 OA
ATOM     36  H   LIG    1       13.791   3.232  -0.207  0.00  0.00    +0.210 HD
ENDBRANCH  34  35
BRANCH  34  37
ATOM     37  C   LIG    1       11.496   3.469   1.994  0.00  0.00    +0.188 C 
BRANCH  37  38
ATOM     38  O   LIG    1       10.106   3.764   1.992  0.00  0.00    -0.392 OA
ATOM     39  H   LIG    1        9.756   3.472   2.852  0.00  0.00    +0.209 HD
ENDBRANCH  37  38
ENDBRANCH  34  37
ENDBRANCH  33  34
ENDBRANCH  30  33
ENDBRANCH   4  29
TORSDOF 16
