REMARK  Name = *****
REMARK                            x       y       z     vdW  Elec       q    Type
REMARK                         _______ _______ _______ _____ _____    ______ ____
ROOT
ATOM      1  C   LIG    1        3.882  -1.467   1.814  0.00  0.00    +0.027 C 
ATOM      2  C   LIG    1        4.606  -0.177   1.349  0.00  0.00    +0.086 C 
ENDROOT
BRANCH   2   3
ATOM      3  N   LIG    1        4.988  -0.249  -0.099  0.00  0.00    -0.297 NA
ATOM      4  C   LIG    1        3.907  -0.671  -1.004  0.00  0.00    +0.085 C 
ATOM      5  C   LIG    1        2.825   0.396  -1.167  0.00  0.00    +0.019 C 
ATOM      6  C   LIG    1        3.395   1.723  -1.700  0.00  0.00    -0.004 C 
ATOM      7  C   LIG    1        4.621   2.129  -0.862  0.00  0.00    +0.019 C 
ATOM      8  C   LIG    1        5.600   0.970  -0.653  0.00  0.00    +0.085 C 
BRANCH   6   9
ATOM      9  C   LIG    1        3.749   1.673  -3.208  0.00  0.00    +0.038 C 
BRANCH   9  10
ATOM     10  C   LIG    1        2.594   1.289  -4.106  0.00  0.00    -0.047 A 
ATOM     11  C   LIG    1        1.425   2.061  -4.145  0.00  0.00    +0.003 A 
ATOM     12  C   LIG    1        0.355   1.691  -4.960  0.00  0.00    +0.000 A 
ATOM     13  C   LIG    1        0.445   0.547  -5.753  0.00  0.00    +0.000 A 
ATOM     14  C   LIG    1        1.605  -0.222  -5.731  0.00  0.00    +0.000 A 
ATOM     15  C   LIG    1        2.676   0.146  -4.914  0.00  0.00    +0.003 A 
ENDBRANCH   9  10
ENDBRANCH   6   9
ENDBRANCH   2   3
BRANCH   2  16
ATOM     16  C   LIG    1        5.776   0.097   2.381  0.00  0.00    +0.161 C 
BRANCH  16  17
ATOM     17  C   LIG    1        6.871  -0.947   2.514  0.00  0.00    -0.017 A 
ATOM     18  C   LIG    1        7.372  -1.655   1.404  0.00  0.00    +0.010 A 
ATOM     19  C   LIG    1        8.397  -2.589   1.554  0.00  0.00    +0.046 A 
ATOM     20  C   LIG    1        8.944  -2.808   2.800  0.00  0.00    +0.117 A 
ATOM     21  C   LIG    1        8.493  -2.104   3.915  0.00  0.00    +0.046 A 
ATOM     22  C   LIG    1        7.460  -1.174   3.764  0.00  0.00    +0.010 A 
BRANCH  20  23
ATOM     23  O   LIG    1        9.951  -3.724   2.890  0.00  0.00    -0.507 OA
ATOM     24  H   LIG    1       10.234  -3.769   3.824  0.00  0.00    +0.292 HD
ENDBRANCH  20  23
ENDBRANCH  16  17
BRANCH  16  25
ATOM     25  O   LIG    1        6.394   1.370   2.166  0.00  0.00    -0.386 OA
ATOM     26  H   LIG    1        7.257   1.181   1.754  0.00  0.00    +0.210 HD
ENDBRANCH  16  25
ENDBRANCH   2  16
TORSDOF 7
