REMARK  Name = *****
REMARK                            x       y       z     vdW  Elec       q    Type
REMARK                         _______ _______ _______ _____ _____    ______ ____
ROOT
ATOM      1  C   LIG    1        9.202   2.159  -1.092  0.00  0.00    +0.133 C 
ATOM      2  C   LIG    1        8.374   2.835   0.026  0.00  0.00    +0.054 C 
ENDROOT
BRANCH   1   3
ATOM      3  C   LIG    1        9.878   3.242  -1.976  0.00  0.00    +0.077 A 
ATOM      4  N   LIG    1        9.537   4.556  -1.760  0.00  0.00    -0.257 NA
ATOM      5  C   LIG    1       10.075   5.510  -2.548  0.00  0.00    +0.111 A 
ATOM      6  C   LIG    1       10.964   5.250  -3.570  0.00  0.00    +0.020 A 
ATOM      7  C   LIG    1       11.310   3.921  -3.794  0.00  0.00    +0.003 A 
ATOM      8  C   LIG    1       10.761   2.911  -3.000  0.00  0.00    +0.026 A 
ENDBRANCH   1   3
BRANCH   1   9
ATOM      9  C   LIG    1       10.226   1.208  -0.394  0.00  0.00    -0.010 A 
ATOM     10  C   LIG    1       10.166  -0.191  -0.564  0.00  0.00    +0.007 A 
ATOM     11  C   LIG    1       11.060  -1.062   0.069  0.00  0.00    +0.000 A 
ATOM     12  C   LIG    1       12.031  -0.548   0.918  0.00  0.00    +0.000 A 
ATOM     13  C   LIG    1       12.100   0.823   1.132  0.00  0.00    +0.000 A 
ATOM     14  C   LIG    1       11.214   1.697   0.481  0.00  0.00    +0.007 A 
ENDBRANCH   1   9
BRANCH   1  15
ATOM     15  O   LIG    1        8.350   1.283  -1.870  0.00  0.00    -0.362 OA
BRANCH  15  16
ATOM     16  C   LIG    1        7.286   1.820  -2.644  0.00  0.00    +0.177 C 
BRANCH  16  17
ATOM     17  C   LIG    1        6.541   0.684  -3.409  0.00  0.00    +0.112 C 
BRANCH  17  19
ATOM     18  C   LIG    1        7.809   0.582  -5.508  0.00  0.00    +0.104 C 
ATOM     19  N   LIG    1        7.267  -0.165  -4.380  0.00  0.00    -0.306 NA
ATOM     20  C   LIG    1        8.319  -0.960  -3.754  0.00  0.00    +0.104 C 
ENDBRANCH  17  19
ENDBRANCH  16  17
ENDBRANCH  15  16
ENDBRANCH   1  15
TORSDOF 6
