REMARK  Name = *****
REMARK                            x       y       z     vdW  Elec       q    Type
REMARK                         _______ _______ _______ _____ _____    ______ ____
ROOT
ATOM      1  C   LIG    1        9.701   4.547  -0.624  0.00  0.00    +0.282 C 
ATOM      2  C   LIG    1        9.442   5.522   0.544  0.00  0.00    +0.201 C 
ATOM      3  C   LIG    1        8.824   6.839   0.050  0.00  0.00    +0.179 C 
ATOM      4  C   LIG    1        7.917   6.649  -1.176  0.00  0.00    +0.177 C 
ATOM      5  C   LIG    1        7.451   5.191  -1.293  0.00  0.00    +0.178 C 
ATOM      6  O   LIG    1        8.558   4.286  -1.440  0.00  0.00    -0.341 OA
ENDROOT
BRANCH   2   7
ATOM      7  O   LIG    1        8.537   4.920   1.492  0.00  0.00    -0.384 OA
ATOM      8  H   LIG    1        8.909   4.058   1.751  0.00  0.00    +0.210 HD
ENDBRANCH   2   7
BRANCH   3   9
ATOM      9  O   LIG    1        9.829   7.817  -0.258  0.00  0.00    -0.386 OA
ATOM     10  H   LIG    1       10.446   7.383  -0.881  0.00  0.00    +0.210 HD
ENDBRANCH   3   9
BRANCH   4  11
ATOM     11  O   LIG    1        8.620   7.049  -2.369  0.00  0.00    -0.387 OA
ATOM     12  H   LIG    1        8.879   7.979  -2.205  0.00  0.00    +0.210 HD
ENDBRANCH   4  11
BRANCH   1  13
ATOM     13  O   LIG    1       10.822   4.993  -1.401  0.00  0.00    -0.341 OA
BRANCH  13  14
ATOM     14  C   LIG    1       11.224   4.046  -2.417  0.00  0.00    +0.178 C 
BRANCH  14  15
ATOM     15  C   LIG    1       12.417   4.628  -3.235  0.00  0.00    +0.181 C 
BRANCH  15  16
ATOM     16  O   LIG    1       13.608   4.778  -2.430  0.00  0.00    -0.386 OA
ATOM     17  H   LIG    1       13.494   4.204  -1.640  0.00  0.00    +0.210 HD
ENDBRANCH  15  16
BRANCH  15  18
ATOM     18  C   LIG    1       12.151   5.998  -3.880  0.00  0.00    +0.208 C 
BRANCH  18  20
ATOM     19  O   LIG    1       10.209   5.035  -5.019  0.00  0.00    -0.298 OA
ATOM     20  C   LIG    1       10.969   5.997  -4.833  0.00  0.00    +0.257 C 
ENDBRANCH  18  20
BRANCH  18  21
ATOM     21  O   LIG    1       13.285   6.405  -4.681  0.00  0.00    -0.382 OA
ATOM     22  H   LIG    1       13.978   5.727  -4.561  0.00  0.00    +0.210 HD
ENDBRANCH  18  21
ENDBRANCH  15  18
ENDBRANCH  14  15
BRANCH  14  23
ATOM     23  C   LIG    1       11.619   2.663  -1.849  0.00  0.00    +0.190 C 
BRANCH  23  24
ATOM     24  O   LIG    1       12.703   2.792  -0.927  0.00  0.00    -0.392 OA
ATOM     25  H   LIG    1       12.957   1.887  -0.665  0.00  0.00    +0.209 HD
ENDBRANCH  23  24
ENDBRANCH  14  23
ENDBRANCH  13  14
ENDBRANCH   1  13
BRANCH   5  26
ATOM     26  C   LIG    1        6.492   4.990  -2.480  0.00  0.00    +0.190 C 
BRANCH  26  27
ATOM     27  O   LIG    1        7.092   5.242  -3.746  0.00  0.00    -0.392 OA
ATOM     28  H   LIG    1        7.887   5.795  -3.588  0.00  0.00    +0.209 HD
ENDBRANCH  26  27
ENDBRANCH   5  26
TORSDOF 14
