REMARK  Name = *****
REMARK                            x       y       z     vdW  Elec       q    Type
REMARK                         _______ _______ _______ _____ _____    ______ ____
ROOT
ATOM      1  C   LIG    1        2.564  -8.009   6.562  0.00  0.00    +0.042 C 
ATOM      2  C   LIG    1        3.164  -7.073   5.530  0.00  0.00    -0.034 C 
ATOM      3  C   LIG    1        4.595  -7.497   5.232  0.00  0.00    +0.103 C 
ATOM      4  S   LIG    1        5.666  -6.115   4.753  0.00  0.00    -0.131 S 
ATOM      5  C   LIG    1        4.528  -5.608   3.444  0.00  0.00    +0.169 C 
ATOM      6  N   LIG    1        3.261  -5.230   4.050  0.00  0.00    -0.249 N 
ATOM      7  C   LIG    1        3.324  -3.927   3.712  0.00  0.00    +0.244 C 
ATOM      8  O   LIG    1        2.611  -3.000   4.060  0.00  0.00    -0.273 OA
ATOM      9  CA  LIG    1        4.647  -4.146   2.927  0.00  0.00    +0.191 C 
ATOM     10  CA  LIG    1        2.566  -5.980   4.972  0.00  0.00    +0.122 C 
ENDROOT
BRANCH   9  11
ATOM     11  N   LIG    1        5.817  -3.338   3.355  0.00  0.00    -0.300 N 
ATOM     12  H   LIG    1        6.347  -3.570   4.196  0.00  0.00    +0.150 HD
ATOM     13  C   LIG    1        6.051  -2.071   2.837  0.00  0.00    +0.235 C 
ATOM     14  O   LIG    1        5.323  -1.583   1.980  0.00  0.00    -0.274 OA
BRANCH  13  15
ATOM     15  CA  LIG    1        7.366  -1.418   3.393  0.00  0.00    +0.164 C 
BRANCH  15  16
ATOM     16  C   LIG    1        7.685  -0.012   2.895  0.00  0.00    -0.044 C 
ATOM     17  C   LIG    1        7.802   0.126   1.380  0.00  0.00    +0.059 C 
ATOM     18  C   LIG    1        8.207   1.495   0.903  0.00  0.00    -0.026 C 
ATOM     19  C   LIG    1        8.446   2.525   1.727  0.00  0.00    -0.027 C 
ATOM     20  C   LIG    1        8.342   2.416   3.215  0.00  0.00    +0.054 C 
ATOM     21  C   LIG    1        7.939   1.049   3.697  0.00  0.00    -0.021 C 
ENDBRANCH  15  16
BRANCH  15  22
ATOM     22  N   LIG    1        7.314  -1.531   4.870  0.00  0.00    -0.317 NA
ATOM     23  H1  LIG    1        8.197  -1.183   5.243  0.00  0.00    +0.119 HD
ATOM     24  H2  LIG    1        6.596  -0.880   5.196  0.00  0.00    +0.119 HD
ENDBRANCH  15  22
ENDBRANCH  13  15
ENDBRANCH   9  11
BRANCH  10  25
ATOM     25  C   LIG    1        1.137  -5.608   5.328  0.00  0.00    +0.351 C 
ATOM     26  O   LIG    1        0.318  -6.410   5.751  0.00  0.00    -0.244 OA
BRANCH  25  27
ATOM     27  OXT LIG    1        0.754  -4.338   5.103  0.00  0.00    -0.476 OA
ATOM     28  HXT LIG    1        1.433  -3.695   4.796  0.00  0.00    +0.295 HD
ENDBRANCH  25  27
ENDBRANCH  10  25
TORSDOF 6
