REMARK  Name = *****
REMARK                            x       y       z     vdW  Elec       q    Type
REMARK                         _______ _______ _______ _____ _____    ______ ____
ROOT
ATOM      1  C   LIG    1        6.946  -1.248  -1.384  0.00  0.00    -0.014 A 
ATOM      2  C   LIG    1        8.147  -1.624  -0.754  0.00  0.00    +0.055 A 
ATOM      3  C   LIG    1        9.193  -0.710  -0.655  0.00  0.00    +0.159 A 
ATOM      4  C   LIG    1        9.075   0.583  -1.160  0.00  0.00    +0.158 A 
ATOM      5  C   LIG    1        7.896   0.982  -1.772  0.00  0.00    +0.049 A 
ATOM      6  C   LIG    1        6.838   0.071  -1.868  0.00  0.00    +0.010 A 
ENDROOT
BRANCH   3   7
ATOM      7  O   LIG    1       10.357  -1.093  -0.054  0.00  0.00    -0.503 OA
ATOM      8  H   LIG    1       10.927  -0.298  -0.093  0.00  0.00    +0.292 HD
ENDBRANCH   3   7
BRANCH   4   9
ATOM      9  O   LIG    1       10.139   1.430  -1.032  0.00  0.00    -0.503 OA
ATOM     10  H   LIG    1        9.897   2.283  -1.426  0.00  0.00    +0.292 HD
ENDBRANCH   4   9
BRANCH   1  11
ATOM     11  C   LIG    1        5.796  -2.237  -1.514  0.00  0.00    +0.158 C 
BRANCH  11  12
ATOM     12  O   LIG    1        4.921  -2.136  -0.385  0.00  0.00    -0.386 OA
ATOM     13  H   LIG    1        5.475  -2.006   0.402  0.00  0.00    +0.210 HD
ENDBRANCH  11  12
BRANCH  11  14
ATOM     14  C   LIG    1        4.951  -2.060  -2.810  0.00  0.00    +0.117 C 
BRANCH  14  15
ATOM     15  N   LIG    1        3.824  -2.997  -2.997  0.00  0.00    -0.311 NA
ATOM     16  H   LIG    1        3.188  -2.856  -2.206  0.00  0.00    +0.122 HD
BRANCH  15  18
ATOM     17  C   LIG    1        2.961  -5.270  -3.199  0.00  0.00    +0.024 C 
ATOM     18  C   LIG    1        4.216  -4.409  -3.039  0.00  0.00    +0.048 C 
ATOM     19  C   LIG    1        5.186  -4.709  -4.182  0.00  0.00    +0.024 C 
ENDBRANCH  15  18
ENDBRANCH  14  15
ENDBRANCH  11  14
ENDBRANCH   1  11
TORSDOF 7
