REMARK  Name = *****
REMARK                            x       y       z     vdW  Elec       q    Type
REMARK                         _______ _______ _______ _____ _____    ______ ____
ROOT
ATOM      1  N   LIG    1        7.652  -1.671  -0.737  0.00  0.00    -0.199 N 
ATOM      2  H   LIG    1        7.497  -0.733  -1.073  0.00  0.00    +0.175 HD
ENDROOT
BRANCH   1   3
ATOM      3  C   LIG    1        8.876  -2.246  -1.065  0.00  0.00    +0.141 A 
ATOM      4  N   LIG    1        9.244  -3.576  -1.272  0.00  0.00    -0.217 N 
ATOM      5  N   LIG    1       10.601  -3.682  -1.346  0.00  0.00    -0.173 NA
ATOM      6  C   LIG    1       11.051  -2.430  -1.324  0.00  0.00    +0.137 A 
ATOM      7  C   LIG    1       10.023  -1.492  -1.166  0.00  0.00    +0.066 A 
BRANCH   4   8
ATOM      8  C   LIG    1        8.433  -4.722  -1.502  0.00  0.00    +0.068 A 
ATOM      9  C   LIG    1        9.017  -5.999  -1.451  0.00  0.00    +0.028 A 
ATOM     10  C   LIG    1        8.239  -7.140  -1.663  0.00  0.00    +0.002 A 
ATOM     11  C   LIG    1        6.881  -7.016  -1.945  0.00  0.00    +0.000 A 
ATOM     12  C   LIG    1        6.303  -5.751  -2.036  0.00  0.00    +0.002 A 
ATOM     13  C   LIG    1        7.075  -4.605  -1.823  0.00  0.00    +0.028 A 
ENDBRANCH   4   8
ENDBRANCH   1   3
BRANCH   1  14
ATOM     14  S   LIG    1        7.049  -1.894   0.781  0.00  0.00    +0.073 S 
ATOM     15  O   LIG    1        6.765  -3.279   1.059  0.00  0.00    -0.150 OA
ATOM     16  O   LIG    1        7.835  -1.095   1.702  0.00  0.00    -0.150 OA
BRANCH  14  20
ATOM     17  C   LIG    1        3.030   0.252   0.270  0.00  0.00    +0.025 A 
ATOM     18  C   LIG    1        3.985   0.748   1.164  0.00  0.00    +0.024 A 
ATOM     19  C   LIG    1        5.197   0.081   1.363  0.00  0.00    +0.030 A 
ATOM     20  C   LIG    1        5.469  -1.074   0.626  0.00  0.00    +0.109 A 
ATOM     21  C   LIG    1        4.543  -1.564  -0.297  0.00  0.00    +0.030 A 
ATOM     22  C   LIG    1        3.339  -0.883  -0.486  0.00  0.00    +0.024 A 
BRANCH  17  23
ATOM     23  N   LIG    1        1.897   1.010  -0.037  0.00  0.00    -0.358 N 
ATOM     24  H   LIG    1        1.576   1.610   0.719  0.00  0.00    +0.142 HD
ATOM     25  H   LIG    1        1.131   0.479  -0.443  0.00  0.00    +0.142 HD
ENDBRANCH  17  23
ENDBRANCH  14  20
ENDBRANCH   1  14
TORSDOF 5
