REMARK  Name = *****
REMARK                            x       y       z     vdW  Elec       q    Type
REMARK                         _______ _______ _______ _____ _____    ______ ____
ROOT
ATOM      1  C   LIG    1        6.473   0.303  -2.712  0.00  0.00    +0.143 C 
ENDROOT
BRANCH   1   2
ATOM      2  O   LIG    1        6.804  -0.913  -3.409  0.00  0.00    -0.389 OA
ATOM      3  H   LIG    1        7.499  -1.347  -2.856  0.00  0.00    +0.210 HD
ENDBRANCH   1   2
BRANCH   1   4
ATOM      4  C   LIG    1        6.892   1.552  -3.584  0.00  0.00    +0.118 C 
BRANCH   4   5
ATOM      5  N   LIG    1        8.336   1.730  -4.021  0.00  0.00    -0.280 NA
BRANCH   5   6
ATOM      6  C   LIG    1        9.319   1.917  -2.902  0.00  0.00    +0.206 C 
BRANCH   6   7
ATOM      7  C   LIG    1        9.525   0.697  -2.006  0.00  0.00    +0.319 C 
ATOM      8  O   LIG    1       10.058   0.721  -0.922  0.00  0.00    -0.250 OA
BRANCH   7   9
ATOM      9  O   LIG    1        9.091  -0.444  -2.597  0.00  0.00    -0.480 OA
ATOM     10  H   LIG    1        8.735  -0.167  -3.482  0.00  0.00    +0.295 HD
ENDBRANCH   7   9
ENDBRANCH   6   7
ENDBRANCH   5   6
BRANCH   5  11
ATOM     11  C   LIG    1        8.370   2.998  -4.874  0.00  0.00    +0.206 C 
BRANCH  11  12
ATOM     12  C   LIG    1        9.714   3.353  -5.531  0.00  0.00    +0.319 C 
ATOM     13  O   LIG    1       10.097   2.901  -6.600  0.00  0.00    -0.250 OA
BRANCH  12  14
ATOM     14  O   LIG    1       10.457   4.260  -4.848  0.00  0.00    -0.480 OA
ATOM     15  H   LIG    1       10.062   4.649  -4.048  0.00  0.00    +0.295 HD
ENDBRANCH  12  14
ENDBRANCH  11  12
ENDBRANCH   5  11
ENDBRANCH   4   5
ENDBRANCH   1   4
BRANCH   1  16
ATOM     16  C   LIG    1        4.959   0.313  -2.374  0.00  0.00    +0.118 C 
BRANCH  16  17
ATOM     17  N   LIG    1        4.428  -0.708  -1.428  0.00  0.00    -0.280 NA
BRANCH  17  18
ATOM     18  C   LIG    1        4.729  -2.137  -1.791  0.00  0.00    +0.206 C 
BRANCH  18  19
ATOM     19  C   LIG    1        3.999  -2.676  -3.028  0.00  0.00    +0.319 C 
ATOM     20  O   LIG    1        2.893  -3.191  -2.992  0.00  0.00    -0.250 OA
BRANCH  19  21
ATOM     21  O   LIG    1        4.676  -2.498  -4.184  0.00  0.00    -0.480 OA
ATOM     22  H   LIG    1        5.544  -2.049  -4.062  0.00  0.00    +0.295 HD
ENDBRANCH  19  21
ENDBRANCH  18  19
ENDBRANCH  17  18
BRANCH  17  23
ATOM     23  C   LIG    1        2.934  -0.609  -1.258  0.00  0.00    +0.206 C 
BRANCH  23  25
ATOM     24  O   LIG    1        1.227   1.076  -1.015  0.00  0.00    -0.250 OA
ATOM     25  C   LIG    1        2.363   0.740  -0.805  0.00  0.00    +0.319 C 
BRANCH  25  26
ATOM     26  O   LIG    1        3.224   1.518  -0.106  0.00  0.00    -0.480 OA
ATOM     27  H   LIG    1        4.103   1.103  -0.029  0.00  0.00    +0.295 HD
ENDBRANCH  25  26
ENDBRANCH  23  25
ENDBRANCH  17  23
ENDBRANCH  16  17
ENDBRANCH   1  16
TORSDOF 17
