REMARK  Name = *****
REMARK                            x       y       z     vdW  Elec       q    Type
REMARK                         _______ _______ _______ _____ _____    ______ ____
ROOT
ATOM      1  O   LIG    1        2.749   0.069  -1.504  0.00  0.00    -0.474 OA
ENDROOT
BRANCH   1   2
ATOM      2  C   LIG    1        3.162  -1.213  -1.795  0.00  0.00    +0.158 A 
ATOM      3  C   LIG    1        4.084  -1.979  -1.058  0.00  0.00    +0.084 A 
ATOM      4 CL   LIG    1        5.019  -1.385   0.272  0.00  0.00    -0.080 Cl
ATOM      5  C   LIG    1        4.395  -3.292  -1.441  0.00  0.00    +0.024 A 
ATOM      6  C   LIG    1        3.871  -3.840  -2.605  0.00  0.00    +0.003 A 
ATOM      7  C   LIG    1        3.029  -3.070  -3.398  0.00  0.00    +0.024 A 
ATOM      8  C   LIG    1        2.670  -1.774  -2.994  0.00  0.00    +0.084 A 
ATOM      9 CL   LIG    1        1.607  -0.894  -4.040  0.00  0.00    -0.080 Cl
ENDBRANCH   1   2
BRANCH   1  11
ATOM     10  C   LIG    1        1.050   0.802   0.080  0.00  0.00    +0.065 C 
ATOM     11  C   LIG    1        2.506   0.393  -0.135  0.00  0.00    +0.284 C 
BRANCH  11  12
ATOM     12  C   LIG    1        3.413   1.544   0.326  0.00  0.00    +0.322 C 
ATOM     13  N   LIG    1        3.772   2.599  -0.499  0.00  0.00    -0.231 N 
ATOM     14  H   LIG    1        3.940   2.376  -1.469  0.00  0.00    +0.291 HD
ATOM     15  C   LIG    1        4.753   3.393   0.203  0.00  0.00    +0.273 C 
ATOM     16  C   LIG    1        4.601   2.877   1.639  0.00  0.00    +0.333 C 
ATOM     17  N   LIG    1        3.863   1.585   1.546  0.00  0.00    -0.080 NA
ENDBRANCH  11  12
ENDBRANCH   1  11
TORSDOF 3
