REMARK  Name = *****
REMARK                            x       y       z     vdW  Elec       q    Type
REMARK                         _______ _______ _______ _____ _____    ______ ____
ROOT
ATOM      1  C   LIG    1        4.472   0.125   1.092  0.00  0.00    +0.260 C 
ATOM      2  N   LIG    1        5.100  -0.309  -0.130  0.00  0.00    -0.235 N 
ATOM      3  C   LIG    1        6.163   0.517  -0.446  0.00  0.00    +0.317 C 
ATOM      4  O   LIG    1        6.975   0.300  -1.348  0.00  0.00    -0.252 OA
ATOM      5  N   LIG    1        6.148   1.593   0.385  0.00  0.00    -0.199 N 
ATOM      6  C   LIG    1        5.167   1.470   1.329  0.00  0.00    +0.264 C 
ATOM      7  O   LIG    1        4.881   2.274   2.208  0.00  0.00    -0.271 OA
ENDROOT
BRANCH   1  10
ATOM      8  O   LIG    1        1.179   1.381   0.191  0.00  0.00    -0.253 OA
ATOM      9  C   LIG    1        2.344   0.992   0.070  0.00  0.00    +0.307 C 
ATOM     10  N   LIG    1        3.030   0.297   1.063  0.00  0.00    -0.235 N 
ATOM     11  N   LIG    1        3.059   1.224  -1.069  0.00  0.00    -0.277 N 
ATOM     12  H   LIG    1        4.024   0.964  -1.077  0.00  0.00    +0.152 HD
BRANCH  10  13
ATOM     13  C   LIG    1        2.385  -0.006   2.320  0.00  0.00    +0.270 C 
BRANCH  13  14
ATOM     14  O   LIG    1        2.364  -1.417   2.460  0.00  0.00    -0.377 OA
ATOM     15  H   LIG    1        2.581  -1.766   1.575  0.00  0.00    +0.211 HD
ENDBRANCH  13  14
ENDBRANCH  10  13
BRANCH  11  16
ATOM     16  C   LIG    1        2.676   1.918  -2.255  0.00  0.00    +0.265 C 
BRANCH  16  17
ATOM     17  O   LIG    1        3.203   3.213  -2.105  0.00  0.00    -0.377 OA
ATOM     18  H   LIG    1        2.889   3.496  -1.230  0.00  0.00    +0.211 HD
ENDBRANCH  16  17
ENDBRANCH  11  16
ENDBRANCH   1  10
BRANCH   2  19
ATOM     19  C   LIG    1        4.978  -1.654  -0.616  0.00  0.00    +0.270 C 
BRANCH  19  20
ATOM     20  O   LIG    1        3.826  -2.244  -0.047  0.00  0.00    -0.377 OA
ATOM     21  H   LIG    1        3.880  -3.198  -0.228  0.00  0.00    +0.211 HD
ENDBRANCH  19  20
ENDBRANCH   2  19
BRANCH   5  22
ATOM     22  C   LIG    1        7.059   2.691   0.326  0.00  0.00    +0.276 C 
BRANCH  22  23
ATOM     23  O   LIG    1        8.189   2.344   1.104  0.00  0.00    -0.376 OA
ATOM     24  H   LIG    1        8.366   1.409   0.914  0.00  0.00    +0.211 HD
ENDBRANCH  22  23
ENDBRANCH   5  22
TORSDOF 9
