REMARK  Name = *****
REMARK                            x       y       z     vdW  Elec       q    Type
REMARK                         _______ _______ _______ _____ _____    ______ ____
ROOT
ATOM      1  C   LIG    1        6.852   2.354  -1.233  0.00  0.00    +0.068 C 
ATOM      2  C   LIG    1        8.192   2.667  -0.525  0.00  0.00    +0.044 C 
ATOM      3  C   LIG    1        8.097   3.779   0.564  0.00  0.00    +0.086 C 
ATOM      4  N   LIG    1        6.983   4.731   0.457  0.00  0.00    -0.300 NA
ATOM      5  C   LIG    1        6.611   4.962  -0.918  0.00  0.00    +0.086 C 
ATOM      6  C   LIG    1        6.108   3.692  -1.563  0.00  0.00    +0.044 C 
ENDROOT
BRANCH   1   8
ATOM      7  C   LIG    1        6.960   0.032  -2.631  0.00  0.00    +0.220 C 
ATOM      8  N   LIG    1        7.052   1.452  -2.574  0.00  0.00    -0.263 N 
ATOM      9  O   LIG    1        6.787  -0.615  -3.676  0.00  0.00    -0.275 OA
BRANCH   8  10
ATOM     10  C   LIG    1        7.133   2.176  -3.931  0.00  0.00    +0.037 A 
ATOM     11  C   LIG    1        7.419   3.544  -4.103  0.00  0.00    +0.023 A 
ATOM     12  C   LIG    1        6.971   4.285  -5.219  0.00  0.00    +0.002 A 
ATOM     13  C   LIG    1        6.598   3.627  -6.371  0.00  0.00    +0.000 A 
ATOM     14  C   LIG    1        6.649   2.248  -6.361  0.00  0.00    +0.002 A 
ATOM     15  C   LIG    1        6.868   1.549  -5.159  0.00  0.00    +0.023 A 
ENDBRANCH   8  10
BRANCH   7  17
ATOM     16  C   LIG    1        8.539  -1.259  -1.119  0.00  0.00    +0.013 C 
ATOM     17  C   LIG    1        7.111  -0.919  -1.470  0.00  0.00    +0.093 C 
ENDBRANCH   7  17
ENDBRANCH   1   8
BRANCH   4  18
ATOM     18  C   LIG    1        7.196   6.028   1.132  0.00  0.00    +0.108 C 
BRANCH  18  19
ATOM     19  C   LIG    1        8.251   7.020   0.564  0.00  0.00    +0.166 C 
BRANCH  19  20
ATOM     20  N   LIG    1        9.639   6.620   0.621  0.00  0.00    -0.192 N 
ATOM     21  C   LIG    1       10.338   5.923  -0.323  0.00  0.00    +0.364 C 
ATOM     22  O   LIG    1        9.903   5.305  -1.341  0.00  0.00    -0.243 OA
ATOM     23  N   LIG    1       11.638   6.041   0.039  0.00  0.00    -0.194 N 
ATOM     24  N   LIG    1       11.725   6.947   1.059  0.00  0.00    -0.043 NA
ATOM     25  N   LIG    1       10.551   7.284   1.412  0.00  0.00    -0.043 NA
BRANCH  23  26
ATOM     26  C   LIG    1       12.756   5.585  -0.740  0.00  0.00    +0.147 C 
ATOM     27  C   LIG    1       12.914   6.399  -2.011  0.00  0.00    +0.029 C 
ENDBRANCH  23  26
ENDBRANCH  19  20
ENDBRANCH  18  19
ENDBRANCH   4  18
BRANCH   1  28
ATOM     28  C   LIG    1        5.851   1.724  -0.171  0.00  0.00    +0.185 C 
BRANCH  28  29
ATOM     29  O   LIG    1        6.414   0.760   0.720  0.00  0.00    -0.381 OA
ATOM     30  C   LIG    1        5.415   0.047   1.458  0.00  0.00    +0.193 C 
ENDBRANCH  28  29
ENDBRANCH   1  28
TORSDOF 9
