REMARK  Name = *****
REMARK                            x       y       z     vdW  Elec       q    Type
REMARK                         _______ _______ _______ _____ _____    ______ ____
ROOT
ATOM      1  C   LIG    1       -1.868  -0.316  -9.609  0.00  0.00    +0.341 C 
ATOM      2  O   LIG    1       -1.026  -0.209 -10.494  0.00  0.00    -0.247 OA
ENDROOT
BRANCH   1   3
ATOM      3  O   LIG    1       -2.225  -1.494  -9.009  0.00  0.00    -0.459 OA
BRANCH   3   8
ATOM      4  C   LIG    1        0.184  -5.515  -7.992  0.00  0.00    +0.105 C 
ATOM      5  N   LIG    1       -1.087  -5.288  -8.656  0.00  0.00    -0.299 NA
ATOM      6  C   LIG    1       -1.038  -4.526  -9.907  0.00  0.00    +0.060 C 
ATOM      7  C   LIG    1       -0.459  -3.116  -9.716  0.00  0.00    +0.063 C 
ATOM      8  C   LIG    1       -1.118  -2.316  -8.579  0.00  0.00    +0.179 C 
ATOM      9  C   LIG    1       -1.643  -3.195  -7.427  0.00  0.00    +0.063 C 
ATOM     10  C   LIG    1       -2.528  -4.473 -10.257  0.00  0.00    +0.020 C 
ATOM     11  C   LIG    1       -3.241  -4.526  -8.902  0.00  0.00    +0.020 C 
ATOM     12  C   LIG    1       -2.108  -4.593  -7.871  0.00  0.00    +0.060 C 
ENDBRANCH   3   8
ENDBRANCH   1   3
BRANCH   1  13
ATOM     13  C   LIG    1       -2.578   0.864  -8.925  0.00  0.00    +0.253 C 
BRANCH  13  14
ATOM     14  C   LIG    1       -3.903   1.207  -9.567  0.00  0.00    -0.008 A 
ATOM     15  C   LIG    1       -5.111   0.679  -9.085  0.00  0.00    +0.007 A 
ATOM     16  C   LIG    1       -6.320   0.979  -9.713  0.00  0.00    +0.000 A 
ATOM     17  C   LIG    1       -6.338   1.808 -10.832  0.00  0.00    +0.000 A 
ATOM     18  C   LIG    1       -5.149   2.345 -11.318  0.00  0.00    +0.000 A 
ATOM     19  C   LIG    1       -3.938   2.048 -10.691  0.00  0.00    +0.007 A 
ENDBRANCH  13  14
BRANCH  13  20
ATOM     20  O   LIG    1       -2.736   0.640  -7.519  0.00  0.00    -0.376 OA
ATOM     21  H   LIG    1       -2.923  -0.311  -7.422  0.00  0.00    +0.211 HD
ENDBRANCH  13  20
ENDBRANCH   1  13
TORSDOF 5
