REMARK  Name = *****
REMARK                            x       y       z     vdW  Elec       q    Type
REMARK                         _______ _______ _______ _____ _____    ______ ____
ROOT
ATOM      1  C   LIG    1        5.313   5.211  -2.842  0.00  0.00    +0.178 C 
ENDROOT
BRANCH   1   2
ATOM      2  C   LIG    1        6.854   5.152  -2.726  0.00  0.00    -0.014 A 
ATOM      3  C   LIG    1        7.554   5.124  -1.495  0.00  0.00    +0.007 A 
ATOM      4  C   LIG    1        8.917   5.401  -1.400  0.00  0.00    +0.015 A 
ATOM      5  C   LIG    1        9.645   5.650  -2.545  0.00  0.00    +0.018 A 
ATOM      6 BR   LIG    1       11.460   6.152  -2.406  0.00  0.00    -0.050 Br
ATOM      7  C   LIG    1        9.028   5.558  -3.796  0.00  0.00    +0.015 A 
ATOM      8  C   LIG    1        7.645   5.311  -3.874  0.00  0.00    +0.007 A 
ENDBRANCH   1   2
BRANCH   1   9
ATOM      9  C   LIG    1        4.404   4.497  -1.834  0.00  0.00    -0.015 A 
ATOM     10  C   LIG    1        3.236   3.847  -2.259  0.00  0.00    +0.006 A 
ATOM     11  C   LIG    1        2.464   3.080  -1.375  0.00  0.00    +0.000 A 
ATOM     12  C   LIG    1        2.856   2.943  -0.043  0.00  0.00    +0.000 A 
ATOM     13  C   LIG    1        3.929   3.669   0.425  0.00  0.00    +0.000 A 
ATOM     14  C   LIG    1        4.635   4.498  -0.445  0.00  0.00    +0.006 A 
ENDBRANCH   1   9
BRANCH   1  15
ATOM     15  O   LIG    1        4.857   6.568  -3.100  0.00  0.00    -0.366 OA
BRANCH  15  16
ATOM     16  C   LIG    1        5.160   7.470  -2.040  0.00  0.00    +0.176 C 
BRANCH  16  17
ATOM     17  C   LIG    1        4.735   8.914  -2.347  0.00  0.00    +0.112 C 
BRANCH  17  19
ATOM     18  C   LIG    1        4.466  11.169  -1.509  0.00  0.00    +0.104 C 
ATOM     19  N   LIG    1        4.942   9.822  -1.195  0.00  0.00    -0.306 NA
ATOM     20  C   LIG    1        6.340   9.891  -0.763  0.00  0.00    +0.104 C 
ENDBRANCH  17  19
ENDBRANCH  16  17
ENDBRANCH  15  16
ENDBRANCH   1  15
TORSDOF 6
