REMARK  Name = *****
REMARK                            x       y       z     vdW  Elec       q    Type
REMARK                         _______ _______ _______ _____ _____    ______ ____
ROOT
ATOM      1 SI   LIG    1        5.178   0.047  -1.049  0.00  0.00    +0.000 Si
ENDROOT
BRANCH   1   2
ATOM      2  O   LIG    1        5.092  -1.253  -0.040  0.00  0.00    +0.000 OA
ATOM      3  H   LIG    1        5.908  -1.781   0.001  0.00  0.00    +0.000 HD
ENDBRANCH   1   2
BRANCH   1   4
ATOM      4  O   LIG    1        6.131   1.185  -0.332  0.00  0.00    +0.000 OA
ATOM      5  H   LIG    1        5.642   1.802   0.242  0.00  0.00    +0.000 HD
ENDBRANCH   1   4
BRANCH   1   6
ATOM      6  O   LIG    1        3.675   0.662  -1.274  0.00  0.00    +0.000 OA
BRANCH   6   8
ATOM      7  O   LIG    1        2.962   2.300   0.505  0.00  0.00    +0.000 OA
ATOM      8 SI   LIG    1        2.452   1.178  -0.306  0.00  0.00    +0.000 Si
BRANCH   8   9
ATOM      9  O   LIG    1        1.250   1.836  -1.235  0.00  0.00    +0.000 OA
ATOM     10  H   LIG    1        1.283   2.803  -1.184  0.00  0.00    +0.000 HD
ENDBRANCH   8   9
ENDBRANCH   6   8
ENDBRANCH   1   6
BRANCH   1  11
ATOM     11  O   LIG    1        5.830  -0.394  -2.483  0.00  0.00    +0.000 OA
BRANCH  11  12
ATOM     12 SI   LIG    1        7.270  -0.965  -3.022  0.00  0.00    +0.000 Si
ATOM     13  O   LIG    1        7.505  -2.292  -2.413  0.00  0.00    +0.000 OA
BRANCH  12  14
ATOM     14  O   LIG    1        7.182  -1.248  -4.650  0.00  0.00    +0.000 OA
ATOM     15  H   LIG    1        7.079  -2.197  -4.819  0.00  0.00    +0.000 HD
ENDBRANCH  12  14
ENDBRANCH  11  12
ENDBRANCH   1  11
TORSDOF 8
