REMARK  Name = *****
REMARK                            x       y       z     vdW  Elec       q    Type
REMARK                         _______ _______ _______ _____ _____    ______ ____
ROOT
ATOM      1  C   LIG    1        9.861  -3.113  -4.263  0.00  0.00    +0.170 A 
ATOM      2  C   LIG    1       10.474  -2.799  -5.566  0.00  0.00    +0.180 A 
ATOM      3  F   LIG    1       10.824  -1.567  -5.943  0.00  0.00    -0.200 F 
ATOM      4  C   LIG    1       10.690  -3.830  -6.365  0.00  0.00    +0.135 A 
ATOM      5  N   LIG    1       10.353  -5.110  -5.986  0.00  0.00    -0.267 N 
ATOM      6  C   LIG    1        9.619  -5.339  -4.816  0.00  0.00    +0.352 A 
ATOM      7  O   LIG    1        9.114  -6.425  -4.556  0.00  0.00    -0.244 OA
ATOM      8  N   LIG    1        9.468  -4.293  -3.924  0.00  0.00    -0.175 NA
ENDROOT
BRANCH   5   9
ATOM      9  C   LIG    1       10.679  -6.177  -6.923  0.00  0.00    +0.255 C 
ATOM     10  C   LIG    1       11.049  -7.552  -6.350  0.00  0.00    +0.195 C 
ATOM     11  C   LIG    1       10.623  -8.457  -7.492  0.00  0.00    +0.176 C 
ATOM     12  C   LIG    1        9.400  -7.739  -8.070  0.00  0.00    +0.149 C 
ATOM     13  C   LIG    1        8.086  -8.111  -7.403  0.00  0.00    +0.040 C 
ATOM     14  O   LIG    1        9.600  -6.330  -7.856  0.00  0.00    -0.348 OA
BRANCH  10  15
ATOM     15  O   LIG    1       12.445  -7.669  -6.061  0.00  0.00    -0.385 OA
ATOM     16  H   LIG    1       12.865  -7.907  -6.914  0.00  0.00    +0.210 HD
ENDBRANCH  10  15
BRANCH  11  17
ATOM     17  O   LIG    1       11.702  -8.482  -8.447  0.00  0.00    -0.387 OA
ATOM     18  H   LIG    1       11.399  -9.006  -9.211  0.00  0.00    +0.210 HD
ENDBRANCH  11  17
ENDBRANCH   5   9
BRANCH   1  20
ATOM     19  C   LIG    1        9.985  -0.818  -3.317  0.00  0.00    +0.406 C 
ATOM     20  N   LIG    1        9.666  -2.146  -3.315  0.00  0.00    -0.233 N 
ATOM     21  H   LIG    1        9.267  -2.482  -2.448  0.00  0.00    +0.160 HD
ATOM     22  O   LIG    1       10.365  -0.146  -4.270  0.00  0.00    -0.226 OA
BRANCH  19  23
ATOM     23  O   LIG    1        9.795  -0.294  -2.084  0.00  0.00    -0.450 OA
BRANCH  23  24
ATOM     24  C   LIG    1       10.165   1.091  -1.977  0.00  0.00    +0.234 C 
BRANCH  24  25
ATOM     25  C   LIG    1       11.685   1.286  -2.060  0.00  0.00    +0.041 C 
BRANCH  25  26
ATOM     26  C   LIG    1       12.447   0.512  -0.981  0.00  0.00    +0.003 C 
BRANCH  26  28
ATOM     27  C   LIG    1       12.337   2.396   0.718  0.00  0.00    +0.004 C 
ATOM     28  C   LIG    1       12.066   0.924   0.443  0.00  0.00    -0.003 C 
ENDBRANCH  26  28
ENDBRANCH  25  26
ENDBRANCH  24  25
ENDBRANCH  23  24
ENDBRANCH  19  23
ENDBRANCH   1  20
TORSDOF 9
