REMARK  Name = *****
REMARK                            x       y       z     vdW  Elec       q    Type
REMARK                         _______ _______ _______ _____ _____    ______ ____
ROOT
ATOM      1  C   LIG    1       -3.014  -2.537   0.086  0.00  0.00    +0.132 C 
ATOM      2  C   LIG    1       -3.177  -2.463  -1.487  0.00  0.00    +0.011 C 
ATOM      3  C   LIG    1       -1.767  -2.190  -2.104  0.00  0.00    +0.015 C 
ATOM      4  C   LIG    1       -4.034  -1.181  -1.697  0.00  0.00    +0.002 C 
ATOM      5  C   LIG    1       -5.261  -1.197  -2.627  0.00  0.00    -0.003 C 
ATOM      6  C   LIG    1       -5.265  -2.330  -3.712  0.00  0.00    -0.000 C 
ATOM      7  C   LIG    1       -5.035  -3.636  -2.927  0.00  0.00    +0.005 C 
ATOM      8  C   LIG    1       -4.376  -1.999  -4.978  0.00  0.00    +0.019 C 
ATOM      9  C   LIG    1       -4.633  -0.540  -5.316  0.00  0.00    -0.063 C 
ATOM     10  C   LIG    1       -5.381  -0.137  -6.356  0.00  0.00    +0.045 C 
ATOM     11  C   LIG    1       -4.495  -0.575  -7.462  0.00  0.00    +0.156 C 
ATOM     12  O   LIG    1       -3.873   0.245  -8.126  0.00  0.00    -0.293 OA
ATOM     13  C   LIG    1       -4.438  -2.070  -7.649  0.00  0.00    +0.079 C 
ATOM     14  C   LIG    1       -4.319   0.458  -4.267  0.00  0.00    +0.031 C 
ATOM     15  C   LIG    1       -4.549  -2.851  -6.291  0.00  0.00    +0.016 C 
ATOM     16  C   LIG    1       -5.394   0.223  -3.217  0.00  0.00    +0.008 C 
ATOM     17  C   LIG    1       -4.399  -0.632  -0.306  0.00  0.00    +0.008 C 
ATOM     18  C   LIG    1       -3.693  -3.744  -2.203  0.00  0.00    +0.011 C 
ATOM     19  C   LIG    1       -3.232  -1.081   0.544  0.00  0.00    +0.049 C 
ENDROOT
BRANCH   1  21
ATOM     20  C   LIG    1       -4.711  -4.232   1.285  0.00  0.00    +0.007 C 
ATOM     21  C   LIG    1       -3.977  -3.430   0.742  0.00  0.00    -0.070 C 
ENDBRANCH   1  21
BRANCH   1  22
ATOM     22  O   LIG    1       -1.714  -2.982   0.459  0.00  0.00    -0.376 OA
ATOM     23  H   LIG    1       -1.286  -2.280   0.975  0.00  0.00    +0.211 HD
ENDBRANCH   1  22
TORSDOF 2
