REMARK  Name = *****
REMARK                            x       y       z     vdW  Elec       q    Type
REMARK                         _______ _______ _______ _____ _____    ______ ____
ROOT
ATOM      1  C   LIG    1        5.524  -4.575  -3.041  0.00  0.00    +0.180 C 
ATOM      2  C   LIG    1        4.831  -5.830  -3.724  0.00  0.00    +0.021 C 
ATOM      3  C   LIG    1        4.055  -6.483  -2.527  0.00  0.00    +0.006 C 
ATOM      4  C   LIG    1        4.772  -7.650  -1.784  0.00  0.00    +0.037 C 
ATOM      5  C   LIG    1        5.413  -8.663  -2.758  0.00  0.00    +0.153 C 
ATOM      6  C   LIG    1        6.456  -7.880  -3.591  0.00  0.00    +0.154 C 
ATOM      7  F   LIG    1        4.390  -9.034  -3.608  0.00  0.00    -0.238 F 
ATOM      8  C   LIG    1        5.974 -10.000  -2.102  0.00  0.00    +0.047 C 
ATOM      9  C   LIG    1        5.136 -10.488  -0.893  0.00  0.00    -0.020 C 
ATOM     10  C   LIG    1        5.579 -11.572  -0.208  0.00  0.00    +0.054 C 
ATOM     11  C   LIG    1        6.945 -11.286   0.375  0.00  0.00    +0.179 C 
ATOM     12  C   LIG    1        7.858 -10.449  -0.455  0.00  0.00    +0.047 C 
ATOM     13  O   LIG    1        7.321 -11.809   1.414  0.00  0.00    -0.288 OA
ATOM     14  C   LIG    1        4.472  -9.427  -0.048  0.00  0.00    +0.194 C 
ATOM     15  F   LIG    1        5.404  -8.800   0.728  0.00  0.00    -0.241 F 
ATOM     16  C   LIG    1        5.944 -11.116  -3.190  0.00  0.00    +0.023 C 
ATOM     17  C   LIG    1        7.425  -9.893  -1.601  0.00  0.00    -0.009 C 
ATOM     18  C   LIG    1        3.772  -8.361  -0.863  0.00  0.00    +0.048 C 
ATOM     19  C   LIG    1        3.713  -5.301  -1.583  0.00  0.00    +0.009 C 
ATOM     20  C   LIG    1        3.762  -5.445  -4.788  0.00  0.00    +0.016 C 
ATOM     21  C   LIG    1        5.788  -6.812  -4.432  0.00  0.00    +0.045 C 
ATOM     22  C   LIG    1        4.348  -4.050  -2.191  0.00  0.00    +0.057 C 
ENDROOT
BRANCH   6  23
ATOM     23  O   LIG    1        7.205  -8.708  -4.484  0.00  0.00    -0.389 OA
ATOM     24  H   LIG    1        7.838  -8.152  -4.971  0.00  0.00    +0.210 HD
ENDBRANCH   6  23
BRANCH   1  25
ATOM     25  C   LIG    1        6.057  -3.473  -4.013  0.00  0.00    +0.214 C 
ATOM     26  O   LIG    1        5.536  -2.357  -4.082  0.00  0.00    -0.289 OA
BRANCH  25  27
ATOM     27  C   LIG    1        7.252  -3.837  -4.894  0.00  0.00    +0.310 C 
BRANCH  27  28
ATOM     28  O   LIG    1        7.755  -2.763  -5.686  0.00  0.00    -0.457 OA
BRANCH  28  29
ATOM     29  C   LIG    1        9.079  -2.494  -5.524  0.00  0.00    +0.304 C 
ATOM     30  O   LIG    1        9.827  -3.083  -4.764  0.00  0.00    -0.251 OA
ATOM     31  C   LIG    1        9.505  -1.360  -6.401  0.00  0.00    +0.136 C 
ENDBRANCH  28  29
ENDBRANCH  27  28
ENDBRANCH  25  27
ENDBRANCH   1  25
BRANCH   1  32
ATOM     32  O   LIG    1        6.574  -5.139  -2.204  0.00  0.00    -0.450 OA
BRANCH  32  33
ATOM     33  C   LIG    1        7.254  -4.351  -1.303  0.00  0.00    +0.308 C 
ATOM     34  O   LIG    1        7.146  -3.151  -1.188  0.00  0.00    -0.251 OA
BRANCH  33  35
ATOM     35  C   LIG    1        8.150  -5.242  -0.448  0.00  0.00    +0.120 C 
BRANCH  35  37
ATOM     36  C   LIG    1        8.250  -6.688   1.609  0.00  0.00    +0.004 C 
ATOM     37  C   LIG    1        7.380  -5.792   0.745  0.00  0.00    +0.008 C 
ENDBRANCH  35  37
ENDBRANCH  33  35
ENDBRANCH  32  33
ENDBRANCH   1  32
TORSDOF 9
