REMARK  Name = *****
REMARK                            x       y       z     vdW  Elec       q    Type
REMARK                         _______ _______ _______ _____ _____    ______ ____
ROOT
ATOM      1  C   LIG    1        6.625   7.588   1.179  0.00  0.00    +0.121 A 
ATOM      2  C   LIG    1        6.330   8.590   0.256  0.00  0.00    +0.046 A 
ATOM      3  C   LIG    1        5.894   9.843   0.704  0.00  0.00    +0.007 A 
ATOM      4  C   LIG    1        5.729  10.093   2.075  0.00  0.00    -0.038 A 
ATOM      5  C   LIG    1        5.988   9.064   2.976  0.00  0.00    +0.007 A 
ATOM      6  C   LIG    1        6.532   7.871   2.529  0.00  0.00    +0.046 A 
ENDROOT
BRANCH   1   7
ATOM      7  O   LIG    1        7.030   6.376   0.710  0.00  0.00    -0.489 OA
BRANCH   7   8
ATOM      8  C   LIG    1        6.497   5.181   1.308  0.00  0.00    +0.261 C 
BRANCH   8   9
ATOM      9  C   LIG    1        5.011   5.163   1.771  0.00  0.00    +0.166 C 
BRANCH   9  10
ATOM     10  O   LIG    1        4.854   5.861   3.008  0.00  0.00    -0.387 OA
ATOM     11  H   LIG    1        5.669   5.683   3.507  0.00  0.00    +0.210 HD
ENDBRANCH   9  10
BRANCH   9  12
ATOM     12  C   LIG    1        3.970   5.658   0.743  0.00  0.00    +0.115 C 
BRANCH  12  13
ATOM     13  N   LIG    1        3.670   4.685  -0.325  0.00  0.00    -0.311 NA
ATOM     14  H   LIG    1        3.359   3.819   0.117  0.00  0.00    +0.122 HD
BRANCH  13  16
ATOM     15  C   LIG    1        4.423   3.364  -2.285  0.00  0.00    +0.024 C 
ATOM     16  C   LIG    1        4.786   4.401  -1.236  0.00  0.00    +0.048 C 
ATOM     17  C   LIG    1        5.406   5.643  -1.878  0.00  0.00    +0.024 C 
ENDBRANCH  13  16
ENDBRANCH  12  13
ENDBRANCH   9  12
ENDBRANCH   8   9
ENDBRANCH   7   8
ENDBRANCH   1   7
BRANCH   4  18
ATOM     18  C   LIG    1        5.304  11.424   2.642  0.00  0.00    +0.130 C 
BRANCH  18  19
ATOM     19  C   LIG    1        5.810  12.604   1.863  0.00  0.00    +0.215 C 
ATOM     20  O   LIG    1        5.136  13.147   0.946  0.00  0.00    -0.276 OA
ATOM     21  N   LIG    1        7.044  13.070   2.155  0.00  0.00    -0.329 N 
ATOM     22  H   LIG    1        7.409  13.838   1.607  0.00  0.00    +0.145 HD
ATOM     23  H   LIG    1        7.618  12.687   2.897  0.00  0.00    +0.145 HD
ENDBRANCH  18  19
ENDBRANCH   4  18
TORSDOF 9
