REMARK  Name = *****
REMARK                            x       y       z     vdW  Elec       q    Type
REMARK                         _______ _______ _______ _____ _____    ______ ____
ROOT
ATOM      1  C   LIG    1        3.028   1.960   3.902  0.00  0.00    -0.025 A 
ATOM      2  C   LIG    1        4.135   2.493   4.569  0.00  0.00    +0.008 A 
ATOM      3  C   LIG    1        4.002   3.007   5.861  0.00  0.00    +0.008 A 
ATOM      4  C   LIG    1        2.755   3.002   6.491  0.00  0.00    -0.025 A 
ATOM      5  C   LIG    1        1.639   2.498   5.822  0.00  0.00    +0.008 A 
ATOM      6  C   LIG    1        1.775   1.982   4.529  0.00  0.00    +0.008 A 
ENDROOT
BRANCH   1  14
ATOM      7  C   LIG    1        1.078  -1.260   1.377  0.00  0.00    +0.012 C 
ATOM      8  C   LIG    1        2.507  -1.607   0.897  0.00  0.00    -0.014 C 
ATOM      9  C   LIG    1        2.364  -2.346  -0.446  0.00  0.00    +0.012 C 
ATOM     10  C   LIG    1        3.445  -2.259   1.971  0.00  0.00    +0.061 C 
ATOM     11  C   LIG    1        3.587  -1.076   2.956  0.00  0.00    +0.168 C 
ATOM     12  O   LIG    1        3.921  -1.144   4.125  0.00  0.00    -0.292 OA
ATOM     13  C   LIG    1        3.414   0.191   2.161  0.00  0.00    -0.000 C 
ATOM     14  C   LIG    1        3.168   1.454   2.535  0.00  0.00    +0.015 C 
ATOM     15  C   LIG    1        4.839  -2.255   1.294  0.00  0.00    +0.018 C 
ATOM     16  C   LIG    1        4.806  -0.953   0.448  0.00  0.00    +0.010 C 
ATOM     17  C   LIG    1        3.410  -0.349   0.743  0.00  0.00    +0.029 C 
BRANCH  10  18
ATOM     18  C   LIG    1        3.019  -3.517   2.716  0.00  0.00    +0.213 C 
BRANCH  18  19
ATOM     19  S   LIG    1        2.962  -5.044   1.790  0.00  0.00    +0.081 S 
ATOM     20  O   LIG    1        4.309  -5.575   1.622  0.00  0.00    -0.147 OA
ATOM     21  O   LIG    1        2.025  -4.992   0.708  0.00  0.00    -0.147 OA
BRANCH  19  22
ATOM     22  O   LIG    1        2.289  -5.966   2.932  0.00  0.00    -0.254 OA
ATOM     23  H   LIG    1        2.733  -6.839   2.926  0.00  0.00    +0.244 HD
ENDBRANCH  19  22
ENDBRANCH  18  19
ENDBRANCH  10  18
ENDBRANCH   1  14
BRANCH   4  24
ATOM     24  C   LIG    1        2.614   3.537   7.835  0.00  0.00    +0.015 C 
ATOM     25  C   LIG    1        2.353   4.823   8.075  0.00  0.00    -0.000 C 
ATOM     26  C   LIG    1        2.175   6.056   7.222  0.00  0.00    +0.029 C 
ATOM     27  C   LIG    1        3.035   7.091   8.006  0.00  0.00    -0.014 C 
ATOM     28  C   LIG    1        2.230   6.884   9.352  0.00  0.00    +0.061 C 
ATOM     29  C   LIG    1        0.769   7.146   8.897  0.00  0.00    +0.018 C 
ATOM     30  C   LIG    1        4.534   6.712   8.055  0.00  0.00    +0.012 C 
ATOM     31  C   LIG    1        2.961   8.499   7.374  0.00  0.00    +0.012 C 
ATOM     32  C   LIG    1        0.734   6.572   7.454  0.00  0.00    +0.010 C 
ATOM     33  C   LIG    1        2.279   5.361   9.458  0.00  0.00    +0.168 C 
ATOM     34  O   LIG    1        2.127   4.668  10.447  0.00  0.00    -0.292 OA
BRANCH  28  35
ATOM     35  C   LIG    1        2.727   7.634  10.576  0.00  0.00    +0.213 C 
BRANCH  35  36
ATOM     36  S   LIG    1        1.844   7.336  12.127  0.00  0.00    +0.081 S 
ATOM     37  O   LIG    1        0.420   7.263  11.876  0.00  0.00    -0.147 OA
ATOM     38  O   LIG    1        2.393   8.203  13.137  0.00  0.00    -0.147 OA
BRANCH  36  39
ATOM     39  O   LIG    1        2.336   5.846  12.482  0.00  0.00    -0.254 OA
ATOM     40  H   LIG    1        1.769   5.183  12.008  0.00  0.00    +0.244 HD
ENDBRANCH  36  39
ENDBRANCH  35  36
ENDBRANCH  28  35
ENDBRANCH   4  24
TORSDOF 8
