REMARK  Name = *****
REMARK                            x       y       z     vdW  Elec       q    Type
REMARK                         _______ _______ _______ _____ _____    ______ ____
ROOT
ATOM      1  C   LIG    1        3.761   0.753  -1.390  0.00  0.00    +0.059 C 
ATOM      2  C   LIG    1        3.076  -0.569  -1.114  0.00  0.00    +0.037 C 
ATOM      3  C   LIG    1        4.564  -0.412  -0.900  0.00  0.00    +0.029 C 
ENDROOT
BRANCH   2   4
ATOM      4  C   LIG    1        2.559  -1.405  -2.262  0.00  0.00    -0.043 A 
ATOM      5  C   LIG    1        1.644  -0.880  -3.190  0.00  0.00    +0.004 A 
ATOM      6  C   LIG    1        1.151  -1.652  -4.245  0.00  0.00    +0.000 A 
ATOM      7  C   LIG    1        1.560  -2.974  -4.389  0.00  0.00    +0.000 A 
ATOM      8  C   LIG    1        2.458  -3.523  -3.478  0.00  0.00    +0.000 A 
ATOM      9  C   LIG    1        2.947  -2.745  -2.425  0.00  0.00    +0.004 A 
ENDBRANCH   2   4
BRANCH   1  10
ATOM     10  N   LIG    1        3.526   1.893  -0.504  0.00  0.00    -0.327 NA
ATOM     11  H   LIG    1        3.413   1.599   0.465  0.00  0.00    +0.118 HD
ATOM     12  H   LIG    1        4.327   2.524  -0.514  0.00  0.00    +0.118 HD
ENDBRANCH   1  10
TORSDOF 2
