REMARK  Name = *****
REMARK                            x       y       z     vdW  Elec       q    Type
REMARK                         _______ _______ _______ _____ _____    ______ ____
ROOT
ATOM      1  C   LIG    1        4.542   3.239   1.310  0.00  0.00    +0.080 A 
ATOM      2  C   LIG    1        4.768   2.042   2.038  0.00  0.00    +0.045 A 
ATOM      3  C   LIG    1        4.289   1.974   3.357  0.00  0.00    +0.024 A 
ATOM      4  C   LIG    1        3.608   3.043   3.943  0.00  0.00    +0.002 A 
ATOM      5  C   LIG    1        3.381   4.208   3.219  0.00  0.00    +0.001 A 
ATOM      6  C   LIG    1        3.847   4.307   1.909  0.00  0.00    +0.017 A 
ENDROOT
BRANCH   1   8
ATOM      7  O   LIG    1        4.641   4.421  -0.783  0.00  0.00    -0.245 OA
ATOM      8  C   LIG    1        4.957   3.454  -0.112  0.00  0.00    +0.341 C 
BRANCH   8   9
ATOM      9  O   LIG    1        5.694   2.400  -0.554  0.00  0.00    -0.459 OA
BRANCH   9  10
ATOM     10  C   LIG    1        5.930   2.340  -1.963  0.00  0.00    +0.260 C 
BRANCH  10  11
ATOM     11  C   LIG    1        4.742   1.682  -2.668  0.00  0.00    +0.201 C 
BRANCH  11  12
ATOM     12  O   LIG    1        4.978   1.469  -4.061  0.00  0.00    -0.374 OA
BRANCH  12  13
ATOM     13  C   LIG    1        4.997   2.692  -4.807  0.00  0.00    +0.188 C 
BRANCH  13  14
ATOM     14  C   LIG    1        5.186   2.360  -6.282  0.00  0.00    +0.184 C 
BRANCH  14  15
ATOM     15  O   LIG    1        4.090   1.585  -6.757  0.00  0.00    -0.393 OA
ATOM     16  H   LIG    1        3.995   0.852  -6.119  0.00  0.00    +0.209 HD
ENDBRANCH  14  15
ENDBRANCH  13  14
ENDBRANCH  12  13
ENDBRANCH  11  12
ENDBRANCH  10  11
ENDBRANCH   9  10
ENDBRANCH   8   9
ENDBRANCH   1   8
BRANCH   2  17
ATOM     17  N   LIG    1        5.454   0.934   1.490  0.00  0.00    -0.314 N 
ATOM     18  H   LIG    1        5.997   1.183   0.663  0.00  0.00    +0.152 HD
BRANCH  17  19
ATOM     19  C   LIG    1        5.286  -0.457   1.611  0.00  0.00    +0.032 A 
ATOM     20  C   LIG    1        4.099  -1.063   2.034  0.00  0.00    +0.035 A 
ATOM     21  C   LIG    1        3.997  -2.466   2.151  0.00  0.00    +0.057 A 
ATOM     22  C   LIG    1        5.114  -3.261   1.858  0.00  0.00    +0.012 A 
ATOM     23  C   LIG    1        6.305  -2.670   1.449  0.00  0.00    +0.002 A 
ATOM     24  C   LIG    1        6.385  -1.282   1.327  0.00  0.00    +0.023 A 
BRANCH  21  25
ATOM     25  C   LIG    1        2.696  -3.095   2.582  0.00  0.00    +0.417 C 
ATOM     26  F   LIG    1        1.673  -2.818   1.728  0.00  0.00    -0.166 F 
ATOM     27  F   LIG    1        2.289  -2.664   3.808  0.00  0.00    -0.166 F 
ATOM     28  F   LIG    1        2.750  -4.455   2.666  0.00  0.00    -0.166 F 
ENDBRANCH  21  25
ENDBRANCH  17  19
ENDBRANCH   2  17
TORSDOF 11
