REMARK  Name = *****
REMARK                            x       y       z     vdW  Elec       q    Type
REMARK                         _______ _______ _______ _____ _____    ______ ____
ROOT
ATOM      1  C   LIG    1        3.364   0.820   1.547  0.00  0.00    +0.036 A 
ATOM      2  C   LIG    1        4.342   0.082   2.220  0.00  0.00    +0.027 A 
ATOM      3  C   LIG    1        5.219   0.726   3.091  0.00  0.00    +0.047 A 
ATOM      4  C   LIG    1        5.130   2.102   3.262  0.00  0.00    +0.117 A 
ATOM      5  C   LIG    1        4.195   2.855   2.557  0.00  0.00    +0.047 A 
ATOM      6  C   LIG    1        3.312   2.211   1.690  0.00  0.00    +0.027 A 
ENDROOT
BRANCH   1   8
ATOM      7  C   LIG    1        2.517   0.375  -0.690  0.00  0.00    +0.138 C 
ATOM      8  N   LIG    1        2.394   0.175   0.750  0.00  0.00    -0.272 N 
ATOM      9  C   LIG    1        1.582  -0.871   1.222  0.00  0.00    +0.252 C 
ATOM     10  O   LIG    1        0.984  -1.609   0.436  0.00  0.00    -0.272 OA
BRANCH   9  11
ATOM     11  C   LIG    1        1.417  -1.003   2.750  0.00  0.00    +0.257 C 
ATOM     12 CL   LIG    1        2.195  -2.507   3.294  0.00  0.00    -0.095 Cl
ATOM     13 CL   LIG    1       -0.317  -1.027   3.162  0.00  0.00    -0.095 Cl
ENDBRANCH   9  11
ENDBRANCH   1   8
BRANCH   4  14
ATOM     14  O   LIG    1        5.989   2.684   4.145  0.00  0.00    -0.507 OA
ATOM     15  H   LIG    1        5.808   3.638   4.179  0.00  0.00    +0.292 HD
ENDBRANCH   4  14
TORSDOF 3
