REMARK  Name = *****
REMARK                            x       y       z     vdW  Elec       q    Type
REMARK                         _______ _______ _______ _____ _____    ______ ____
ROOT
ATOM      1  C   LIG    1        2.775   3.444  -5.609  0.00  0.00    +0.341 C 
ATOM      2  O   LIG    1        2.865   4.368  -6.409  0.00  0.00    -0.247 OA
ENDROOT
BRANCH   1   3
ATOM      3  O   LIG    1        2.703   2.123  -5.935  0.00  0.00    -0.459 OA
BRANCH   3  11
ATOM      4  C   LIG    1        1.171   2.678 -10.174  0.00  0.00    +0.007 C 
ATOM      5  C   LIG    1        0.715   1.652  -9.136  0.00  0.00    -0.010 C 
ATOM      6  C   LIG    1        1.196   0.221  -9.423  0.00  0.00    +0.010 C 
ATOM      7  C   LIG    1        2.645  -0.123  -9.001  0.00  0.00    -0.031 C 
ATOM      8  C   LIG    1        2.803  -1.659  -9.028  0.00  0.00    +0.011 C 
ATOM      9  C   LIG    1        3.678   0.452  -9.987  0.00  0.00    +0.011 C 
ATOM     10  C   LIG    1        2.919   0.377  -7.566  0.00  0.00    +0.051 C 
ATOM     11  C   LIG    1        2.537   1.843  -7.341  0.00  0.00    +0.177 C 
ATOM     12  C   LIG    1        1.070   2.084  -7.713  0.00  0.00    +0.048 C 
ENDBRANCH   3  11
ENDBRANCH   1   3
BRANCH   1  13
ATOM     13  C   LIG    1        2.669   3.659  -4.096  0.00  0.00    +0.253 C 
BRANCH  13  14
ATOM     14  C   LIG    1        3.972   3.480  -3.350  0.00  0.00    -0.008 A 
ATOM     15  C   LIG    1        5.204   3.828  -3.927  0.00  0.00    +0.007 A 
ATOM     16  C   LIG    1        6.393   3.685  -3.211  0.00  0.00    +0.000 A 
ATOM     17  C   LIG    1        6.368   3.209  -1.903  0.00  0.00    +0.000 A 
ATOM     18  C   LIG    1        5.153   2.878  -1.307  0.00  0.00    +0.000 A 
ATOM     19  C   LIG    1        3.962   3.016  -2.024  0.00  0.00    +0.007 A 
ENDBRANCH  13  14
BRANCH  13  20
ATOM     20  O   LIG    1        2.190   4.979  -3.817  0.00  0.00    -0.376 OA
ATOM     21  H   LIG    1        2.443   5.524  -4.588  0.00  0.00    +0.211 HD
ENDBRANCH  13  20
ENDBRANCH   1  13
TORSDOF 5
