REMARK  Name = *****
REMARK                            x       y       z     vdW  Elec       q    Type
REMARK                         _______ _______ _______ _____ _____    ______ ____
ROOT
ATOM      1  C   LIG    1       13.056  -6.437  -0.675  0.00  0.00    +0.138 A 
ATOM      2  C   LIG    1       13.641  -5.665   0.367  0.00  0.00    -0.002 A 
ATOM      3  C   LIG    1       14.536  -6.337   1.380  0.00  0.00    +0.048 C 
ATOM      4  C   LIG    1       13.333  -4.278   0.470  0.00  0.00    -0.002 A 
ATOM      5  C   LIG    1       13.799  -3.456   1.649  0.00  0.00    +0.048 C 
ATOM      6  C   LIG    1       12.577  -3.670  -0.549  0.00  0.00    +0.124 A 
ATOM      7  C   LIG    1       12.045  -4.464  -1.571  0.00  0.00    +0.052 A 
ATOM      8  C   LIG    1       12.236  -5.847  -1.640  0.00  0.00    -0.004 A 
ATOM      9  C   LIG    1       11.417  -6.559  -2.679  0.00  0.00    +0.048 C 
ENDROOT
BRANCH   1  10
ATOM     10  O   LIG    1       13.133  -7.852  -0.545  0.00  0.00    -0.425 OA
BRANCH  10  12
ATOM     11  C   LIG    1       13.035 -10.114  -1.214  0.00  0.00    +0.136 C 
ATOM     12  C   LIG    1       13.466  -8.714  -1.603  0.00  0.00    +0.309 C 
ATOM     13  O   LIG    1       14.007  -8.414  -2.644  0.00  0.00    -0.251 OA
ENDBRANCH  10  12
ENDBRANCH   1  10
BRANCH   6  14
ATOM     14  O   LIG    1       12.375  -2.307  -0.488  0.00  0.00    -0.489 OA
BRANCH  14  15
ATOM     15  C   LIG    1       11.584  -1.768  -1.559  0.00  0.00    +0.261 C 
BRANCH  15  16
ATOM     16  C   LIG    1       11.411  -0.255  -1.443  0.00  0.00    +0.166 C 
BRANCH  16  17
ATOM     17  O   LIG    1       10.768   0.118  -0.216  0.00  0.00    -0.387 OA
ATOM     18  H   LIG    1       10.061  -0.532  -0.063  0.00  0.00    +0.210 HD
ENDBRANCH  16  17
BRANCH  16  19
ATOM     19  C   LIG    1       10.577   0.287  -2.624  0.00  0.00    +0.115 C 
BRANCH  19  20
ATOM     20  N   LIG    1        9.185  -0.221  -2.648  0.00  0.00    -0.311 NA
ATOM     21  H   LIG    1        8.731   0.063  -1.778  0.00  0.00    +0.122 HD
BRANCH  20  22
ATOM     22  C   LIG    1        8.412   0.328  -3.779  0.00  0.00    +0.048 C 
ATOM     23  C   LIG    1        8.318   1.855  -3.723  0.00  0.00    +0.024 C 
ATOM     24  C   LIG    1        6.994  -0.259  -3.779  0.00  0.00    +0.024 C 
ENDBRANCH  20  22
ENDBRANCH  19  20
ENDBRANCH  16  19
ENDBRANCH  15  16
ENDBRANCH  14  15
ENDBRANCH   6  14
TORSDOF 9
