REMARK  Name = *****
REMARK                            x       y       z     vdW  Elec       q    Type
REMARK                         _______ _______ _______ _____ _____    ______ ____
ROOT
ATOM      1  C   LIG    1        3.398   0.480   0.320  0.00  0.00    +0.168 C 
ATOM      2  C   LIG    1        3.543   1.878   0.090  0.00  0.00    +0.097 C 
ATOM      3  C   LIG    1        3.833   2.704   1.190  0.00  0.00    +0.052 C 
ATOM      4  C   LIG    1        3.636   4.168   1.069  0.00  0.00    +0.204 C 
ATOM      5  C   LIG    1        3.072   4.690  -0.190  0.00  0.00    +0.122 C 
ATOM      6  C   LIG    1        3.036   3.841  -1.223  0.00  0.00    +0.105 C 
ATOM      7  O   LIG    1        3.834   4.926   2.017  0.00  0.00    -0.286 OA
ATOM      8  C   LIG    1        4.235   2.163   2.404  0.00  0.00    +0.054 C 
ATOM      9  C   LIG    1        4.244   0.782   2.566  0.00  0.00    +0.149 C 
ATOM     10  F   LIG    1        4.647   0.325   3.763  0.00  0.00    -0.203 F 
ATOM     11  N   LIG    1        3.417   2.505  -1.196  0.00  0.00    -0.340 NA
ATOM     12  C   LIG    1        3.770  -0.108   1.574  0.00  0.00    +0.110 C 
ENDROOT
BRANCH  12  13
ATOM     13  N   LIG    1        3.685  -1.474   1.817  0.00  0.00    -0.323 NA
ATOM     14  C   LIG    1        2.509  -2.276   1.439  0.00  0.00    +0.124 C 
ATOM     15  C   LIG    1        2.576  -3.503   2.390  0.00  0.00    +0.075 C 
ATOM     16  C   LIG    1        4.082  -3.665   2.632  0.00  0.00    +0.025 C 
ATOM     17  C   LIG    1        4.777  -4.400   1.479  0.00  0.00    +0.008 C 
ATOM     18  C   LIG    1        4.038  -5.697   1.166  0.00  0.00    +0.015 C 
ATOM     19  C   LIG    1        2.563  -5.425   0.875  0.00  0.00    +0.081 C 
ATOM     20  N   LIG    1        1.892  -4.738   1.981  0.00  0.00    -0.311 NA
ATOM     21  H   LIG    1        1.879  -5.372   2.781  0.00  0.00    +0.122 HD
ATOM     22  C   LIG    1        4.534  -2.202   2.766  0.00  0.00    +0.110 C 
ENDBRANCH  12  13
BRANCH  11  23
ATOM     23  C   LIG    1        4.431   2.198  -2.263  0.00  0.00    +0.088 C 
ATOM     24  C   LIG    1        5.878   2.625  -2.111  0.00  0.00    +0.027 C 
ATOM     25  C   LIG    1        5.525   1.170  -2.169  0.00  0.00    +0.027 C 
ENDBRANCH  11  23
BRANCH   1  27
ATOM     26  C   LIG    1        1.878  -0.009  -1.462  0.00  0.00    +0.277 C 
ATOM     27  O   LIG    1        2.992  -0.401  -0.663  0.00  0.00    -0.491 OA
ENDBRANCH   1  27
BRANCH   5  28
ATOM     28  C   LIG    1        2.586   6.072  -0.379  0.00  0.00    +0.342 C 
ATOM     29  O   LIG    1        2.432   6.584  -1.467  0.00  0.00    -0.245 OA
BRANCH  28  30
ATOM     30  O   LIG    1        2.247   6.692   0.775  0.00  0.00    -0.477 OA
ATOM     31  H   LIG    1        2.520   6.212   1.590  0.00  0.00    +0.295 HD
ENDBRANCH  28  30
ENDBRANCH   5  28
TORSDOF 5
