REMARK  Name = *****
REMARK                            x       y       z     vdW  Elec       q    Type
REMARK                         _______ _______ _______ _____ _____    ______ ____
ROOT
ATOM      1  C   LIG    1        6.213   2.495  -0.402  0.00  0.00    +0.182 A 
ATOM      2  N   LIG    1        7.500   2.791  -0.797  0.00  0.00    -0.207 NA
ATOM      3  C   LIG    1        7.527   4.110  -0.876  0.00  0.00    +0.157 A 
ATOM      4  N   LIG    1        6.281   4.569  -0.544  0.00  0.00    -0.258 N 
ATOM      5  H   LIG    1        5.946   5.524  -0.504  0.00  0.00    +0.191 HD
ATOM      6  N   LIG    1        5.438   3.576  -0.238  0.00  0.00    -0.152 NA
ENDROOT
BRANCH   1  11
ATOM      7  C   LIG    1        6.117  -1.230  -0.155  0.00  0.00    +0.141 A 
ATOM      8  N   LIG    1        4.850  -1.486   0.257  0.00  0.00    -0.245 NA
ATOM      9  C   LIG    1        4.042  -0.423   0.447  0.00  0.00    +0.113 A 
ATOM     10  C   LIG    1        4.439   0.885   0.244  0.00  0.00    +0.031 A 
ATOM     11  C   LIG    1        5.749   1.132  -0.180  0.00  0.00    +0.025 A 
ATOM     12  C   LIG    1        6.606   0.048  -0.383  0.00  0.00    +0.050 A 
BRANCH   7  14
ATOM     13  N   LIG    1        7.665  -3.284  -0.520  0.00  0.00    -0.189 NA
ATOM     14  C   LIG    1        6.957  -2.380  -0.351  0.00  0.00    +0.119 C 
ENDBRANCH   7  14
ENDBRANCH   1  11
BRANCH   3  15
ATOM     15  C   LIG    1        8.662   4.958  -1.246  0.00  0.00    +0.021 A 
ATOM     16  C   LIG    1        8.572   6.353  -1.279  0.00  0.00    +0.031 A 
ATOM     17  C   LIG    1        9.692   7.086  -1.642  0.00  0.00    +0.111 A 
ATOM     18  N   LIG    1       10.875   6.533  -1.968  0.00  0.00    -0.263 NA
ATOM     19  C   LIG    1       10.947   5.186  -1.929  0.00  0.00    +0.111 A 
ATOM     20  C   LIG    1        9.885   4.369  -1.578  0.00  0.00    +0.031 A 
ENDBRANCH   3  15
TORSDOF 3
