REMARK  Name = *****
REMARK                            x       y       z     vdW  Elec       q    Type
REMARK                         _______ _______ _______ _____ _____    ______ ____
ROOT
ATOM      1  C   LIG    1       -1.050  -1.670  -1.939  0.00  0.00    +0.165 C 
ATOM      2  N   LIG    1        0.200  -1.232  -2.582  0.00  0.00    -0.288 N 
ATOM      3  C   LIG    1        0.868  -2.186  -3.322  0.00  0.00    +0.237 C 
ATOM      4  O   LIG    1        0.236  -3.203  -3.632  0.00  0.00    -0.274 OA
ATOM      5  C   LIG    1        0.666   0.046  -2.061  0.00  0.00    +0.112 C 
ATOM      6  C   LIG    1       -0.175   0.333  -0.819  0.00  0.00    +0.012 C 
ATOM      7  C   LIG    1        0.430  -0.010   0.542  0.00  0.00    +0.005 C 
ATOM      8  C   LIG    1       -0.784  -0.350   1.400  0.00  0.00    +0.001 C 
ATOM      9  C   LIG    1       -1.697  -1.122   0.462  0.00  0.00    +0.006 C 
ATOM     10  C   LIG    1       -1.413  -0.566  -0.939  0.00  0.00    +0.023 C 
ENDROOT
BRANCH   1  13
ATOM     11  N   LIG    1       -2.253  -1.119  -4.010  0.00  0.00    -0.304 N 
ATOM     12  H   LIG    1       -1.376  -0.667  -4.235  0.00  0.00    +0.149 HD
ATOM     13  C   LIG    1       -2.256  -1.912  -2.885  0.00  0.00    +0.234 C 
ATOM     14  O   LIG    1       -3.229  -2.582  -2.539  0.00  0.00    -0.274 OA
BRANCH  11  15
ATOM     15  C   LIG    1       -3.363  -1.012  -4.958  0.00  0.00    +0.149 C 
BRANCH  15  16
ATOM     16  C   LIG    1       -2.931  -1.556  -6.335  0.00  0.00    +0.237 C 
ATOM     17  O   LIG    1       -2.471  -2.672  -6.529  0.00  0.00    -0.285 OA
BRANCH  16  18
ATOM     18  C   LIG    1       -3.042  -0.589  -7.526  0.00  0.00    +0.282 C 
ATOM     19  N   LIG    1       -3.927  -0.922  -8.528  0.00  0.00    -0.306 N 
ATOM     20  H   LIG    1       -3.961  -0.251  -9.294  0.00  0.00    +0.149 HD
ATOM     21  O   LIG    1       -2.401   0.433  -7.548  0.00  0.00    -0.267 OA
BRANCH  19  22
ATOM     22  C   LIG    1       -4.657  -2.132  -8.631  0.00  0.00    +0.073 C 
ATOM     23  C   LIG    1       -5.140  -2.638  -9.961  0.00  0.00    +0.024 C 
ATOM     24  C   LIG    1       -4.030  -3.352  -9.247  0.00  0.00    +0.024 C 
ENDBRANCH  19  22
ENDBRANCH  16  18
ENDBRANCH  15  16
BRANCH  15  25
ATOM     25  C   LIG    1       -3.822   0.446  -5.032  0.00  0.00    +0.030 C 
BRANCH  25  27
ATOM     26  C   LIG    1       -4.673   2.507  -3.925  0.00  0.00    +0.004 C 
ATOM     27  C   LIG    1       -4.307   1.044  -3.719  0.00  0.00    -0.001 C 
ENDBRANCH  25  27
ENDBRANCH  15  25
ENDBRANCH  11  15
ENDBRANCH   1  13
BRANCH   3  28
ATOM     28  C   LIG    1        2.403  -2.124  -3.586  0.00  0.00    +0.164 C 
BRANCH  28  29
ATOM     29  C   LIG    1        2.796  -2.804  -4.980  0.00  0.00    -0.011 C 
ATOM     30  C   LIG    1        4.324  -2.714  -5.202  0.00  0.00    +0.013 C 
ATOM     31  C   LIG    1        2.121  -2.124  -6.197  0.00  0.00    +0.013 C 
ATOM     32  C   LIG    1        2.422  -4.305  -5.053  0.00  0.00    +0.013 C 
ENDBRANCH  28  29
BRANCH  28  33
ATOM     33  N   LIG    1        3.024  -2.886  -2.448  0.00  0.00    -0.302 N 
ATOM     34  H   LIG    1        2.732  -3.852  -2.386  0.00  0.00    +0.149 HD
ATOM     35  C   LIG    1        3.453  -2.328  -1.257  0.00  0.00    +0.234 C 
ATOM     36  O   LIG    1        3.408  -1.108  -1.088  0.00  0.00    -0.274 OA
BRANCH  35  37
ATOM     37  C   LIG    1        3.961  -3.312  -0.113  0.00  0.00    +0.162 C 
BRANCH  37  38
ATOM     38  C   LIG    1        5.373  -2.873   0.444  0.00  0.00    +0.018 C 
ATOM     39  C   LIG    1        5.476  -1.431   1.012  0.00  0.00    +0.006 C 
ATOM     40  C   LIG    1        4.883  -1.225   2.407  0.00  0.00    +0.000 C 
ATOM     41  C   LIG    1        5.362  -2.242   3.436  0.00  0.00    +0.000 C 
ATOM     42  C   LIG    1        5.308  -3.664   2.897  0.00  0.00    +0.000 C 
ATOM     43  C   LIG    1        5.976  -3.800   1.526  0.00  0.00    +0.006 C 
ENDBRANCH  37  38
BRANCH  37  44
ATOM     44  N   LIG    1        3.969  -4.709  -0.621  0.00  0.00    -0.298 N 
ATOM     45  H   LIG    1        4.203  -4.883  -1.595  0.00  0.00    +0.150 HD
ATOM     46  C   LIG    1        3.716  -5.832   0.158  0.00  0.00    +0.265 C 
ATOM     47  O   LIG    1        3.495  -5.807   1.343  0.00  0.00    -0.269 OA
BRANCH  46  48
ATOM     48  C   LIG    1        3.698  -7.137  -0.588  0.00  0.00    +0.143 A 
ATOM     49  N   LIG    1        4.310  -7.194  -1.803  0.00  0.00    -0.247 NA
ATOM     50  C   LIG    1        4.182  -8.384  -2.446  0.00  0.00    +0.131 A 
ATOM     51  C   LIG    1        3.449  -9.447  -1.935  0.00  0.00    +0.130 A 
ATOM     52  N   LIG    1        2.846  -9.391  -0.727  0.00  0.00    -0.260 NA
ATOM     53  C   LIG    1        2.997  -8.213  -0.056  0.00  0.00    +0.143 A 
ENDBRANCH  46  48
ENDBRANCH  37  44
ENDBRANCH  35  37
ENDBRANCH  28  33
ENDBRANCH   3  28
TORSDOF 14
