REMARK  Name = *****
REMARK                            x       y       z     vdW  Elec       q    Type
REMARK                         _______ _______ _______ _____ _____    ______ ____
ROOT
ATOM      1  C   LIG    1        0.808   0.039  -0.309  0.00  0.00    +0.134 C 
ATOM      2  N   LIG    1        2.257   0.094  -0.022  0.00  0.00    -0.158 NA
ATOM      3  S   LIG    1        2.721   1.592   0.627  0.00  0.00    +0.064 S 
ATOM      4  O   LIG    1        2.130   1.703   1.944  0.00  0.00    -0.153 OA
ATOM      5  O   LIG    1        2.493   2.603  -0.384  0.00  0.00    -0.153 OA
ATOM      6  C   LIG    1        4.451   1.417   0.842  0.00  0.00    +0.128 A 
ATOM      7  C   LIG    1        4.989   0.135   0.895  0.00  0.00    +0.057 A 
ATOM      8  C   LIG    1        6.383   0.035   1.011  0.00  0.00    +0.047 A 
ATOM      9  C   LIG    1        7.199   1.173   1.128  0.00  0.00    +0.069 A 
ATOM     10  C   LIG    1        6.622   2.442   1.099  0.00  0.00    +0.125 A 
ATOM     11 CL   LIG    1        8.897   0.901   1.293  0.00  0.00    -0.082 Cl
ATOM     12  N   LIG    1        4.243  -1.018   0.683  0.00  0.00    -0.325 N 
ATOM     13  H   LIG    1        4.658  -1.854   1.096  0.00  0.00    +0.148 HD
ATOM     14  C   LIG    1        5.239   2.570   0.946  0.00  0.00    +0.060 A 
ATOM     15  C   LIG    1        2.785  -1.008   0.807  0.00  0.00    +0.177 C 
ENDROOT
BRANCH  10  16
ATOM     16  S   LIG    1        7.636   3.876   1.246  0.00  0.00    +0.057 S 
ATOM     17  O   LIG    1        8.454   3.990   0.062  0.00  0.00    -0.153 OA
ATOM     18  O   LIG    1        8.159   3.936   2.589  0.00  0.00    -0.153 OA
BRANCH  16  19
ATOM     19  N   LIG    1        6.563   5.170   1.148  0.00  0.00    -0.203 NA
ATOM     20  H   LIG    1        6.787   5.730   0.322  0.00  0.00    +0.144 HD
ATOM     21  H   LIG    1        6.601   5.705   2.018  0.00  0.00    +0.144 HD
ENDBRANCH  16  19
ENDBRANCH  10  16
BRANCH  15  22
ATOM     22  C   LIG    1        2.259  -2.392   0.354  0.00  0.00    +0.148 C 
ATOM     23 CL   LIG    1        2.927  -3.711   1.367  0.00  0.00    -0.122 Cl
ENDBRANCH  15  22
TORSDOF 3
