REMARK  Name = *****
REMARK                            x       y       z     vdW  Elec       q    Type
REMARK                         _______ _______ _______ _____ _____    ______ ____
ROOT
ATOM      1  C   LIG    1        6.761   0.059  -5.048  0.00  0.00    +0.003 C 
ATOM      2  C   LIG    1        6.010  -0.167  -6.146  0.00  0.00    -0.050 C 
ATOM      3  C   LIG    1        6.591   0.219  -7.478  0.00  0.00    +0.044 C 
ENDROOT
BRANCH   1   5
ATOM      4  C   LIG    1        6.972   0.323  -2.627  0.00  0.00    +0.003 C 
ATOM      5  C   LIG    1        6.395  -0.263  -3.688  0.00  0.00    +0.001 C 
BRANCH   4   7
ATOM      6  C   LIG    1        6.125  -1.358  -0.954  0.00  0.00    +0.044 C 
ATOM      7  C   LIG    1        6.610   0.047  -1.245  0.00  0.00    -0.044 C 
ATOM      8  C   LIG    1        6.735   0.914  -0.217  0.00  0.00    +0.094 C 
BRANCH   8   9
ATOM      9  C   LIG    1        7.179   2.320  -0.137  0.00  0.00    +0.330 C 
ATOM     10  O   LIG    1        7.545   2.808   0.931  0.00  0.00    -0.246 OA
BRANCH   9  11
ATOM     11  O   LIG    1        7.098   3.033  -1.267  0.00  0.00    -0.477 OA
ATOM     12  H   LIG    1        6.588   2.590  -1.972  0.00  0.00    +0.295 HD
ENDBRANCH   9  11
ENDBRANCH   8   9
ENDBRANCH   4   7
ENDBRANCH   1   5
BRANCH   2  13
ATOM     13  C   LIG    1        4.650  -0.685  -6.050  0.00  0.00    +0.003 C 
ATOM     14  C   LIG    1        3.924  -1.441  -6.886  0.00  0.00    +0.004 C 
BRANCH  14  15
ATOM     15  C   LIG    1        4.258  -1.984  -8.193  0.00  0.00    -0.043 C 
ATOM     16  C   LIG    1        3.402  -1.439  -9.360  0.00  0.00    -0.010 C 
ATOM     17  C   LIG    1        1.901  -1.292  -9.010  0.00  0.00    +0.016 C 
ATOM     18  C   LIG    1        3.922  -0.039  -9.762  0.00  0.00    +0.016 C 
ATOM     19  C   LIG    1        3.479  -2.393 -10.578  0.00  0.00    +0.011 C 
ATOM     20  C   LIG    1        4.912  -2.769 -10.919  0.00  0.00    +0.005 C 
ATOM     21  C   LIG    1        5.583  -3.465  -9.743  0.00  0.00    +0.031 C 
ATOM     22  C   LIG    1        5.234  -2.909  -8.378  0.00  0.00    -0.069 C 
ATOM     23  C   LIG    1        6.104  -3.502  -7.293  0.00  0.00    +0.039 C 
ENDBRANCH  14  15
ENDBRANCH   2  13
TORSDOF 6
