REMARK  Name = *****
REMARK                            x       y       z     vdW  Elec       q    Type
REMARK                         _______ _______ _______ _____ _____    ______ ____
ROOT
ATOM      1  O   LIG    1        4.585  -0.273   0.276  0.00  0.00    -0.247 OA
ATOM      2  C   LIG    1        4.322  -0.966  -0.707  0.00  0.00    +0.349 C 
ENDROOT
BRANCH   2   3
ATOM      3  C   LIG    1        2.911  -1.552  -1.076  0.00  0.00    +0.213 C 
BRANCH   3   4
ATOM      4  C   LIG    1        1.727  -0.664  -0.638  0.00  0.00    -0.001 A 
ATOM      5  C   LIG    1        1.797   0.744  -0.625  0.00  0.00    +0.007 A 
ATOM      6  C   LIG    1        0.702   1.524  -0.221  0.00  0.00    +0.000 A 
ATOM      7  C   LIG    1       -0.492   0.919   0.161  0.00  0.00    +0.000 A 
ATOM      8  C   LIG    1       -0.604  -0.464   0.111  0.00  0.00    +0.000 A 
ATOM      9  C   LIG    1        0.485  -1.240  -0.299  0.00  0.00    +0.007 A 
ENDBRANCH   3   4
BRANCH   3  10
ATOM     10  C   LIG    1        2.851  -2.989  -0.494  0.00  0.00    -0.001 A 
ATOM     11  C   LIG    1        2.589  -4.113  -1.299  0.00  0.00    +0.007 A 
ATOM     12  C   LIG    1        2.548  -5.398  -0.748  0.00  0.00    +0.000 A 
ATOM     13  C   LIG    1        2.739  -5.582   0.618  0.00  0.00    +0.000 A 
ATOM     14  C   LIG    1        2.962  -4.481   1.440  0.00  0.00    +0.000 A 
ATOM     15  C   LIG    1        3.020  -3.197   0.891  0.00  0.00    +0.007 A 
ENDBRANCH   3  10
BRANCH   3  16
ATOM     16  O   LIG    1        2.831  -1.594  -2.514  0.00  0.00    -0.370 OA
ATOM     17  H   LIG    1        3.579  -2.141  -2.805  0.00  0.00    +0.212 HD
ENDBRANCH   3  16
ENDBRANCH   2   3
BRANCH   2  18
ATOM     18  O   LIG    1        5.295  -1.401  -1.592  0.00  0.00    -0.459 OA
BRANCH  18  19
ATOM     19  C   LIG    1        6.662  -1.030  -1.292  0.00  0.00    +0.187 C 
ATOM     20  C   LIG    1        7.178  -0.050  -2.355  0.00  0.00    +0.099 C 
ATOM     21  C   LIG    1        8.714   0.037  -2.397  0.00  0.00    +0.070 C 
ATOM     22  N   LIG    1        9.293  -1.359  -2.705  0.00  0.00    +0.248 N 
ATOM     23  C   LIG    1        9.019  -2.058  -1.355  0.00  0.00    +0.070 C 
ATOM     24  C   LIG    1        9.529  -1.017  -0.344  0.00  0.00    +0.060 C 
ATOM     25  C   LIG    1       10.833  -1.301  -3.003  0.00  0.00    +0.134 C 
ATOM     26  C   LIG    1       10.992  -1.778  -4.434  0.00  0.00    +0.056 C 
ATOM     27  C   LIG    1        9.866  -2.766  -4.596  0.00  0.00    +0.056 C 
ATOM     28  C   LIG    1        8.705  -2.037  -3.957  0.00  0.00    +0.134 C 
ATOM     29  C   LIG    1        9.298   0.345  -1.007  0.00  0.00    +0.060 C 
ATOM     30  C   LIG    1        7.511  -2.303  -1.171  0.00  0.00    +0.099 C 
ENDBRANCH  18  19
ENDBRANCH   2  18
TORSDOF 6
