REMARK  Name = *****
REMARK                            x       y       z     vdW  Elec       q    Type
REMARK                         _______ _______ _______ _____ _____    ______ ____
ROOT
ATOM      1  C   LIG    1        3.002  -0.350   1.357  0.00  0.00    +0.074 C 
ENDROOT
BRANCH   1   2
ATOM      2  N   LIG    1        2.259   0.041   0.160  0.00  0.00    -0.324 NA
ATOM      3  H   LIG    1        2.457   1.021  -0.042  0.00  0.00    +0.119 HD
ATOM      4  H   LIG    1        2.591  -0.482  -0.647  0.00  0.00    +0.119 HD
ENDBRANCH   1   2
BRANCH   1   6
ATOM      5  C   LIG    1        2.021  -2.070   2.910  0.00  0.00    +0.005 C 
ATOM      6  C   LIG    1        2.595  -1.745   1.742  0.00  0.00    -0.016 C 
ENDBRANCH   1   6
BRANCH   1   7
ATOM      7  C   LIG    1        4.516  -0.248   1.084  0.00  0.00    +0.034 C 
BRANCH   7   8
ATOM      8  C   LIG    1        5.391  -0.674   2.266  0.00  0.00    +0.122 C 
BRANCH   8   9
ATOM      9  C   LIG    1        5.164   0.186   3.487  0.00  0.00    +0.305 C 
ATOM     10  O   LIG    1        4.830   1.358   3.457  0.00  0.00    -0.251 OA
BRANCH   9  11
ATOM     11  O   LIG    1        5.419  -0.465   4.644  0.00  0.00    -0.481 OA
ATOM     12  H   LIG    1        5.687  -1.396   4.529  0.00  0.00    +0.295 HD
ENDBRANCH   9  11
ENDBRANCH   8   9
ENDBRANCH   7   8
ENDBRANCH   1   7
TORSDOF 6
