REMARK  Name = *****
REMARK                            x       y       z     vdW  Elec       q    Type
REMARK                         _______ _______ _______ _____ _____    ______ ____
ROOT
ATOM      1 CL   LIG    1        0.947  -0.141   0.049  0.00  0.00    -0.090 Cl
ATOM      2  C   LIG    1        2.654  -0.034  -0.078  0.00  0.00    +0.111 C 
ATOM      3  C   LIG    1        3.327   0.706  -0.963  0.00  0.00    +0.118 C 
ATOM      4 CL   LIG    1        5.057   0.691  -0.944  0.00  0.00    -0.070 Cl
ATOM      5 CL   LIG    1        2.561   1.699  -2.149  0.00  0.00    -0.070 Cl
ENDROOT
TORSDOF 0
