REMARK  Name = *****
REMARK                            x       y       z     vdW  Elec       q    Type
REMARK                         _______ _______ _______ _____ _____    ______ ____
ROOT
ATOM      1  C   LIG    1        0.780  -2.216   2.309  0.00  0.00    +0.104 C 
ATOM      2  C   LIG    1        0.009  -1.219   3.246  0.00  0.00    +0.152 C 
ATOM      3  C   LIG    1       -1.536  -1.315   3.149  0.00  0.00    +0.117 C 
ATOM      4  N   LIG    1       -2.017  -2.698   3.201  0.00  0.00    -0.300 NA
ATOM      5  C   LIG    1       -1.506  -3.381   2.004  0.00  0.00    +0.086 C 
ATOM      6  C   LIG    1        0.008  -3.535   2.088  0.00  0.00    +0.040 C 
ENDROOT
BRANCH   1   8
ATOM      7  C   LIG    1        2.220  -2.347   0.263  0.00  0.00    +0.248 C 
ATOM      8  N   LIG    1        1.270  -1.659   1.024  0.00  0.00    -0.306 N 
ATOM      9  H   LIG    1        1.153  -0.662   0.865  0.00  0.00    +0.149 HD
ATOM     10  O   LIG    1        2.633  -3.446   0.593  0.00  0.00    -0.270 OA
BRANCH   7  12
ATOM     11  C   LIG    1        2.357  -0.506  -1.583  0.00  0.00    +0.134 A 
ATOM     12  C   LIG    1        2.751  -1.729  -1.011  0.00  0.00    +0.080 A 
ATOM     13  C   LIG    1        3.741  -2.492  -1.690  0.00  0.00    +0.038 A 
ATOM     14  C   LIG    1        4.313  -2.053  -2.891  0.00  0.00    +0.062 A 
ATOM     15 CL   LIG    1        5.509  -3.031  -3.668  0.00  0.00    -0.082 Cl
ATOM     16  C   LIG    1        3.897  -0.858  -3.477  0.00  0.00    +0.047 A 
ATOM     17  C   LIG    1        2.977  -0.079  -2.776  0.00  0.00    +0.070 A 
BRANCH  16  18
ATOM     18  N   LIG    1        4.502  -0.305  -4.620  0.00  0.00    -0.357 N 
ATOM     19  H   LIG    1        4.966  -1.001  -5.199  0.00  0.00    +0.142 HD
ATOM     20  H   LIG    1        3.888   0.299  -5.159  0.00  0.00    +0.142 HD
ENDBRANCH  16  18
BRANCH  11  22
ATOM     21  C   LIG    1        0.936   1.405  -1.704  0.00  0.00    +0.277 C 
ATOM     22  O   LIG    1        1.366   0.239  -0.988  0.00  0.00    -0.494 OA
ENDBRANCH  11  22
ENDBRANCH   7  12
ENDBRANCH   1   8
BRANCH   2  23
ATOM     23  O   LIG    1        0.462   0.134   3.029  0.00  0.00    -0.377 OA
ATOM     24  C   LIG    1       -0.012   1.054   4.014  0.00  0.00    +0.194 C 
ENDBRANCH   2  23
BRANCH   4  25
ATOM     25  C   LIG    1       -3.485  -2.828   3.284  0.00  0.00    +0.088 C 
BRANCH  25  26
ATOM     26  C   LIG    1       -4.150  -2.163   4.504  0.00  0.00    +0.056 C 
BRANCH  26  27
ATOM     27  C   LIG    1       -5.657  -2.445   4.531  0.00  0.00    +0.230 C 
BRANCH  27  28
ATOM     28  O   LIG    1       -6.289  -1.730   5.603  0.00  0.00    -0.492 OA
BRANCH  28  29
ATOM     29  C   LIG    1       -6.778  -0.479   5.333  0.00  0.00    +0.121 A 
ATOM     30  C   LIG    1       -7.186  -0.036   4.073  0.00  0.00    +0.048 A 
ATOM     31  C   LIG    1       -7.633   1.272   3.892  0.00  0.00    +0.042 A 
ATOM     32  C   LIG    1       -7.709   2.129   4.980  0.00  0.00    +0.124 A 
ATOM     33  F   LIG    1       -8.135   3.385   4.798  0.00  0.00    -0.205 F 
ATOM     34  C   LIG    1       -7.356   1.695   6.252  0.00  0.00    +0.042 A 
ATOM     35  C   LIG    1       -6.895   0.386   6.430  0.00  0.00    +0.048 A 
ENDBRANCH  28  29
ENDBRANCH  27  28
ENDBRANCH  26  27
ENDBRANCH  25  26
ENDBRANCH   4  25
TORSDOF 10
