REMARK  Name = *****
REMARK                            x       y       z     vdW  Elec       q    Type
REMARK                         _______ _______ _______ _____ _____    ______ ____
ROOT
ATOM      1  CA  LIG    1        5.194  -1.768  -2.217  0.00  0.00    +0.161 C 
ENDROOT
BRANCH   1   2
ATOM      2  N   LIG    1        5.034  -3.241  -2.218  0.00  0.00    -0.318 NA
ATOM      3  H1  LIG    1        5.310  -3.587  -1.294  0.00  0.00    +0.119 HD
ATOM      4  H2  LIG    1        4.031  -3.446  -2.252  0.00  0.00    +0.119 HD
ENDBRANCH   1   2
BRANCH   1   5
ATOM      5  C   LIG    1        4.437  -1.169  -1.011  0.00  0.00    +0.322 C 
ATOM      6  O   LIG    1        3.866  -1.847  -0.161  0.00  0.00    -0.249 OA
BRANCH   5   7
ATOM      7  OXT LIG    1        4.494   0.178  -0.918  0.00  0.00    -0.479 OA
ATOM      8  HXT LIG    1        4.996   0.619  -1.629  0.00  0.00    +0.295 HD
ENDBRANCH   5   7
ENDBRANCH   1   5
BRANCH   1   9
ATOM      9  C   LIG    1        4.689  -1.188  -3.545  0.00  0.00    +0.031 C 
BRANCH   9  10
ATOM     10  C   LIG    1        5.407  -1.769  -4.773  0.00  0.00    +0.017 C 
BRANCH  10  11
ATOM     11  C   LIG    1        4.887  -1.187  -6.087  0.00  0.00    +0.078 C 
BRANCH  11  12
ATOM     12  N   LIG    1        5.095   0.257  -6.155  0.00  0.00    -0.330 NA
ATOM     13  H   LIG    1        6.095   0.457  -6.137  0.00  0.00    +0.118 HD
ATOM     14  H   LIG    1        4.759   0.597  -7.056  0.00  0.00    +0.118 HD
ENDBRANCH  11  12
ENDBRANCH  10  11
ENDBRANCH   9  10
ENDBRANCH   1   9
TORSDOF 7
