REMARK  Name = *****
REMARK                            x       y       z     vdW  Elec       q    Type
REMARK                         _______ _______ _______ _____ _____    ______ ____
ROOT
ATOM      1  N   LIG    1        9.758   0.129   6.137  0.00  0.00    -0.287 NA
ATOM      2  C   LIG    1        9.380  -0.809   7.179  0.00  0.00    +0.108 C 
ATOM      3  C   LIG    1        9.964  -0.356   8.536  0.00  0.00    +0.039 C 
ATOM      4  C   LIG    1        9.499  -1.330   9.617  0.00  0.00    +0.030 C 
ATOM      5  C   LIG    1        9.397   1.067   8.827  0.00  0.00    +0.108 C 
ATOM      6  N   LIG    1        9.861   2.036   7.820  0.00  0.00    -0.287 NA
ATOM      7  C   LIG    1        9.582   1.520   6.489  0.00  0.00    +0.171 C 
ENDROOT
BRANCH   3   8
ATOM      8  N   LIG    1       11.451  -0.346   8.429  0.00  0.00    -0.323 NA
ATOM      9  H   LIG    1       11.800   0.436   9.004  0.00  0.00    +0.119 HD
ATOM     10  H   LIG    1       11.644  -0.014   7.490  0.00  0.00    +0.119 HD
ENDBRANCH   3   8
BRANCH   1  11
ATOM     11  C   LIG    1        9.213  -0.163   4.786  0.00  0.00    +0.089 C 
BRANCH  11  12
ATOM     12  C   LIG    1        7.665  -0.139   4.390  0.00  0.00    +0.003 C 
BRANCH  12  13
ATOM     13  C   LIG    1        6.850   1.178   4.433  0.00  0.00    +0.001 C 
ATOM     14  C   LIG    1        7.237   2.453   3.733  0.00  0.00    +0.004 C 
ENDBRANCH  12  13
BRANCH  12  15
ATOM     15  C   LIG    1        6.813  -1.165   5.199  0.00  0.00    +0.005 C 
BRANCH  15  16
ATOM     16  C   LIG    1        5.290  -1.238   4.920  0.00  0.00    +0.000 C 
BRANCH  16  18
ATOM     17  C   LIG    1        3.371  -1.844   3.360  0.00  0.00    +0.004 C 
ATOM     18  C   LIG    1        4.889  -1.740   3.536  0.00  0.00    -0.003 C 
ENDBRANCH  16  18
ENDBRANCH  15  16
ENDBRANCH  12  15
ENDBRANCH  11  12
ENDBRANCH   1  11
BRANCH   6  19
ATOM     19  C   LIG    1        9.225   3.395   8.024  0.00  0.00    +0.089 C 
BRANCH  19  20
ATOM     20  C   LIG    1        9.710   4.662   7.168  0.00  0.00    +0.003 C 
BRANCH  20  21
ATOM     21  C   LIG    1        9.146   4.798   5.735  0.00  0.00    +0.001 C 
ATOM     22  C   LIG    1        9.691   3.848   4.718  0.00  0.00    +0.004 C 
ENDBRANCH  20  21
BRANCH  20  23
ATOM     23  C   LIG    1        9.338   6.005   7.887  0.00  0.00    +0.005 C 
BRANCH  23  24
ATOM     24  C   LIG    1        9.787   7.319   7.179  0.00  0.00    +0.000 C 
BRANCH  24  25
ATOM     25  C   LIG    1       11.302   7.462   7.010  0.00  0.00    -0.003 C 
ATOM     26  C   LIG    1       11.665   8.731   6.244  0.00  0.00    +0.004 C 
ENDBRANCH  24  25
ENDBRANCH  23  24
ENDBRANCH  20  23
ENDBRANCH  19  20
ENDBRANCH   6  19
TORSDOF 13
