REMARK  Name = *****
REMARK                            x       y       z     vdW  Elec       q    Type
REMARK                         _______ _______ _______ _____ _____    ______ ____
ROOT
ATOM      1  C   LIG    1        6.282  -0.363  -1.542  0.00  0.00    +0.170 C 
ENDROOT
BRANCH   1   7
ATOM      2 CL   LIG    1        5.486  -2.738  -7.059  0.00  0.00    -0.084 Cl
ATOM      3  C   LIG    1        5.649  -2.092  -5.474  0.00  0.00    +0.042 A 
ATOM      4  C   LIG    1        5.920  -2.937  -4.400  0.00  0.00    +0.040 A 
ATOM      5  C   LIG    1        6.115  -2.401  -3.121  0.00  0.00    +0.048 A 
ATOM      6 CL   LIG    1        6.507  -3.499  -1.848  0.00  0.00    -0.083 Cl
ATOM      7  C   LIG    1        6.001  -1.018  -2.898  0.00  0.00    +0.001 A 
ATOM      8  C   LIG    1        5.635  -0.202  -3.990  0.00  0.00    +0.009 A 
ATOM      9  C   LIG    1        5.510  -0.725  -5.275  0.00  0.00    +0.020 A 
ENDBRANCH   1   7
BRANCH   1  10
ATOM     10  C   LIG    1        4.963  -0.318  -0.732  0.00  0.00    +0.159 C 
BRANCH  10  11
ATOM     11  N   LIG    1        5.105   0.176   0.624  0.00  0.00    -0.334 N 
ATOM     12  C   LIG    1        4.957   1.474   1.024  0.00  0.00    +0.199 A 
ATOM     13  N   LIG    1        5.093   1.610   2.314  0.00  0.00    -0.244 NA
ATOM     14  C   LIG    1        5.313   0.348   2.783  0.00  0.00    +0.130 A 
ATOM     15  C   LIG    1        5.276  -0.567   1.760  0.00  0.00    +0.107 A 
ENDBRANCH  10  11
ENDBRANCH   1  10
BRANCH   1  16
ATOM     16  O   LIG    1        6.776   0.985  -1.734  0.00  0.00    -0.365 OA
BRANCH  16  17
ATOM     17  C   LIG    1        8.061   1.060  -2.380  0.00  0.00    +0.199 C 
BRANCH  17  18
ATOM     18  C   LIG    1        8.472   2.510  -2.519  0.00  0.00    +0.015 A 
ATOM     19  C   LIG    1        8.582   3.142  -3.776  0.00  0.00    +0.048 A 
ATOM     20 CL   LIG    1        8.392   2.291  -5.272  0.00  0.00    -0.083 Cl
ATOM     21  C   LIG    1        8.876   4.509  -3.880  0.00  0.00    +0.020 A 
ATOM     22  C   LIG    1        9.086   5.272  -2.738  0.00  0.00    +0.003 A 
ATOM     23  C   LIG    1        9.041   4.657  -1.491  0.00  0.00    +0.020 A 
ATOM     24  C   LIG    1        8.745   3.291  -1.381  0.00  0.00    +0.048 A 
ATOM     25 CL   LIG    1        8.762   2.610   0.208  0.00  0.00    -0.083 Cl
ENDBRANCH  17  18
ENDBRANCH  16  17
ENDBRANCH   1  16
TORSDOF 6
