REMARK  Name = *****
REMARK                            x       y       z     vdW  Elec       q    Type
REMARK                         _______ _______ _______ _____ _____    ______ ____
ROOT
ATOM      1  C   LIG    1        8.717   2.140  -0.009  0.00  0.00    +0.126 A 
ATOM      2  C   LIG    1        9.103   1.548   1.182  0.00  0.00    +0.081 A 
ATOM      3  S   LIG    1        9.194   2.732   2.430  0.00  0.00    -0.092 S 
ATOM      4  C   LIG    1        8.860   4.017   1.363  0.00  0.00    +0.048 A 
ATOM      5  C   LIG    1        8.626   3.569   0.083  0.00  0.00    +0.037 A 
ENDROOT
BRANCH   1   6
ATOM      6  S   LIG    1        8.379   1.301  -1.493  0.00  0.00    +0.076 S 
ATOM      7  O   LIG    1        7.313   0.378  -1.155  0.00  0.00    -0.150 OA
ATOM      8  O   LIG    1        8.178   2.362  -2.439  0.00  0.00    -0.150 OA
BRANCH   6   9
ATOM      9  N   LIG    1        9.775   0.412  -1.903  0.00  0.00    -0.182 N 
ATOM     10  H   LIG    1        9.588  -0.528  -1.534  0.00  0.00    +0.177 HD
BRANCH   9  15
ATOM     11  C   LIG    1       10.704   1.790  -6.625  0.00  0.00    +0.071 C 
ATOM     12  C   LIG    1       10.352   1.039  -5.397  0.00  0.00    +0.101 A 
ATOM     13  C   LIG    1       10.594   1.397  -4.052  0.00  0.00    +0.126 A 
ATOM     14 CL   LIG    1       11.447   2.758  -3.503  0.00  0.00    -0.076 Cl
ATOM     15  C   LIG    1        9.953   0.426  -3.318  0.00  0.00    +0.255 A 
ATOM     16  O   LIG    1        9.461  -0.517  -4.165  0.00  0.00    -0.336 OA
ATOM     17  N   LIG    1        9.690  -0.126  -5.477  0.00  0.00    -0.080 NA
ENDBRANCH   9  15
ENDBRANCH   6   9
ENDBRANCH   1   6
BRANCH   2  18
ATOM     18  C   LIG    1        9.427   0.137   1.438  0.00  0.00    +0.176 C 
ATOM     19  O   LIG    1        9.379  -0.704   0.535  0.00  0.00    -0.291 OA
BRANCH  18  20
ATOM     20  C   LIG    1        9.901  -0.250   2.842  0.00  0.00    +0.115 C 
BRANCH  20  21
ATOM     21  C   LIG    1       10.193  -1.729   3.035  0.00  0.00    -0.033 A 
ATOM     22  C   LIG    1       11.464  -2.313   2.757  0.00  0.00    -0.043 A 
ATOM     23  C   LIG    1       12.612  -1.551   2.149  0.00  0.00    +0.044 C 
ATOM     24  C   LIG    1       11.661  -3.692   2.972  0.00  0.00    +0.053 A 
ATOM     25  C   LIG    1       10.609  -4.449   3.436  0.00  0.00    +0.167 A 
ATOM     26  O   LIG    1       10.638  -5.786   3.681  0.00  0.00    -0.453 OA
ATOM     27  C   LIG    1        9.267  -6.017   4.064  0.00  0.00    +0.466 C 
ATOM     28  O   LIG    1        8.475  -4.812   4.116  0.00  0.00    -0.453 OA
ATOM     29  C   LIG    1        9.381  -3.894   3.686  0.00  0.00    +0.167 A 
ATOM     30  C   LIG    1        9.142  -2.549   3.499  0.00  0.00    +0.053 A 
ENDBRANCH  20  21
ENDBRANCH  18  20
ENDBRANCH   2  18
TORSDOF 6
