REMARK  Name = *****
REMARK                            x       y       z     vdW  Elec       q    Type
REMARK                         _______ _______ _______ _____ _____    ______ ____
ROOT
ATOM      1  N   LIG    1        6.058  -3.565   1.784  0.00  0.00    -0.241 N 
ATOM      2  C   LIG    1        5.679  -4.882   1.746  0.00  0.00    +0.164 A 
ATOM      3  N   LIG    1        5.022  -5.500   0.749  0.00  0.00    -0.216 NA
ATOM      4  C   LIG    1        4.809  -6.792   0.980  0.00  0.00    +0.225 A 
ATOM      5  N   LIG    1        5.141  -7.477   2.074  0.00  0.00    -0.220 NA
ATOM      6  C   LIG    1        5.746  -6.827   3.085  0.00  0.00    +0.131 A 
ATOM      7  C   LIG    1        6.087  -5.457   2.937  0.00  0.00    +0.086 A 
ATOM      8  C   LIG    1        6.757  -4.367   3.634  0.00  0.00    +0.105 A 
ATOM      9  N   LIG    1        6.699  -3.227   2.922  0.00  0.00    -0.168 NA
ENDROOT
BRANCH   1  13
ATOM     10  C   LIG    1        6.993   0.583  -0.542  0.00  0.00    +0.239 C 
ATOM     11  N   LIG    1        6.829  -0.798  -0.658  0.00  0.00    -0.296 N 
ATOM     12  C   LIG    1        7.102  -1.809   0.376  0.00  0.00    +0.134 C 
ATOM     13  C   LIG    1        5.802  -2.521   0.793  0.00  0.00    +0.127 C 
ATOM     14  C   LIG    1        5.055  -3.026  -0.458  0.00  0.00    +0.030 C 
ATOM     15  C   LIG    1        4.883  -1.967  -1.535  0.00  0.00    +0.021 C 
ATOM     16  C   LIG    1        6.254  -1.305  -1.874  0.00  0.00    +0.108 C 
ATOM     17  O   LIG    1        6.703   1.382  -1.387  0.00  0.00    -0.271 OA
BRANCH  10  19
ATOM     18  C   LIG    1        8.780   1.640   0.728  0.00  0.00    +0.013 C 
ATOM     19  C   LIG    1        7.590   1.034   0.746  0.00  0.00    +0.060 C 
ENDBRANCH  10  19
ENDBRANCH   1  13
BRANCH   8  20
ATOM     20  C   LIG    1        7.430  -4.372   4.938  0.00  0.00    +0.003 A 
ATOM     21  C   LIG    1        7.952  -3.264   5.609  0.00  0.00    +0.013 A 
ATOM     22  C   LIG    1        8.595  -3.417   6.875  0.00  0.00    +0.047 A 
ATOM     23  C   LIG    1        8.642  -4.660   7.531  0.00  0.00    +0.129 A 
ATOM     24  C   LIG    1        8.021  -5.698   6.877  0.00  0.00    +0.047 A 
ATOM     25  C   LIG    1        7.558  -5.570   5.590  0.00  0.00    +0.013 A 
BRANCH  23  26
ATOM     26  O   LIG    1        9.335  -4.768   8.725  0.00  0.00    -0.456 OA
BRANCH  26  27
ATOM     27  C   LIG    1        9.571  -5.983   9.361  0.00  0.00    +0.128 A 
ATOM     28  C   LIG    1       10.737  -6.104  10.131  0.00  0.00    +0.046 A 
ATOM     29  C   LIG    1       11.009  -7.294  10.840  0.00  0.00    +0.004 A 
ATOM     30  C   LIG    1       10.115  -8.364  10.814  0.00  0.00    +0.000 A 
ATOM     31  C   LIG    1        8.952  -8.246  10.083  0.00  0.00    +0.004 A 
ATOM     32  C   LIG    1        8.684  -7.063   9.399  0.00  0.00    +0.046 A 
ENDBRANCH  26  27
ENDBRANCH  23  26
ENDBRANCH   8  20
BRANCH   6  33
ATOM     33  N   LIG    1        5.911  -7.637   4.205  0.00  0.00    -0.343 N 
ATOM     34  H   LIG    1        5.531  -7.208   5.042  0.00  0.00    +0.144 HD
ATOM     35  H   LIG    1        5.527  -8.558   4.023  0.00  0.00    +0.144 HD
ENDBRANCH   6  33
TORSDOF 6
