REMARK  Name = *****
REMARK                            x       y       z     vdW  Elec       q    Type
REMARK                         _______ _______ _______ _____ _____    ______ ____
ROOT
ATOM      1  C   LIG    1        2.490   3.084  -1.177  0.00  0.00    +0.097 C 
ENDROOT
BRANCH   1   8
ATOM      2  C   LIG    1       -2.200   1.847  -0.424  0.00  0.00    +0.009 C 
ATOM      3  C   LIG    1       -0.872   1.971   0.335  0.00  0.00    +0.010 C 
ATOM      4  C   LIG    1       -0.910   2.943   1.566  0.00  0.00    -0.002 C 
ATOM      5  C   LIG    1       -1.745   2.222   2.673  0.00  0.00    +0.016 C 
ATOM      6  C   LIG    1        0.542   3.020   2.098  0.00  0.00    +0.027 C 
ATOM      7  C   LIG    1        1.556   3.433   1.031  0.00  0.00    +0.085 C 
ATOM      8  N   LIG    1        1.597   2.521  -0.121  0.00  0.00    -0.301 NA
ATOM      9  C   LIG    1        0.274   2.206  -0.671  0.00  0.00    +0.088 C 
BRANCH   4  10
ATOM     10  C   LIG    1       -1.474   4.375   1.348  0.00  0.00    -0.038 A 
ATOM     11  C   LIG    1       -1.366   5.068   0.131  0.00  0.00    +0.049 A 
ATOM     12  C   LIG    1       -1.907   6.348  -0.037  0.00  0.00    +0.117 A 
ATOM     13  C   LIG    1       -2.562   6.995   0.998  0.00  0.00    +0.045 A 
ATOM     14  C   LIG    1       -2.661   6.353   2.224  0.00  0.00    +0.004 A 
ATOM     15  C   LIG    1       -2.116   5.073   2.396  0.00  0.00    +0.004 A 
BRANCH  12  16
ATOM     16  O   LIG    1       -1.771   6.939  -1.261  0.00  0.00    -0.507 OA
ATOM     17  H   LIG    1       -2.203   7.808  -1.231  0.00  0.00    +0.292 HD
ENDBRANCH  12  16
ENDBRANCH   4  10
ENDBRANCH   1   8
BRANCH   1  18
ATOM     18  C   LIG    1        2.785   2.131  -2.365  0.00  0.00    +0.093 C 
BRANCH  18  19
ATOM     19  C   LIG    1        3.673   2.823  -3.415  0.00  0.00    +0.218 C 
ATOM     20  N   LIG    1        3.783   2.283  -4.671  0.00  0.00    -0.305 N 
ATOM     21  H   LIG    1        4.479   2.763  -5.240  0.00  0.00    +0.149 HD
ATOM     22  O   LIG    1        4.223   3.907  -3.226  0.00  0.00    -0.275 OA
BRANCH  20  23
ATOM     23  C   LIG    1        3.255   1.008  -5.144  0.00  0.00    +0.224 C 
BRANCH  23  24
ATOM     24  C   LIG    1        3.069   0.983  -6.640  0.00  0.00    +0.322 C 
ATOM     25  O   LIG    1        3.005  -0.051  -7.306  0.00  0.00    -0.249 OA
BRANCH  24  26
ATOM     26  O   LIG    1        2.845   2.203  -7.172  0.00  0.00    -0.479 OA
ATOM     27  H   LIG    1        2.849   2.903  -6.484  0.00  0.00    +0.295 HD
ENDBRANCH  24  26
ENDBRANCH  23  24
ENDBRANCH  20  23
ENDBRANCH  18  19
BRANCH  18  28
ATOM     28  C   LIG    1        3.280   0.731  -1.923  0.00  0.00    +0.049 C 
BRANCH  28  29
ATOM     29  C   LIG    1        4.644   0.612  -1.284  0.00  0.00    -0.047 A 
ATOM     30  C   LIG    1        4.977   1.280  -0.100  0.00  0.00    +0.003 A 
ATOM     31  C   LIG    1        6.275   1.235   0.412  0.00  0.00    +0.000 A 
ATOM     32  C   LIG    1        7.251   0.481  -0.231  0.00  0.00    +0.000 A 
ATOM     33  C   LIG    1        6.911  -0.274  -1.349  0.00  0.00    +0.000 A 
ATOM     34  C   LIG    1        5.612  -0.225  -1.858  0.00  0.00    +0.003 A 
ENDBRANCH  28  29
ENDBRANCH  18  28
ENDBRANCH   1  18
TORSDOF 10
