REMARK  Name = *****
REMARK                            x       y       z     vdW  Elec       q    Type
REMARK                         _______ _______ _______ _____ _____    ______ ____
ROOT
ATOM      1  C   LIG    1       -4.265   0.160   1.473  0.00  0.00    +0.167 C 
ATOM      2  N   LIG    1       -5.174  -0.961   1.706  0.00  0.00    -0.233 N 
ATOM      3  C   LIG    1       -6.277  -0.907   2.620  0.00  0.00    +0.269 C 
ATOM      4  O   LIG    1       -6.225  -2.115   3.374  0.00  0.00    -0.298 OA
ATOM      5  C   LIG    1       -5.588  -3.137   2.549  0.00  0.00    +0.220 C 
ATOM      6  C   LIG    1       -6.289   0.391   3.466  0.00  0.00    +0.156 C 
ATOM      7  N   LIG    1       -4.976   0.960   3.724  0.00  0.00    -0.290 N 
ATOM      8  C   LIG    1       -4.974   1.769   4.934  0.00  0.00    +0.108 C 
ATOM      9  C   LIG    1       -6.412   1.681   5.447  0.00  0.00    +0.021 C 
ATOM     10  C   LIG    1       -6.924   0.362   4.856  0.00  0.00    +0.031 C 
ATOM     11  C   LIG    1       -4.636  -2.236   1.755  0.00  0.00    +0.271 C 
ATOM     12  O   LIG    1       -3.567  -2.550   1.238  0.00  0.00    -0.270 OA
ATOM     13  C   LIG    1       -4.008   1.028   2.744  0.00  0.00    +0.237 C 
ATOM     14  O   LIG    1       -3.046   1.789   2.832  0.00  0.00    -0.274 OA
ENDROOT
BRANCH   5  15
ATOM     15  N   LIG    1       -6.649  -3.705   1.724  0.00  0.00    -0.280 N 
ATOM     16  H   LIG    1       -7.535  -3.824   2.196  0.00  0.00    +0.152 HD
ATOM     17  C   LIG    1       -6.383  -4.451   0.599  0.00  0.00    +0.220 C 
ATOM     18  O   LIG    1       -5.237  -4.636   0.199  0.00  0.00    -0.275 OA
BRANCH  17  19
ATOM     19  C   LIG    1       -7.571  -4.876  -0.258  0.00  0.00    +0.090 C 
ATOM     20  C   LIG    1       -7.090  -5.962  -1.245  0.00  0.00    +0.097 C 
ATOM     21  N   LIG    1       -8.166  -6.447  -2.119  0.00  0.00    -0.301 NA
ATOM     22  C   LIG    1       -7.649  -7.369  -3.128  0.00  0.00    +0.105 C 
ATOM     23  C   LIG    1       -9.310  -6.999  -1.361  0.00  0.00    +0.068 C 
ATOM     24  C   LIG    1       -9.882  -5.863  -0.421  0.00  0.00    +0.038 C 
ATOM     25  C   LIG    1      -11.063  -6.360   0.378  0.00  0.00    -0.033 C 
ATOM     26  C   LIG    1      -11.120  -7.729   0.652  0.00  0.00    +0.006 C 
ATOM     27  C   LIG    1      -12.135  -8.292   1.397  0.00  0.00    +0.047 C 
ATOM     28  N   LIG    1      -11.856  -9.641   1.445  0.00  0.00    -0.360 NA
ATOM     29  H   LIG    1      -12.424 -10.328   1.921  0.00  0.00    +0.165 HD
ATOM     30  C   LIG    1      -10.696  -9.919   0.747  0.00  0.00    +0.087 C 
ATOM     31  C   LIG    1      -13.166  -7.511   1.922  0.00  0.00    +0.026 C 
ATOM     32  C   LIG    1      -13.114  -6.130   1.657  0.00  0.00    +0.002 C 
ATOM     33  C   LIG    1      -10.223  -8.733   0.234  0.00  0.00    -0.021 C 
ATOM     34  C   LIG    1      -12.081  -5.558   0.903  0.00  0.00    +0.005 C 
ATOM     35  C   LIG    1       -9.043  -8.365  -0.607  0.00  0.00    +0.056 C 
ATOM     36  C   LIG    1       -8.793  -5.339   0.529  0.00  0.00    +0.023 C 
ENDBRANCH  17  19
ENDBRANCH   5  15
BRANCH   5  37
ATOM     37  C   LIG    1       -4.835  -4.121   3.477  0.00  0.00    +0.043 C 
ATOM     38  C   LIG    1       -5.735  -4.729   4.558  0.00  0.00    +0.012 C 
ATOM     39  C   LIG    1       -4.106  -5.248   2.744  0.00  0.00    +0.012 C 
ENDBRANCH   5  37
BRANCH   3  40
ATOM     40  O   LIG    1       -7.468  -0.916   1.853  0.00  0.00    -0.348 OA
ATOM     41  H   LIG    1       -7.217  -1.372   1.035  0.00  0.00    +0.214 HD
ENDBRANCH   3  40
BRANCH   1  42
ATOM     42  C   LIG    1       -4.668   1.027   0.270  0.00  0.00    +0.035 C 
BRANCH  42  44
ATOM     43  C   LIG    1       -5.312   1.295  -2.149  0.00  0.00    +0.007 C 
ATOM     44  C   LIG    1       -4.939   0.281  -1.062  0.00  0.00    -0.015 C 
ATOM     45  C   LIG    1       -3.760  -0.553  -1.577  0.00  0.00    +0.007 C 
ENDBRANCH  42  44
ENDBRANCH   1  42
TORSDOF 6
