REMARK  Name = *****
REMARK                            x       y       z     vdW  Elec       q    Type
REMARK                         _______ _______ _______ _____ _____    ______ ____
ROOT
ATOM      1  C   LIG    1        3.397  -0.575  -2.675  0.00  0.00    +0.179 C 
ENDROOT
BRANCH   1   4
ATOM      2  C   LIG    1        2.968   1.892  -0.747  0.00  0.00    +0.044 C 
ATOM      3  C   LIG    1        4.264   1.569  -1.439  0.00  0.00    -0.044 A 
ATOM      4  C   LIG    1        4.496   0.406  -2.210  0.00  0.00    -0.012 A 
ATOM      5  C   LIG    1        5.830   0.151  -2.616  0.00  0.00    +0.007 A 
ATOM      6  C   LIG    1        6.889   0.991  -2.266  0.00  0.00    +0.000 A 
ATOM      7  C   LIG    1        6.636   2.164  -1.577  0.00  0.00    +0.000 A 
ATOM      8  C   LIG    1        5.334   2.456  -1.178  0.00  0.00    +0.003 A 
ENDBRANCH   1   4
BRANCH   1   9
ATOM      9  C   LIG    1        3.348  -1.939  -1.973  0.00  0.00    -0.015 A 
ATOM     10  C   LIG    1        2.150  -2.670  -2.002  0.00  0.00    +0.006 A 
ATOM     11  C   LIG    1        2.121  -4.041  -1.744  0.00  0.00    +0.000 A 
ATOM     12  C   LIG    1        3.298  -4.695  -1.365  0.00  0.00    +0.000 A 
ATOM     13  C   LIG    1        4.454  -3.958  -1.178  0.00  0.00    +0.000 A 
ATOM     14  C   LIG    1        4.490  -2.593  -1.469  0.00  0.00    +0.006 A 
ENDBRANCH   1   9
BRANCH   1  15
ATOM     15  O   LIG    1        3.602  -0.740  -4.105  0.00  0.00    -0.366 OA
BRANCH  15  16
ATOM     16  C   LIG    1        2.598  -1.474  -4.809  0.00  0.00    +0.176 C 
BRANCH  16  17
ATOM     17  C   LIG    1        2.825  -1.498  -6.341  0.00  0.00    +0.112 C 
BRANCH  17  18
ATOM     18  N   LIG    1        2.736  -0.246  -7.113  0.00  0.00    -0.306 NA
ATOM     19  C   LIG    1        3.812   0.681  -6.775  0.00  0.00    +0.104 C 
ATOM     20  C   LIG    1        1.438   0.405  -7.002  0.00  0.00    +0.104 C 
ENDBRANCH  17  18
ENDBRANCH  16  17
ENDBRANCH  15  16
ENDBRANCH   1  15
TORSDOF 6
