REMARK  Name = *****
REMARK                            x       y       z     vdW  Elec       q    Type
REMARK                         _______ _______ _______ _____ _____    ______ ____
ROOT
ATOM      1  C   LIG    1        1.170   0.747   1.050  0.00  0.00    +0.044 C 
ATOM      2  C   LIG    1        2.613   0.522   0.687  0.00  0.00    -0.047 A 
ATOM      3  C   LIG    1        3.099  -0.731   0.268  0.00  0.00    -0.039 A 
ATOM      4  C   LIG    1        4.456  -0.854  -0.108  0.00  0.00    +0.010 A 
ATOM      5  C   LIG    1        5.346   0.237  -0.080  0.00  0.00    -0.016 A 
ATOM      6  C   LIG    1        4.837   1.467   0.354  0.00  0.00    +0.006 A 
ATOM      7  C   LIG    1        3.496   1.608   0.725  0.00  0.00    +0.004 A 
ENDROOT
BRANCH   5   8
ATOM      8  C   LIG    1        6.740   0.087  -0.685  0.00  0.00    +0.180 C 
ATOM      9  C   LIG    1        7.738   1.272  -0.606  0.00  0.00    +0.179 C 
ATOM     10  C   LIG    1        8.577   1.243   0.676  0.00  0.00    +0.177 C 
ATOM     11  C   LIG    1        9.263  -0.118   0.821  0.00  0.00    +0.176 C 
ATOM     12  C   LIG    1        8.272  -1.288   0.689  0.00  0.00    +0.175 C 
ATOM     13  O   LIG    1        7.354  -1.186  -0.415  0.00  0.00    -0.361 OA
BRANCH   9  14
ATOM     14  O   LIG    1        8.648   1.203  -1.731  0.00  0.00    -0.386 OA
ATOM     15  H   LIG    1        8.115   1.340  -2.537  0.00  0.00    +0.210 HD
ENDBRANCH   9  14
BRANCH  10  16
ATOM     16  O   LIG    1        7.782   1.548   1.818  0.00  0.00    -0.387 OA
ATOM     17  H   LIG    1        8.386   1.653   2.576  0.00  0.00    +0.210 HD
ENDBRANCH  10  16
BRANCH  11  18
ATOM     18  O   LIG    1       10.299  -0.248  -0.164  0.00  0.00    -0.387 OA
ATOM     19  H   LIG    1        9.924   0.060  -1.018  0.00  0.00    +0.210 HD
ENDBRANCH  11  18
BRANCH  12  20
ATOM     20  C   LIG    1        7.521  -1.577   1.997  0.00  0.00    +0.190 C 
BRANCH  20  21
ATOM     21  O   LIG    1        6.812  -2.812   1.889  0.00  0.00    -0.392 OA
ATOM     22  H   LIG    1        6.366  -2.787   1.021  0.00  0.00    +0.209 HD
ENDBRANCH  20  21
ENDBRANCH  12  20
ENDBRANCH   5   8
BRANCH   3  23
ATOM     23  C   LIG    1        2.209  -1.960   0.206  0.00  0.00    +0.078 C 
BRANCH  23  24
ATOM     24  C   LIG    1        2.157  -2.751   1.486  0.00  0.00    -0.005 A 
ATOM     25  S   LIG    1        0.715  -3.571   1.908  0.00  0.00    -0.093 S 
ATOM     26  C   LIG    1        1.381  -4.189   3.367  0.00  0.00    +0.020 A 
ATOM     27  C   LIG    1        2.695  -3.786   3.511  0.00  0.00    +0.016 A 
ATOM     28  C   LIG    1        3.143  -2.967   2.431  0.00  0.00    +0.012 A 
BRANCH  26  29
ATOM     29  C   LIG    1        0.554  -5.001   4.286  0.00  0.00    -0.011 A 
ATOM     30  C   LIG    1        0.783  -4.934   5.672  0.00  0.00    +0.012 A 
ATOM     31  C   LIG    1        0.007  -5.687   6.570  0.00  0.00    +0.039 A 
ATOM     32  C   LIG    1       -0.993  -6.503   6.078  0.00  0.00    +0.123 A 
ATOM     33  F   LIG    1       -1.740  -7.218   6.938  0.00  0.00    -0.205 F 
ATOM     34  C   LIG    1       -1.238  -6.597   4.715  0.00  0.00    +0.039 A 
ATOM     35  C   LIG    1       -0.462  -5.849   3.820  0.00  0.00    +0.012 A 
ENDBRANCH  26  29
ENDBRANCH  23  24
ENDBRANCH   3  23
TORSDOF 9
