REMARK  Name = *****
REMARK                            x       y       z     vdW  Elec       q    Type
REMARK                         _______ _______ _______ _____ _____    ______ ____
ROOT
ATOM      1  C   LIG    1       -6.184  -0.125   4.559  0.00  0.00    +0.064 A 
ATOM      2  C   LIG    1       -5.479  -1.065   5.372  0.00  0.00    +0.049 A 
ATOM      3  I   LIG    1       -7.174  -2.839   5.546  0.00  0.00    -0.041 I 
ATOM      4  C   LIG    1       -4.344  -1.718   4.915  0.00  0.00    +0.065 A 
ATOM      5  C   LIG    1       -3.998  -1.520   3.547  0.00  0.00    +0.040 A 
ATOM      6  I   LIG    1       -4.781  -3.770   2.676  0.00  0.00    -0.042 I 
ATOM      7  C   LIG    1       -4.565  -0.525   2.730  0.00  0.00    +0.065 A 
ATOM      8  C   LIG    1       -5.773   0.014   3.197  0.00  0.00    +0.049 A 
ATOM      9  I   LIG    1       -7.288  -1.007   1.597  0.00  0.00    -0.041 I 
ENDROOT
BRANCH   4  10
ATOM     10  C   LIG    1       -3.153  -2.146   5.731  0.00  0.00    +0.246 C 
ATOM     11  N   LIG    1       -3.328  -2.757   6.967  0.00  0.00    -0.309 N 
ATOM     12  H   LIG    1       -2.413  -2.946   7.354  0.00  0.00    +0.149 HD
ATOM     13  O   LIG    1       -2.033  -1.965   5.341  0.00  0.00    -0.270 OA
BRANCH  11  14
ATOM     14  C   LIG    1       -4.496  -3.241   7.689  0.00  0.00    +0.138 C 
BRANCH  14  15
ATOM     15  C   LIG    1       -4.152  -3.899   9.031  0.00  0.00    +0.157 C 
BRANCH  15  16
ATOM     16  O   LIG    1       -3.317  -2.965   9.739  0.00  0.00    -0.388 OA
ATOM     17  H   LIG    1       -2.466  -2.913   9.271  0.00  0.00    +0.210 HD
ENDBRANCH  15  16
BRANCH  15  18
ATOM     18  C   LIG    1       -3.393  -5.237   8.898  0.00  0.00    +0.188 C 
BRANCH  18  19
ATOM     19  O   LIG    1       -4.107  -6.449   8.694  0.00  0.00    -0.392 OA
ATOM     20  H   LIG    1       -5.049  -6.324   8.508  0.00  0.00    +0.209 HD
ENDBRANCH  18  19
ENDBRANCH  15  18
ENDBRANCH  14  15
ENDBRANCH  11  14
ENDBRANCH   4  10
BRANCH   1  23
ATOM     21  C   LIG    1       -8.991   2.442   4.694  0.00  0.00    +0.110 C 
ATOM     22  C   LIG    1       -8.228   1.174   4.521  0.00  0.00    +0.217 C 
ATOM     23  N   LIG    1       -7.004   0.931   5.159  0.00  0.00    -0.267 N 
ATOM     24  O   LIG    1       -8.766   0.326   3.813  0.00  0.00    -0.276 OA
BRANCH  23  25
ATOM     25  C   LIG    1       -6.436   1.652   6.375  0.00  0.00    +0.147 C 
BRANCH  25  26
ATOM     26  C   LIG    1       -7.237   2.853   6.920  0.00  0.00    +0.158 C 
BRANCH  26  27
ATOM     27  O   LIG    1       -7.100   3.970   6.032  0.00  0.00    -0.388 OA
ATOM     28  H   LIG    1       -7.771   4.619   6.334  0.00  0.00    +0.210 HD
ENDBRANCH  26  27
BRANCH  26  29
ATOM     29  C   LIG    1       -6.905   3.417   8.291  0.00  0.00    +0.188 C 
BRANCH  29  30
ATOM     30  O   LIG    1       -7.867   4.469   8.514  0.00  0.00    -0.392 OA
ATOM     31  H   LIG    1       -7.832   4.716   9.453  0.00  0.00    +0.209 HD
ENDBRANCH  29  30
ENDBRANCH  26  29
ENDBRANCH  25  26
ENDBRANCH  23  25
ENDBRANCH   1  23
BRANCH   7  32
ATOM     32  C   LIG    1       -3.950   0.267   1.591  0.00  0.00    +0.246 C 
ATOM     33  N   LIG    1       -2.736  -0.023   0.991  0.00  0.00    -0.309 N 
ATOM     34  H   LIG    1       -2.591   0.570   0.177  0.00  0.00    +0.149 HD
ATOM     35  O   LIG    1       -4.543   1.253   1.169  0.00  0.00    -0.270 OA
BRANCH  33  36
ATOM     36  C   LIG    1       -1.625  -0.900   1.328  0.00  0.00    +0.138 C 
BRANCH  36  37
ATOM     37  C   LIG    1       -2.015  -2.352   1.407  0.00  0.00    +0.157 C 
BRANCH  37  38
ATOM     38  O   LIG    1       -2.662  -2.783   0.218  0.00  0.00    -0.388 OA
ATOM     39  H   LIG    1       -2.592  -3.757   0.213  0.00  0.00    +0.210 HD
ENDBRANCH  37  38
BRANCH  37  40
ATOM     40  C   LIG    1       -0.959  -3.319   1.893  0.00  0.00    +0.188 C 
BRANCH  40  41
ATOM     41  O   LIG    1       -1.514  -4.623   2.090  0.00  0.00    -0.392 OA
ATOM     42  H   LIG    1       -0.939  -5.074   2.735  0.00  0.00    +0.209 HD
ENDBRANCH  40  41
ENDBRANCH  37  40
ENDBRANCH  36  37
ENDBRANCH  33  36
ENDBRANCH   7  32
TORSDOF 18
