REMARK  Name = *****
REMARK                            x       y       z     vdW  Elec       q    Type
REMARK                         _______ _______ _______ _____ _____    ______ ____
ROOT
ATOM      1  C   LIG    1       16.933   2.655  -3.061  0.00  0.00    +0.064 A 
ATOM      2  C   LIG    1       16.197   2.387  -1.900  0.00  0.00    +0.049 A 
ATOM      3  I   LIG    1       17.686   0.556  -1.070  0.00  0.00    -0.041 I 
ATOM      4  C   LIG    1       15.941   3.398  -0.899  0.00  0.00    +0.065 A 
ATOM      5  C   LIG    1       16.595   4.659  -1.085  0.00  0.00    +0.040 A 
ATOM      6  I   LIG    1       16.974   5.898   0.665  0.00  0.00    -0.042 I 
ATOM      7  C   LIG    1       17.469   4.869  -2.176  0.00  0.00    +0.065 A 
ATOM      8  C   LIG    1       17.774   3.767  -2.974  0.00  0.00    +0.049 A 
ATOM      9  I   LIG    1       20.004   3.164  -2.426  0.00  0.00    -0.041 I 
ENDROOT
BRANCH   4  10
ATOM     10  C   LIG    1       14.613   3.335  -0.080  0.00  0.00    +0.246 C 
ATOM     11  N   LIG    1       14.129   2.123   0.426  0.00  0.00    -0.309 N 
ATOM     12  H   LIG    1       13.206   2.097   0.847  0.00  0.00    +0.149 HD
ATOM     13  O   LIG    1       13.926   4.343   0.089  0.00  0.00    -0.270 OA
BRANCH  11  14
ATOM     14  C   LIG    1       14.872   0.928   0.247  0.00  0.00    +0.138 C 
BRANCH  14  15
ATOM     15  C   LIG    1       14.560  -0.461   0.765  0.00  0.00    +0.157 C 
BRANCH  15  16
ATOM     16  O   LIG    1       13.315  -0.901   0.246  0.00  0.00    -0.388 OA
ATOM     17  H   LIG    1       13.166  -1.801   0.581  0.00  0.00    +0.210 HD
ENDBRANCH  15  16
BRANCH  15  18
ATOM     18  C   LIG    1       14.661  -0.546   2.275  0.00  0.00    +0.188 C 
BRANCH  18  19
ATOM     19  O   LIG    1       15.962  -0.169   2.712  0.00  0.00    -0.392 OA
ATOM     20  H   LIG    1       16.011  -0.340   3.668  0.00  0.00    +0.209 HD
ENDBRANCH  18  19
ENDBRANCH  15  18
ENDBRANCH  14  15
ENDBRANCH  11  14
ENDBRANCH   4  10
BRANCH   1  23
ATOM     21  C   LIG    1       16.566   2.684  -6.835  0.00  0.00    +0.110 C 
ATOM     22  C   LIG    1       17.180   2.769  -5.476  0.00  0.00    +0.217 C 
ATOM     23  N   LIG    1       16.551   2.155  -4.374  0.00  0.00    -0.267 N 
ATOM     24  O   LIG    1       18.230   3.414  -5.406  0.00  0.00    -0.276 OA
BRANCH  23  25
ATOM     25  C   LIG    1       15.472   1.108  -4.503  0.00  0.00    +0.147 C 
BRANCH  25  26
ATOM     26  C   LIG    1       14.015   1.621  -4.339  0.00  0.00    +0.158 C 
BRANCH  26  27
ATOM     27  O   LIG    1       13.713   2.549  -5.386  0.00  0.00    -0.388 OA
ATOM     28  H   LIG    1       12.824   2.896  -5.190  0.00  0.00    +0.210 HD
ENDBRANCH  26  27
BRANCH  26  29
ATOM     29  C   LIG    1       12.917   0.539  -4.384  0.00  0.00    +0.188 C 
BRANCH  29  30
ATOM     30  O   LIG    1       11.640   1.181  -4.223  0.00  0.00    -0.392 OA
ATOM     31  H   LIG    1       11.319   1.447  -5.103  0.00  0.00    +0.209 HD
ENDBRANCH  29  30
ENDBRANCH  26  29
ENDBRANCH  25  26
ENDBRANCH  23  25
ENDBRANCH   1  23
BRANCH   7  32
ATOM     32  C   LIG    1       17.889   6.145  -2.857  0.00  0.00    +0.246 C 
ATOM     33  N   LIG    1       17.705   7.305  -2.134  0.00  0.00    -0.309 N 
ATOM     34  H   LIG    1       17.372   7.257  -1.182  0.00  0.00    +0.149 HD
ATOM     35  O   LIG    1       18.317   6.153  -3.972  0.00  0.00    -0.270 OA
BRANCH  33  36
ATOM     36  C   LIG    1       18.000   8.619  -2.686  0.00  0.00    +0.138 C 
BRANCH  36  37
ATOM     37  C   LIG    1       19.025   9.356  -1.812  0.00  0.00    +0.157 C 
BRANCH  37  38
ATOM     38  O   LIG    1       20.291   8.688  -1.840  0.00  0.00    -0.388 OA
ATOM     39  H   LIG    1       20.137   7.784  -1.509  0.00  0.00    +0.210 HD
ENDBRANCH  37  38
BRANCH  37  40
ATOM     40  C   LIG    1       19.207  10.796  -2.292  0.00  0.00    +0.188 C 
BRANCH  40  41
ATOM     41  O   LIG    1       17.989  11.525  -2.183  0.00  0.00    -0.392 OA
ATOM     42  H   LIG    1       18.126  12.368  -2.651  0.00  0.00    +0.209 HD
ENDBRANCH  40  41
ENDBRANCH  37  40
ENDBRANCH  36  37
ENDBRANCH  33  36
ENDBRANCH   7  32
TORSDOF 18
