REMARK  Name = *****
REMARK                            x       y       z     vdW  Elec       q    Type
REMARK                         _______ _______ _______ _____ _____    ______ ____
ROOT
ATOM      1 CL   LIG    1        0.845  -0.984   0.855  0.00  0.00    -0.084 Cl
ATOM      2  C   LIG    1        2.524  -0.717   0.593  0.00  0.00    +0.042 A 
ATOM      3  C   LIG    1        3.016   0.585   0.533  0.00  0.00    +0.039 A 
ATOM      4  C   LIG    1        4.382   0.804   0.310  0.00  0.00    +0.109 A 
ATOM      5  C   LIG    1        4.876   2.212   0.176  0.00  0.00    +0.325 C 
ATOM      6  N   LIG    1        6.000   2.632   0.689  0.00  0.00    -0.038 NA
ATOM      7  C   LIG    1        6.901   1.813   1.383  0.00  0.00    +0.218 A 
ATOM      8  C   LIG    1        7.223   0.499   1.020  0.00  0.00    +0.179 A 
ATOM      9  O   LIG    1        6.592  -0.143  -0.021  0.00  0.00    -0.451 OA
ATOM     10  C   LIG    1        8.222  -0.215   1.690  0.00  0.00    +0.051 A 
ATOM     11  C   LIG    1        8.897   0.372   2.757  0.00  0.00    +0.004 A 
ATOM     12  C   LIG    1        8.582   1.674   3.142  0.00  0.00    +0.004 A 
ATOM     13  C   LIG    1        7.599   2.388   2.451  0.00  0.00    +0.059 A 
ATOM     14  C   LIG    1        5.243  -0.286   0.179  0.00  0.00    +0.144 A 
ATOM     15  C   LIG    1        4.742  -1.591   0.217  0.00  0.00    +0.048 A 
ATOM     16  C   LIG    1        3.379  -1.806   0.428  0.00  0.00    +0.023 A 
ENDROOT
BRANCH   5  17
ATOM     17  N   LIG    1        4.057   3.126  -0.505  0.00  0.00    -0.217 N 
ATOM     18  C   LIG    1        4.349   4.572  -0.367  0.00  0.00    +0.241 C 
ATOM     19  C   LIG    1        5.363   5.040  -1.435  0.00  0.00    +0.124 C 
ATOM     20  N   LIG    1        4.923   4.746  -2.819  0.00  0.00    -0.309 NA
ATOM     21  H   LIG    1        4.059   5.259  -2.992  0.00  0.00    +0.122 HD
ATOM     22  C   LIG    1        4.636   3.300  -2.922  0.00  0.00    +0.124 C 
ATOM     23  C   LIG    1        3.609   2.803  -1.879  0.00  0.00    +0.241 C 
ENDBRANCH   5  17
TORSDOF 1
