REMARK  Name = *****
REMARK                            x       y       z     vdW  Elec       q    Type
REMARK                         _______ _______ _______ _____ _____    ______ ____
ROOT
ATOM      1  N   LIG    1        5.973   1.762  -0.860  0.00  0.00    -0.266 N 
ATOM      2  C   LIG    1        6.474   0.458  -0.976  0.00  0.00    +0.271 C 
ATOM      3  O   LIG    1        5.723  -0.521  -1.060  0.00  0.00    -0.270 OA
ATOM      4  C   LIG    1        8.019   0.278  -1.047  0.00  0.00    +0.320 C 
ATOM      5  N   LIG    1        8.539   0.411   0.313  0.00  0.00    -0.243 NA
ATOM      6  C   LIG    1        8.472   1.576   0.869  0.00  0.00    +0.081 C 
ATOM      7  C   LIG    1        8.021   2.809   0.143  0.00  0.00    +0.024 A 
ATOM      8  C   LIG    1        8.884   3.918   0.227  0.00  0.00    +0.032 A 
ATOM      9  C   LIG    1        8.499   5.144  -0.300  0.00  0.00    +0.042 A 
ATOM     10 CL   LIG    1        9.535   6.506  -0.142  0.00  0.00    -0.084 Cl
ATOM     11  C   LIG    1        7.280   5.271  -0.952  0.00  0.00    +0.022 A 
ATOM     12  C   LIG    1        6.456   4.152  -1.111  0.00  0.00    +0.025 A 
ATOM     13  C   LIG    1        6.811   2.893  -0.588  0.00  0.00    +0.046 A 
ENDROOT
BRANCH   6  14
ATOM     14  C   LIG    1        8.907   1.683   2.310  0.00  0.00    +0.036 A 
ATOM     15  C   LIG    1        8.362   2.639   3.174  0.00  0.00    +0.133 A 
ATOM     16  F   LIG    1        7.428   3.502   2.751  0.00  0.00    -0.205 F 
ATOM     17  C   LIG    1        8.759   2.719   4.510  0.00  0.00    +0.039 A 
ATOM     18  C   LIG    1        9.698   1.823   5.013  0.00  0.00    +0.003 A 
ATOM     19  C   LIG    1       10.243   0.853   4.173  0.00  0.00    +0.001 A 
ATOM     20  C   LIG    1        9.853   0.782   2.828  0.00  0.00    +0.013 A 
ENDBRANCH   6  14
BRANCH   4  21
ATOM     21  O   LIG    1        8.687   1.053  -2.023  0.00  0.00    -0.364 OA
ATOM     22  H   LIG    1        9.617   1.020  -1.744  0.00  0.00    +0.212 HD
ENDBRANCH   4  21
BRANCH   1  23
ATOM     23  C   LIG    1        4.512   1.927  -0.990  0.00  0.00    +0.128 C 
BRANCH  23  24
ATOM     24  C   LIG    1        3.951   1.458  -2.341  0.00  0.00    +0.138 C 
BRANCH  24  26
ATOM     25  N   LIG    1        1.373   1.955  -2.506  0.00  0.00    -0.197 NA
ATOM     26  C   LIG    1        2.517   1.732  -2.431  0.00  0.00    +0.064 C 
ENDBRANCH  24  26
ENDBRANCH  23  24
ENDBRANCH   1  23
TORSDOF 5
