REMARK  Name = *****
REMARK                            x       y       z     vdW  Elec       q    Type
REMARK                         _______ _______ _______ _____ _____    ______ ____
ROOT
ATOM      1  C   LIG    1        2.779   0.423  -1.188  0.00  0.00    +0.144 C 
ATOM      2  C   LIG    1        1.742  -0.078  -2.197  0.00  0.00    +0.239 C 
ATOM      3  O   LIG    1        1.488  -1.270  -2.372  0.00  0.00    -0.274 OA
ATOM      4  N   LIG    1        1.083   0.862  -2.940  0.00  0.00    -0.239 N 
ATOM      5  H   LIG    1        0.396   0.513  -3.594  0.00  0.00    +0.159 HD
ATOM      6  C   LIG    1        1.101   2.207  -2.747  0.00  0.00    +0.312 C 
ATOM      7  O   LIG    1        0.327   2.950  -3.337  0.00  0.00    -0.252 OA
ATOM      8  N   LIG    1        1.988   2.681  -1.834  0.00  0.00    -0.239 N 
ATOM      9  H   LIG    1        1.959   3.674  -1.660  0.00  0.00    +0.159 HD
ATOM     10  C   LIG    1        2.748   1.938  -0.974  0.00  0.00    +0.239 C 
ATOM     11  O   LIG    1        3.365   2.510  -0.075  0.00  0.00    -0.274 OA
ENDROOT
BRANCH   1  12
ATOM     12  C   LIG    1        4.204   0.054  -1.737  0.00  0.00    -0.050 C 
ATOM     13  C   LIG    1        4.577   0.683  -3.082  0.00  0.00    +0.032 C 
ATOM     14  C   LIG    1        5.581  -0.085  -3.949  0.00  0.00    +0.004 C 
ATOM     15  C   LIG    1        7.037   0.070  -3.526  0.00  0.00    +0.001 C 
ATOM     16  C   LIG    1        7.290  -0.040  -2.030  0.00  0.00    +0.004 C 
ATOM     17  C   LIG    1        6.473  -1.133  -1.353  0.00  0.00    +0.027 C 
ATOM     18  C   LIG    1        5.039  -0.774  -1.067  0.00  0.00    -0.026 C 
ENDBRANCH   1  12
BRANCH   1  20
ATOM     19  C   LIG    1        1.066   0.101   0.753  0.00  0.00    +0.005 C 
ATOM     20  C   LIG    1        2.442  -0.241   0.186  0.00  0.00    +0.026 C 
ENDBRANCH   1  20
TORSDOF 2
