REMARK  Name = *****
REMARK                            x       y       z     vdW  Elec       q    Type
REMARK                         _______ _______ _______ _____ _____    ______ ____
ROOT
ATOM      1  C   LIG    1      -12.130  -0.546   1.791  0.00  0.00    +0.268 C 
ATOM      2  N   LIG    1      -10.905  -1.204   1.880  0.00  0.00    -0.296 N 
ATOM      3  H   LIG    1      -10.430  -1.419   1.007  0.00  0.00    +0.150 HD
ATOM      4  O   LIG    1      -12.659   0.019   2.736  0.00  0.00    -0.268 OA
ENDROOT
BRANCH   2   5
ATOM      5  CA  LIG    1      -10.181  -1.178   3.166  0.00  0.00    +0.191 C 
ATOM      6  C   LIG    1       -8.980  -2.111   3.442  0.00  0.00    +0.169 C 
ATOM      7  N   LIG    1       -8.185  -0.913   3.636  0.00  0.00    -0.249 N 
ATOM      8  CA  LIG    1       -6.918  -0.933   4.121  0.00  0.00    +0.128 C 
ATOM      9  C   LIG    1       -6.237  -2.115   4.090  0.00  0.00    +0.033 C 
ATOM     10  C   LIG    1       -6.655  -3.287   3.186  0.00  0.00    +0.110 C 
ATOM     11  S   LIG    1       -8.120  -2.987   2.126  0.00  0.00    -0.131 S 
ATOM     12  C   LIG    1       -9.153  -0.022   3.334  0.00  0.00    +0.244 C 
ATOM     13  O   LIG    1       -9.085   1.166   3.237  0.00  0.00    -0.273 OA
BRANCH   8  14
ATOM     14  C   LIG    1       -6.343   0.304   4.750  0.00  0.00    +0.352 C 
ATOM     15  O   LIG    1       -5.425   0.244   5.555  0.00  0.00    -0.244 OA
BRANCH  14  16
ATOM     16  OXT LIG    1       -6.849   1.484   4.380  0.00  0.00    -0.476 OA
ATOM     17  HXT LIG    1       -7.629   1.516   3.776  0.00  0.00    +0.295 HD
ENDBRANCH  14  16
ENDBRANCH   8  14
BRANCH   9  18
ATOM     18  C   LIG    1       -4.984  -2.424   4.908  0.00  0.00    +0.392 C 
BRANCH  18  19
ATOM     19  N   LIG    1       -5.388  -3.024   6.225  0.00  0.00    -0.200 N 
ATOM     20  C   LIG    1       -5.639  -2.225   7.293  0.00  0.00    +0.309 A 
ATOM     21  C   LIG    1       -6.115  -2.749   8.488  0.00  0.00    +0.070 A 
ATOM     22  C   LIG    1       -6.299  -4.117   8.606  0.00  0.00    +0.012 A 
ATOM     23  C   LIG    1       -5.984  -4.935   7.530  0.00  0.00    +0.070 A 
ATOM     24  C   LIG    1       -5.518  -4.368   6.347  0.00  0.00    +0.309 A 
ENDBRANCH  18  19
ENDBRANCH   9  18
ENDBRANCH   2   5
BRANCH   1  26
ATOM     25  N   LIG    1      -13.280   0.325  -0.253  0.00  0.00    -0.077 NA
ATOM     26  C   LIG    1      -12.809  -0.661   0.439  0.00  0.00    +0.190 C 
BRANCH  26  27
ATOM     27  C   LIG    1      -12.892  -1.951  -0.248  0.00  0.00    +0.107 A 
ATOM     28  N   LIG    1      -12.715  -1.994  -1.632  0.00  0.00    -0.223 NA
ATOM     29  C   LIG    1      -12.741  -3.221  -2.075  0.00  0.00    +0.156 A 
ATOM     30  S   LIG    1      -13.009  -4.417  -0.878  0.00  0.00    -0.060 S 
ATOM     31  C   LIG    1      -13.068  -3.194   0.330  0.00  0.00    +0.078 A 
BRANCH  29  32
ATOM     32  N   LIG    1      -12.515  -3.529  -3.359  0.00  0.00    -0.338 N 
ATOM     33  H   LIG    1      -12.119  -2.792  -3.933  0.00  0.00    +0.144 HD
ATOM     34  H   LIG    1      -12.202  -4.462  -3.595  0.00  0.00    +0.144 HD
ENDBRANCH  29  32
ENDBRANCH  26  27
BRANCH  25  35
ATOM     35  O   LIG    1      -13.148   1.627   0.259  0.00  0.00    -0.376 OA
BRANCH  35  37
ATOM     36  C   LIG    1      -13.025   2.326  -2.074  0.00  0.00    +0.070 C 
ATOM     37  C   LIG    1      -13.747   2.513  -0.724  0.00  0.00    +0.228 C 
ATOM     38  C   LIG    1      -15.234   2.140  -0.868  0.00  0.00    +0.070 C 
BRANCH  37  39
ATOM     39  C   LIG    1      -13.701   3.997  -0.296  0.00  0.00    +0.351 C 
ATOM     40  O   LIG    1      -14.161   4.479   0.729  0.00  0.00    -0.246 OA
BRANCH  39  41
ATOM     41  O   LIG    1      -13.164   4.828  -1.222  0.00  0.00    -0.478 OA
ATOM     42  H   LIG    1      -13.277   5.729  -0.855  0.00  0.00    +0.295 HD
ENDBRANCH  39  41
ENDBRANCH  37  39
ENDBRANCH  35  37
ENDBRANCH  25  35
ENDBRANCH   1  26
TORSDOF 12
