REMARK  Name = *****
REMARK                            x       y       z     vdW  Elec       q    Type
REMARK                         _______ _______ _______ _____ _____    ______ ____
ROOT
ATOM      1  C   LIG    1        2.837   2.862  -1.026  0.00  0.00    +0.011 C 
ATOM      2  C   LIG    1        1.543   2.451  -0.333  0.00  0.00    +0.026 C 
ATOM      3  C   LIG    1        1.338   2.964   1.107  0.00  0.00    +0.133 C 
ATOM      4  C   LIG    1        0.190   2.014   1.624  0.00  0.00    +0.014 C 
ATOM      5  C   LIG    1        0.667   0.622   1.109  0.00  0.00    +0.005 C 
ATOM      6  C   LIG    1       -0.385  -0.514   0.968  0.00  0.00    +0.039 C 
ATOM      7  C   LIG    1       -1.844  -0.048   1.080  0.00  0.00    +0.184 C 
ATOM      8  C   LIG    1       -1.911   1.279   0.338  0.00  0.00    +0.172 C 
ATOM      9  O   LIG    1       -2.466   1.442  -0.747  0.00  0.00    -0.294 OA
ATOM     10  F   LIG    1       -2.096   0.208   2.410  0.00  0.00    -0.232 F 
ATOM     11  C   LIG    1       -2.860  -1.158   0.658  0.00  0.00    +0.049 C 
ATOM     12  C   LIG    1       -2.572  -2.460   1.470  0.00  0.00    -0.053 C 
ATOM     13  C   LIG    1       -3.375  -3.525   1.231  0.00  0.00    +0.051 C 
ATOM     14  C   LIG    1       -3.303  -3.928  -0.227  0.00  0.00    +0.179 C 
ATOM     15  C   LIG    1       -3.005  -2.848  -1.216  0.00  0.00    +0.047 C 
ATOM     16  O   LIG    1       -3.551  -5.071  -0.585  0.00  0.00    -0.288 OA
ATOM     17  C   LIG    1       -1.107  -2.805   1.730  0.00  0.00    +0.032 C 
ATOM     18  C   LIG    1       -4.288  -0.640   0.972  0.00  0.00    +0.024 C 
ATOM     19  C   LIG    1       -2.825  -1.575  -0.817  0.00  0.00    -0.009 C 
ATOM     20  C   LIG    1       -0.176  -1.625   2.005  0.00  0.00    +0.011 C 
ATOM     21  C   LIG    1        0.099   2.056   3.163  0.00  0.00    +0.015 C 
ATOM     22  C   LIG    1       -1.197   2.425   1.030  0.00  0.00    +0.088 C 
ATOM     23  C   LIG    1        1.351   0.930  -0.253  0.00  0.00    +0.011 C 
ENDROOT
BRANCH   3  24
ATOM     24  O   LIG    1        0.870   4.308   1.080  0.00  0.00    -0.380 OA
ATOM     25  H   LIG    1        1.475   4.837   0.525  0.00  0.00    +0.211 HD
ENDBRANCH   3  24
BRANCH   3  26
ATOM     26  C   LIG    1        2.639   2.854   1.966  0.00  0.00    +0.180 C 
ATOM     27  O   LIG    1        3.356   1.849   1.946  0.00  0.00    -0.293 OA
BRANCH  26  28
ATOM     28  C   LIG    1        2.991   4.021   2.859  0.00  0.00    +0.186 C 
ATOM     29 CL   LIG    1        3.801   5.262   1.885  0.00  0.00    -0.117 Cl
ENDBRANCH  26  28
ENDBRANCH   3  26
TORSDOF 3
