REMARK  Name = *****
REMARK                            x       y       z     vdW  Elec       q    Type
REMARK                         _______ _______ _______ _____ _____    ______ ____
ROOT
ATOM      1  C   LIG    1        3.333   2.195   0.147  0.00  0.00    -0.006 C 
ATOM      2  C   LIG    1        3.540   0.775   0.670  0.00  0.00    +0.106 C 
ATOM      3  S   LIG    1        4.977   0.581   1.793  0.00  0.00    -0.131 S 
ATOM      4  C   LIG    1        6.048   1.508   0.676  0.00  0.00    +0.169 C 
ATOM      5  N   LIG    1        5.515   2.862   0.687  0.00  0.00    -0.249 N 
ATOM      6  C   LIG    1        6.620   3.459   1.182  0.00  0.00    +0.244 C 
ATOM      7  O   LIG    1        6.807   4.595   1.517  0.00  0.00    -0.273 OA
ATOM      8  CA  LIG    1        7.394   2.116   1.165  0.00  0.00    +0.191 C 
ATOM      9  CA  LIG    1        4.265   3.188   0.253  0.00  0.00    +0.124 C 
ENDROOT
BRANCH   8  10
ATOM     10  N   LIG    1        8.009   1.687   2.440  0.00  0.00    -0.296 N 
ATOM     11  H   LIG    1        7.975   2.284   3.263  0.00  0.00    +0.150 HD
ATOM     12  C   LIG    1        8.710   0.493   2.514  0.00  0.00    +0.268 C 
ATOM     13  O   LIG    1        8.797  -0.259   1.554  0.00  0.00    -0.268 OA
BRANCH  12  14
ATOM     14  C   LIG    1        9.389   0.202   3.872  0.00  0.00    +0.190 C 
ATOM     15  N   LIG    1       10.499  -0.472   4.010  0.00  0.00    -0.078 NA
BRANCH  14  16
ATOM     16  C   LIG    1        8.790   0.687   5.116  0.00  0.00    +0.107 A 
ATOM     17  N   LIG    1        7.418   0.898   5.227  0.00  0.00    -0.223 NA
ATOM     18  C   LIG    1        7.107   1.273   6.443  0.00  0.00    +0.156 A 
ATOM     19  S   LIG    1        8.436   1.502   7.503  0.00  0.00    -0.060 S 
ATOM     20  C   LIG    1        9.500   0.991   6.264  0.00  0.00    +0.078 A 
BRANCH  18  21
ATOM     21  N   LIG    1        5.845   1.466   6.854  0.00  0.00    -0.338 N 
ATOM     22  H   LIG    1        5.126   1.009   6.304  0.00  0.00    +0.144 HD
ATOM     23  H   LIG    1        5.667   1.454   7.852  0.00  0.00    +0.144 HD
ENDBRANCH  18  21
ENDBRANCH  14  16
BRANCH  15  24
ATOM     24  O   LIG    1       11.010  -0.916   2.785  0.00  0.00    -0.396 OA
ATOM     25  C   LIG    1       11.713  -2.135   2.997  0.00  0.00    +0.313 C 
ENDBRANCH  15  24
ENDBRANCH  12  14
ENDBRANCH   8  10
BRANCH   9  26
ATOM     26  C   LIG    1        3.954   4.610  -0.158  0.00  0.00    +0.351 C 
ATOM     27  O   LIG    1        3.059   4.917  -0.929  0.00  0.00    -0.244 OA
BRANCH  26  28
ATOM     28  OXT LIG    1        4.725   5.572   0.387  0.00  0.00    -0.476 OA
ATOM     29  HXT LIG    1        5.452   5.299   0.990  0.00  0.00    +0.295 HD
ENDBRANCH  26  28
ENDBRANCH   9  26
BRANCH   1  30
ATOM     30  C   LIG    1        1.963   2.357  -0.485  0.00  0.00    +0.193 C 
BRANCH  30  32
ATOM     31  C   LIG    1        0.832   2.094  -2.539  0.00  0.00    +0.194 C 
ATOM     32  O   LIG    1        2.067   1.935  -1.846  0.00  0.00    -0.379 OA
ENDBRANCH  30  32
ENDBRANCH   1  30
TORSDOF 9
