REMARK  Name = *****
REMARK                            x       y       z     vdW  Elec       q    Type
REMARK                         _______ _______ _______ _____ _____    ______ ____
ROOT
ATOM      1  C   LIG    1        4.486   1.016  -1.106  0.00  0.00    +0.268 C 
ENDROOT
BRANCH   1   2
ATOM      2  P   LIG    1        5.030   2.650  -1.711  0.00  0.00    +0.371 P 
ATOM      3  O   LIG    1        4.451   3.886  -1.102  0.00  0.00    -0.255 OA
BRANCH   2   4
ATOM      4  O   LIG    1        4.902   2.675  -3.306  0.00  0.00    -0.322 OA
ATOM      5  H   LIG    1        5.011   3.566  -3.688  0.00  0.00    +0.220 HD
ENDBRANCH   2   4
BRANCH   2   6
ATOM      6  O   LIG    1        6.625   2.677  -1.536  0.00  0.00    -0.322 OA
ATOM      7  H   LIG    1        6.996   3.577  -1.592  0.00  0.00    +0.220 HD
ENDBRANCH   2   6
ENDBRANCH   1   2
BRANCH   1   8
ATOM      8  P   LIG    1        5.413  -0.410  -1.800  0.00  0.00    +0.371 P 
ATOM      9  O   LIG    1        5.266  -0.766  -3.246  0.00  0.00    -0.255 OA
BRANCH   8  10
ATOM     10  O   LIG    1        5.072  -1.683  -0.878  0.00  0.00    -0.322 OA
ATOM     11  H   LIG    1        5.381  -2.523  -1.265  0.00  0.00    +0.220 HD
ENDBRANCH   8  10
BRANCH   8  12
ATOM     12  O   LIG    1        6.951  -0.225  -1.380  0.00  0.00    -0.322 OA
ATOM     13  H   LIG    1        7.555  -0.820  -1.867  0.00  0.00    +0.220 HD
ENDBRANCH   8  12
ENDBRANCH   1   8
BRANCH   1  14
ATOM     14  O   LIG    1        4.766   1.013   0.327  0.00  0.00    -0.367 OA
ATOM     15  H   LIG    1        5.741   0.991   0.405  0.00  0.00    +0.212 HD
ENDBRANCH   1  14
BRANCH   1  16
ATOM     16  C   LIG    1        2.973   0.776  -1.291  0.00  0.00    +0.075 C 
BRANCH  16  17
ATOM     17  C   LIG    1        2.079   1.846  -0.664  0.00  0.00    +0.081 C 
BRANCH  17  18
ATOM     18  N   LIG    1        0.669   1.507  -0.861  0.00  0.00    -0.330 NA
ATOM     19  H   LIG    1        0.456   0.627  -0.393  0.00  0.00    +0.118 HD
ATOM     20  H   LIG    1        0.095   2.213  -0.397  0.00  0.00    +0.118 HD
ENDBRANCH  17  18
ENDBRANCH  16  17
ENDBRANCH   1  16
TORSDOF 10
