REMARK  Name = *****
REMARK                            x       y       z     vdW  Elec       q    Type
REMARK                         _______ _______ _______ _____ _____    ______ ____
ROOT
ATOM      1  C   LIG    1        7.542  -0.338   4.127  0.00  0.00    +0.039 A 
ATOM      2  C   LIG    1        8.031  -1.573   4.663  0.00  0.00    +0.057 A 
ATOM      3  C   LIG    1        8.598  -1.611   5.966  0.00  0.00    +0.031 A 
ATOM      4  S   LIG    1        9.237  -3.118   6.685  0.00  0.00    -0.088 S 
ATOM      5  C   LIG    1        8.389  -4.374   5.783  0.00  0.00    +0.024 A 
ATOM      6  C   LIG    1        7.901  -4.172   4.496  0.00  0.00    +0.036 A 
ATOM      7  C   LIG    1        7.347  -5.256   3.789  0.00  0.00    +0.013 A 
ATOM      8  C   LIG    1        7.235  -6.513   4.385  0.00  0.00    +0.001 A 
ATOM      9  C   LIG    1        7.682  -6.703   5.688  0.00  0.00    +0.001 A 
ATOM     10  C   LIG    1        8.267  -5.641   6.378  0.00  0.00    +0.016 A 
ATOM     11  C   LIG    1        8.698  -0.420   6.730  0.00  0.00    -0.008 A 
ATOM     12  C   LIG    1        8.192   0.766   6.193  0.00  0.00    +0.009 A 
ATOM     13  C   LIG    1        7.933  -2.835   3.856  0.00  0.00    +0.197 A 
ATOM     14  O   LIG    1        7.800  -2.795   2.622  0.00  0.00    -0.286 OA
ATOM     15  C   LIG    1        7.674   0.809   4.911  0.00  0.00    +0.024 A 
ENDROOT
BRANCH   1  16
ATOM     16  N   LIG    1        7.009  -0.230   2.846  0.00  0.00    -0.342 N 
ATOM     17  H   LIG    1        6.624  -1.098   2.468  0.00  0.00    +0.146 HD
BRANCH  16  18
ATOM     18  C   LIG    1        6.555   1.013   2.218  0.00  0.00    +0.117 C 
BRANCH  18  19
ATOM     19  C   LIG    1        7.714   1.734   1.475  0.00  0.00    +0.103 C 
BRANCH  19  20
ATOM     20  N   LIG    1        7.413   3.063   0.868  0.00  0.00    -0.301 NA
BRANCH  20  22
ATOM     21  C   LIG    1        9.898   3.639   0.828  0.00  0.00    +0.020 C 
ATOM     22  C   LIG    1        8.568   3.560   0.081  0.00  0.00    +0.081 C 
ENDBRANCH  20  22
BRANCH  20  23
ATOM     23  C   LIG    1        6.194   3.020   0.034  0.00  0.00    +0.081 C 
ATOM     24  C   LIG    1        5.760   4.376  -0.525  0.00  0.00    +0.020 C 
ENDBRANCH  20  23
ENDBRANCH  19  20
ENDBRANCH  18  19
ENDBRANCH  16  18
ENDBRANCH   1  16
BRANCH  11  25
ATOM     25  C   LIG    1        9.271  -0.347   8.132  0.00  0.00    +0.192 C 
BRANCH  25  26
ATOM     26  O   LIG    1        9.876   0.924   8.386  0.00  0.00    -0.390 OA
ATOM     27  H   LIG    1       10.270   1.230   7.551  0.00  0.00    +0.210 HD
ENDBRANCH  25  26
ENDBRANCH  11  25
TORSDOF 8
