REMARK  Name = *****
REMARK                            x       y       z     vdW  Elec       q    Type
REMARK                         _______ _______ _______ _____ _____    ______ ____
ROOT
ATOM      1  C   LIG    1        2.180   4.478   1.305  0.00  0.00    +0.039 C 
ENDROOT
BRANCH   1   7
ATOM      2  C   LIG    1        6.450   3.227   1.931  0.00  0.00    +0.213 C 
ATOM      3  C   LIG    1        5.655   3.849   3.065  0.00  0.00    +0.227 C 
ATOM      4  O   LIG    1        6.082   3.859   4.219  0.00  0.00    -0.284 OA
ATOM      5  C   LIG    1        4.338   4.480   2.739  0.00  0.00    +0.007 C 
ATOM      6  C   LIG    1        3.960   5.571   3.694  0.00  0.00    +0.048 C 
ATOM      7  C   LIG    1        3.623   4.073   1.676  0.00  0.00    +0.010 C 
ATOM      8  C   LIG    1        4.290   3.105   0.760  0.00  0.00    +0.228 C 
ATOM      9  O   LIG    1        3.616   2.548  -0.076  0.00  0.00    -0.284 OA
ATOM     10  C   LIG    1        5.784   2.883   0.824  0.00  0.00    +0.213 C 
BRANCH   2  12
ATOM     11  C   LIG    1        8.661   2.198   1.623  0.00  0.00    +0.277 C 
ATOM     12  O   LIG    1        7.798   3.147   2.234  0.00  0.00    -0.488 OA
ENDBRANCH   2  12
BRANCH  10  13
ATOM     13  O   LIG    1        6.448   2.327  -0.261  0.00  0.00    -0.488 OA
ATOM     14  C   LIG    1        5.706   1.964  -1.409  0.00  0.00    +0.277 C 
ENDBRANCH  10  13
ENDBRANCH   1   7
BRANCH   1  15
ATOM     15  C   LIG    1        1.869   4.656  -0.206  0.00  0.00    +0.005 C 
BRANCH  15  16
ATOM     16  C   LIG    1        0.448   5.044  -0.639  0.00  0.00    +0.000 C 
BRANCH  16  17
ATOM     17  C   LIG    1       -0.128   6.362  -0.109  0.00  0.00    +0.000 C 
BRANCH  17  18
ATOM     18  C   LIG    1        0.675   7.598  -0.539  0.00  0.00    -0.000 C 
BRANCH  18  19
ATOM     19  C   LIG    1        0.151   8.983  -0.068  0.00  0.00    -0.000 C 
BRANCH  19  20
ATOM     20  C   LIG    1        0.040   9.191   1.461  0.00  0.00    -0.000 C 
BRANCH  20  21
ATOM     21  C   LIG    1       -0.507  10.585   1.898  0.00  0.00    -0.000 C 
BRANCH  21  22
ATOM     22  C   LIG    1       -0.633  10.721   3.437  0.00  0.00    +0.000 C 
BRANCH  22  23
ATOM     23  C   LIG    1       -1.135  12.084   3.971  0.00  0.00    +0.002 C 
BRANCH  23  24
ATOM     24  C   LIG    1       -2.561  12.525   3.604  0.00  0.00    +0.028 C 
BRANCH  24  25
ATOM     25  C   LIG    1       -3.660  11.568   4.054  0.00  0.00    +0.156 C 
BRANCH  25  26
ATOM     26  O   LIG    1       -3.534  10.320   3.395  0.00  0.00    -0.395 OA
ATOM     27  H   LIG    1       -4.132   9.694   3.834  0.00  0.00    +0.209 HD
ENDBRANCH  25  26
ENDBRANCH  24  25
ENDBRANCH  23  24
ENDBRANCH  22  23
ENDBRANCH  21  22
ENDBRANCH  20  21
ENDBRANCH  19  20
ENDBRANCH  18  19
ENDBRANCH  17  18
ENDBRANCH  16  17
ENDBRANCH  15  16
ENDBRANCH   1  15
TORSDOF 15
