REMARK  Name = *****
REMARK                            x       y       z     vdW  Elec       q    Type
REMARK                         _______ _______ _______ _____ _____    ______ ____
ROOT
ATOM      1  C   LIG    1        2.387   0.141   0.077  0.00  0.00    +0.159 A 
ATOM      2  C   LIG    1        3.138  -1.141   0.010  0.00  0.00    +0.179 A 
ATOM      3  F   LIG    1        2.454  -2.292   0.119  0.00  0.00    -0.200 F 
ATOM      4  C   LIG    1        4.452  -1.062  -0.170  0.00  0.00    +0.129 A 
ATOM      5  N   LIG    1        5.035   0.168  -0.279  0.00  0.00    -0.310 N 
ATOM      6  H   LIG    1        6.033   0.270  -0.411  0.00  0.00    +0.170 HD
ATOM      7  C   LIG    1        4.334   1.354  -0.214  0.00  0.00    +0.348 A 
ATOM      8  O   LIG    1        4.951   2.409  -0.321  0.00  0.00    -0.245 OA
ATOM      9  N   LIG    1        2.971   1.300  -0.039  0.00  0.00    -0.176 NA
ENDROOT
BRANCH   1  10
ATOM     10  N   LIG    1        1.028   0.142   0.256  0.00  0.00    -0.341 N 
ATOM     11  H   LIG    1        0.520  -0.681  -0.046  0.00  0.00    +0.144 HD
ATOM     12  H   LIG    1        0.590   1.025   0.017  0.00  0.00    +0.144 HD
ENDBRANCH   1  10
TORSDOF 1
