REMARK  Name = *****
REMARK                            x       y       z     vdW  Elec       q    Type
REMARK                         _______ _______ _______ _____ _____    ______ ____
ROOT
ATOM      1  C   LIG    1        9.240   9.481  -0.030  0.00  0.00    +0.185 C 
ATOM      2  O   LIG    1        8.885  10.207  -1.206  0.00  0.00    -0.334 OA
ATOM      3  C   LIG    1        8.522  11.540  -0.803  0.00  0.00    +0.217 C 
ATOM      4  O   LIG    1        8.865  11.673   0.604  0.00  0.00    -0.341 OA
ATOM      5  C   LIG    1        9.716  10.561   0.904  0.00  0.00    +0.198 C 
ENDROOT
BRANCH   3   6
ATOM      6  C   LIG    1        9.281  12.650  -1.554  0.00  0.00    +0.031 A 
ATOM      7  C   LIG    1       10.252  12.435  -2.555  0.00  0.00    +0.051 A 
ATOM      8 CL   LIG    1       10.658  10.891  -3.221  0.00  0.00    -0.083 Cl
ATOM      9  C   LIG    1       10.979  13.504  -3.103  0.00  0.00    +0.040 A 
ATOM     10  C   LIG    1       10.730  14.809  -2.703  0.00  0.00    +0.042 A 
ATOM     11 CL   LIG    1       11.652  16.097  -3.372  0.00  0.00    -0.084 Cl
ATOM     12  C   LIG    1        9.746  15.067  -1.760  0.00  0.00    +0.020 A 
ATOM     13  C   LIG    1        9.040  14.001  -1.185  0.00  0.00    +0.012 A 
ENDBRANCH   3   6
BRANCH   1  14
ATOM     14  C   LIG    1       10.306   8.418  -0.315  0.00  0.00    +0.263 C 
BRANCH  14  15
ATOM     15  O   LIG    1       10.654   7.748   0.905  0.00  0.00    -0.489 OA
BRANCH  15  19
ATOM     16  C   LIG    1       13.953   5.108   1.077  0.00  0.00    +0.030 A 
ATOM     17  C   LIG    1       13.712   5.879  -0.070  0.00  0.00    +0.027 A 
ATOM     18  C   LIG    1       12.630   6.766  -0.168  0.00  0.00    +0.047 A 
ATOM     19  C   LIG    1       11.755   6.932   0.896  0.00  0.00    +0.121 A 
ATOM     20  C   LIG    1       12.013   6.224   2.075  0.00  0.00    +0.047 A 
ATOM     21  C   LIG    1       13.098   5.326   2.167  0.00  0.00    +0.027 A 
BRANCH  16  27
ATOM     22  C   LIG    1       19.893   4.176   0.639  0.00  0.00    +0.109 C 
ATOM     23  C   LIG    1       18.748   3.532  -0.164  0.00  0.00    +0.213 C 
ATOM     24  N   LIG    1       17.661   3.143   0.591  0.00  0.00    -0.299 N 
ATOM     25  C   LIG    1       17.322   3.618   1.958  0.00  0.00    +0.126 C 
ATOM     26  C   LIG    1       16.157   4.637   1.926  0.00  0.00    +0.124 C 
ATOM     27  N   LIG    1       14.988   4.138   1.151  0.00  0.00    -0.327 N 
ATOM     28  C   LIG    1       15.346   3.529  -0.167  0.00  0.00    +0.124 C 
ATOM     29  C   LIG    1       16.510   2.529  -0.059  0.00  0.00    +0.126 C 
ATOM     30  O   LIG    1       18.839   3.373  -1.378  0.00  0.00    -0.276 OA
ENDBRANCH  16  27
ENDBRANCH  15  19
ENDBRANCH  14  15
ENDBRANCH   1  14
BRANCH   3  31
ATOM     31  C   LIG    1        6.976  11.677  -0.885  0.00  0.00    +0.193 C 
BRANCH  31  32
ATOM     32  N   LIG    1        6.369  11.556  -2.196  0.00  0.00    -0.331 N 
ATOM     33  C   LIG    1        6.717  10.690  -3.192  0.00  0.00    +0.199 A 
ATOM     34  N   LIG    1        5.935  10.814  -4.239  0.00  0.00    -0.244 NA
ATOM     35  C   LIG    1        5.015  11.764  -3.892  0.00  0.00    +0.130 A 
ATOM     36  C   LIG    1        5.249  12.225  -2.618  0.00  0.00    +0.107 A 
ENDBRANCH  31  32
ENDBRANCH   3  31
TORSDOF 7
