REMARK  Name = *****
REMARK                            x       y       z     vdW  Elec       q    Type
REMARK                         _______ _______ _______ _____ _____    ______ ____
ROOT
ATOM      1  C   LIG    1        2.038   0.670   1.318  0.00  0.00    +0.044 C 
ATOM      2  C   LIG    1        1.969  -0.081   0.011  0.00  0.00    -0.050 C 
ATOM      3  C   LIG    1        1.360   0.396  -1.091  0.00  0.00    +0.003 C 
ENDROOT
BRANCH   3   4
ATOM      4  C   LIG    1        0.627   1.633  -1.143  0.00  0.00    +0.001 C 
ATOM      5  C   LIG    1        0.398   2.295  -2.285  0.00  0.00    +0.003 C 
BRANCH   5   6
ATOM      6  C   LIG    1       -0.282   3.581  -2.355  0.00  0.00    -0.044 C 
ATOM      7  C   LIG    1       -0.959   3.879  -3.480  0.00  0.00    +0.094 C 
ATOM      8  C   LIG    1       -0.157   4.503  -1.164  0.00  0.00    +0.044 C 
BRANCH   7   9
ATOM      9  C   LIG    1       -1.720   5.131  -3.692  0.00  0.00    +0.330 C 
ATOM     10  O   LIG    1       -1.565   6.163  -3.079  0.00  0.00    -0.246 OA
BRANCH   9  11
ATOM     11  O   LIG    1       -2.638   4.986  -4.674  0.00  0.00    -0.477 OA
ATOM     12  H   LIG    1       -2.718   4.088  -5.046  0.00  0.00    +0.295 HD
ENDBRANCH   9  11
ENDBRANCH   7   9
ENDBRANCH   5   6
ENDBRANCH   3   4
BRANCH   2  13
ATOM     13  C   LIG    1        2.674  -1.346  -0.093  0.00  0.00    +0.003 C 
ATOM     14  C   LIG    1        2.880  -2.200   0.921  0.00  0.00    +0.004 C 
BRANCH  14  15
ATOM     15  C   LIG    1        3.570  -3.473   0.761  0.00  0.00    -0.043 C 
ATOM     16  C   LIG    1        2.725  -4.730   1.071  0.00  0.00    -0.010 C 
ATOM     17  C   LIG    1        1.947  -4.621   2.404  0.00  0.00    +0.016 C 
ATOM     18  C   LIG    1        1.698  -4.935  -0.067  0.00  0.00    +0.016 C 
ATOM     19  C   LIG    1        3.620  -5.992   1.188  0.00  0.00    +0.011 C 
ATOM     20  C   LIG    1        4.662  -6.067   0.085  0.00  0.00    +0.005 C 
ATOM     21  C   LIG    1        5.578  -4.852   0.135  0.00  0.00    +0.031 C 
ATOM     22  C   LIG    1        4.861  -3.538   0.350  0.00  0.00    -0.069 C 
ATOM     23  C   LIG    1        5.747  -2.349   0.055  0.00  0.00    +0.039 C 
ENDBRANCH  14  15
ENDBRANCH   2  13
TORSDOF 6
