REMARK  Name = *****
REMARK                            x       y       z     vdW  Elec       q    Type
REMARK                         _______ _______ _______ _____ _____    ______ ____
ROOT
ATOM      1  C   LIG    1       10.057   7.547  -1.533  0.00  0.00    +0.106 C 
ATOM      2  C   LIG    1       11.091   8.706  -1.470  0.00  0.00    +0.172 C 
ATOM      3  C   LIG    1       11.097   9.292  -0.025  0.00  0.00    +0.175 C 
ATOM      4  C   LIG    1       11.622   8.286   1.040  0.00  0.00    +0.169 C 
ATOM      5  C   LIG    1       11.486   6.814   0.534  0.00  0.00    +0.084 C 
ATOM      6  C   LIG    1       10.189   6.633  -0.289  0.00  0.00    +0.046 C 
ENDROOT
BRANCH   1   8
ATOM      7  C   LIG    1        8.159   9.025  -2.390  0.00  0.00    +0.242 C 
ATOM      8  N   LIG    1        8.606   7.964  -1.643  0.00  0.00    -0.308 N 
ATOM      9  H   LIG    1        7.968   7.156  -1.661  0.00  0.00    +0.149 HD
ATOM     10  O   LIG    1        8.880   9.878  -2.907  0.00  0.00    -0.273 OA
BRANCH   7  11
ATOM     11  C   LIG    1        6.666   9.103  -2.587  0.00  0.00    +0.201 C 
BRANCH  11  12
ATOM     12  O   LIG    1        6.211   8.002  -3.373  0.00  0.00    -0.383 OA
ATOM     13  H   LIG    1        6.521   8.188  -4.280  0.00  0.00    +0.210 HD
ENDBRANCH  11  12
BRANCH  11  14
ATOM     14  C   LIG    1        5.858   9.225  -1.284  0.00  0.00    +0.056 C 
BRANCH  14  15
ATOM     15  C   LIG    1        5.961   8.059  -0.305  0.00  0.00    +0.080 C 
BRANCH  15  16
ATOM     16  N   LIG    1        5.599   6.781  -0.914  0.00  0.00    -0.330 NA
ATOM     17  H   LIG    1        4.596   6.815  -1.118  0.00  0.00    +0.118 HD
ATOM     18  H   LIG    1        5.989   6.743  -1.871  0.00  0.00    +0.118 HD
ENDBRANCH  15  16
ENDBRANCH  14  15
ENDBRANCH  11  14
ENDBRANCH   7  11
ENDBRANCH   1   8
BRANCH   5  19
ATOM     19  N   LIG    1       11.431   5.815   1.629  0.00  0.00    -0.325 NA
ATOM     20  H   LIG    1       12.324   5.732   2.110  0.00  0.00    +0.118 HD
ATOM     21  H   LIG    1       11.308   4.886   1.218  0.00  0.00    +0.118 HD
ENDBRANCH   5  19
BRANCH   3  22
ATOM     22  O   LIG    1        9.793   9.754   0.388  0.00  0.00    -0.387 OA
ATOM     23  H   LIG    1        9.251   8.981   0.645  0.00  0.00    +0.210 HD
ENDBRANCH   3  22
BRANCH   4  24
ATOM     24  O   LIG    1       12.965   8.691   1.383  0.00  0.00    -0.341 OA
BRANCH  24  25
ATOM     25  C   LIG    1       13.616   7.967   2.432  0.00  0.00    +0.282 C 
ATOM     26  C   LIG    1       12.835   8.107   3.765  0.00  0.00    +0.201 C 
ATOM     27  C   LIG    1       13.612   7.559   4.967  0.00  0.00    +0.179 C 
ATOM     28  C   LIG    1       15.083   8.002   4.945  0.00  0.00    +0.175 C 
ATOM     29  C   LIG    1       15.729   7.781   3.568  0.00  0.00    +0.166 C 
ATOM     30  O   LIG    1       14.951   8.472   2.565  0.00  0.00    -0.342 OA
BRANCH  28  31
ATOM     31  O   LIG    1       15.179   9.398   5.267  0.00  0.00    -0.387 OA
ATOM     32  H   LIG    1       14.816   9.889   4.499  0.00  0.00    +0.210 HD
ENDBRANCH  28  31
BRANCH  27  33
ATOM     33  O   LIG    1       13.525   6.130   4.988  0.00  0.00    -0.386 OA
ATOM     34  H   LIG    1       12.635   5.905   5.325  0.00  0.00    +0.210 HD
ENDBRANCH  27  33
BRANCH  26  35
ATOM     35  O   LIG    1       12.517   9.491   4.006  0.00  0.00    -0.384 OA
ATOM     36  H   LIG    1       12.513   9.927   3.126  0.00  0.00    +0.210 HD
ENDBRANCH  26  35
BRANCH  29  37
ATOM     37  C   LIG    1       15.972   6.283   3.247  0.00  0.00    +0.112 C 
BRANCH  37  38
ATOM     38  N   LIG    1       16.675   6.082   1.975  0.00  0.00    -0.328 NA
ATOM     39  H   LIG    1       16.168   6.579   1.238  0.00  0.00    +0.118 HD
ATOM     40  H   LIG    1       17.579   6.554   2.020  0.00  0.00    +0.118 HD
ENDBRANCH  37  38
ENDBRANCH  29  37
ENDBRANCH  24  25
ENDBRANCH   4  24
BRANCH   2  41
ATOM     41  O   LIG    1       12.414   8.245  -1.800  0.00  0.00    -0.341 OA
BRANCH  41  42
ATOM     42  C   LIG    1       12.649   7.776  -3.146  0.00  0.00    +0.281 C 
ATOM     43  C   LIG    1       14.153   7.405  -3.198  0.00  0.00    +0.189 C 
ATOM     44  C   LIG    1       14.639   7.028  -4.613  0.00  0.00    +0.116 C 
ATOM     45  C   LIG    1       14.145   8.091  -5.623  0.00  0.00    +0.165 C 
ATOM     46  C   LIG    1       12.627   8.346  -5.501  0.00  0.00    +0.177 C 
ATOM     47  O   LIG    1       12.296   8.732  -4.145  0.00  0.00    -0.341 OA
BRANCH  44  48
ATOM     48  N   LIG    1       14.276   5.656  -5.024  0.00  0.00    -0.323 NA
ATOM     49  H   LIG    1       14.803   5.431  -5.873  0.00  0.00    +0.119 HD
ATOM     50  H   LIG    1       14.638   5.000  -4.326  0.00  0.00    +0.119 HD
ENDBRANCH  44  48
BRANCH  45  51
ATOM     51  O   LIG    1       14.858   9.313  -5.360  0.00  0.00    -0.388 OA
ATOM     52  H   LIG    1       14.476  10.012  -5.920  0.00  0.00    +0.210 HD
ENDBRANCH  45  51
BRANCH  43  53
ATOM     53  O   LIG    1       14.970   8.494  -2.727  0.00  0.00    -0.385 OA
ATOM     54  H   LIG    1       14.768   9.250  -3.318  0.00  0.00    +0.210 HD
ENDBRANCH  43  53
BRANCH  46  55
ATOM     55  C   LIG    1       11.798   7.172  -6.067  0.00  0.00    +0.190 C 
BRANCH  55  56
ATOM     56  O   LIG    1       10.417   7.513  -6.170  0.00  0.00    -0.392 OA
ATOM     57  H   LIG    1        9.959   6.726  -6.514  0.00  0.00    +0.209 HD
ENDBRANCH  55  56
ENDBRANCH  46  55
ENDBRANCH  41  42
ENDBRANCH   2  41
TORSDOF 22
