REMARK  Name = *****
REMARK                            x       y       z     vdW  Elec       q    Type
REMARK                         _______ _______ _______ _____ _____    ______ ____
ROOT
ATOM      1  C   LIG    1       -3.793   1.098   1.229  0.00  0.00    +0.014 C 
ATOM      2  C   LIG    1       -4.107  -0.299   0.669  0.00  0.00    +0.001 C 
ATOM      3  C   LIG    1       -3.791  -0.495  -0.862  0.00  0.00    +0.084 C 
ATOM      4  C   LIG    1       -4.505  -1.849  -1.111  0.00  0.00    +0.036 C 
ATOM      5  C   LIG    1       -5.800  -1.775  -0.290  0.00  0.00    +0.007 C 
ATOM      6  C   LIG    1       -5.629  -0.595   0.702  0.00  0.00    +0.005 C 
ATOM      7  C   LIG    1       -6.237  -0.864   2.102  0.00  0.00    +0.019 C 
ATOM      8  C   LIG    1       -5.223  -1.381   3.118  0.00  0.00    -0.063 C 
ATOM      9  C   LIG    1       -5.305  -1.102   4.442  0.00  0.00    -0.044 C 
ATOM     10  C   LIG    1       -6.382  -0.254   4.971  0.00  0.00    -0.041 C 
ATOM     11  C   LIG    1       -7.508   0.105   4.035  0.00  0.00    +0.036 C 
ATOM     12  C   LIG    1       -6.378   0.225   6.226  0.00  0.00    +0.050 C 
ATOM     13  C   LIG    1       -5.239  -0.009   7.139  0.00  0.00    +0.157 C 
ATOM     14  O   LIG    1       -5.301   0.386   8.301  0.00  0.00    -0.293 OA
ATOM     15  C   LIG    1       -3.997  -0.633   6.565  0.00  0.00    +0.083 C 
ATOM     16  C   LIG    1       -4.359  -1.651   5.495  0.00  0.00    +0.043 C 
ATOM     17  C   LIG    1       -4.142  -2.207   2.474  0.00  0.00    +0.032 C 
ATOM     18  C   LIG    1       -6.975   0.377   2.633  0.00  0.00    +0.013 C 
ATOM     19  C   LIG    1       -3.293  -1.330   1.548  0.00  0.00    +0.014 C 
ENDROOT
BRANCH   3  20
ATOM     20  O   LIG    1       -2.391  -0.666  -1.083  0.00  0.00    -0.387 OA
ATOM     21  H   LIG    1       -1.925   0.108  -0.719  0.00  0.00    +0.210 HD
ENDBRANCH   3  20
BRANCH   3  22
ATOM     22  C   LIG    1       -4.331   0.473  -1.953  0.00  0.00    +0.153 C 
BRANCH  22  23
ATOM     23  C   LIG    1       -4.314   1.886  -1.655  0.00  0.00    +0.065 C 
ATOM     24  N   LIG    1       -4.300   3.012  -1.417  0.00  0.00    -0.197 NA
ENDBRANCH  22  23
ENDBRANCH   3  22
TORSDOF 3
