REMARK  Name = *****
REMARK                            x       y       z     vdW  Elec       q    Type
REMARK                         _______ _______ _______ _____ _____    ______ ____
ROOT
ATOM      1  C   LIG    1        3.662   0.085  -1.867  0.00  0.00    +0.402 C 
ATOM      2  N   LIG    1        4.326  -0.997  -1.524  0.00  0.00    +0.011 NA
ENDROOT
BRANCH   1   3
ATOM      3  N   LIG    1        2.585   0.490  -1.122  0.00  0.00    -0.272 N 
ATOM      4  H   LIG    1        2.333   1.451  -1.316  0.00  0.00    +0.258 HD
BRANCH   3   6
ATOM      5  C   LIG    1        0.787   0.103   0.418  0.00  0.00    +0.048 C 
ATOM      6  C   LIG    1        2.318   0.117   0.275  0.00  0.00    +0.147 C 
BRANCH   6   7
ATOM      7  C   LIG    1        3.034   1.114   1.263  0.00  0.00    -0.004 C 
ATOM      8  C   LIG    1        4.567   1.060   1.077  0.00  0.00    +0.014 C 
ATOM      9  C   LIG    1        2.751   0.761   2.743  0.00  0.00    +0.014 C 
ATOM     10  C   LIG    1        2.571   2.568   1.036  0.00  0.00    +0.014 C 
ENDBRANCH   6   7
ENDBRANCH   3   6
ENDBRANCH   1   3
BRANCH   1  11
ATOM     11  N   LIG    1        4.006   0.995  -2.850  0.00  0.00    -0.242 N 
ATOM     12  H   LIG    1        4.888   0.831  -3.329  0.00  0.00    +0.265 HD
BRANCH  11  13
ATOM     13  C   LIG    1        3.140   1.785  -3.651  0.00  0.00    +0.103 A 
ATOM     14  C   LIG    1        3.616   2.970  -4.226  0.00  0.00    +0.062 A 
ATOM     15  C   LIG    1        2.757   3.737  -5.005  0.00  0.00    +0.114 A 
ATOM     16  N   LIG    1        1.470   3.412  -5.240  0.00  0.00    -0.263 NA
ATOM     17  C   LIG    1        1.021   2.279  -4.666  0.00  0.00    +0.114 A 
ATOM     18  C   LIG    1        1.802   1.452  -3.872  0.00  0.00    +0.062 A 
ENDBRANCH  11  13
ENDBRANCH   1  11
BRANCH   2  19
ATOM     19  C   LIG    1        5.414  -1.337  -2.205  0.00  0.00    +0.295 C 
ATOM     20  N   LIG    1        6.385  -1.611  -2.791  0.00  0.00    -0.150 NA
ENDBRANCH   2  19
TORSDOF 6
