REMARK  Name = *****
REMARK                            x       y       z     vdW  Elec       q    Type
REMARK                         _______ _______ _______ _____ _____    ______ ____
ROOT
ATOM      1  N   LIG    1        4.080   2.541   0.213  0.00  0.00    -0.234 N 
ATOM      2  H   LIG    1        5.028   2.293   0.531  0.00  0.00    +0.174 HD
ENDROOT
BRANCH   1   6
ATOM      3  C   LIG    1        1.048  -0.562  -0.054  0.00  0.00    +0.070 C 
ATOM      4  C   LIG    1        2.502  -0.761   0.121  0.00  0.00    +0.089 C 
ATOM      5  C   LIG    1        3.437   0.378   0.281  0.00  0.00    +0.168 C 
ATOM      6  N   LIG    1        3.094   1.611   0.124  0.00  0.00    -0.175 NA
ATOM      7  C   LIG    1        4.768  -0.234   0.554  0.00  0.00    +0.292 C 
ATOM      8  O   LIG    1        5.768   0.429   0.794  0.00  0.00    -0.266 OA
ATOM      9  N   LIG    1        4.503  -1.585   0.428  0.00  0.00    -0.155 N 
ATOM     10  N   LIG    1        3.157  -1.893   0.168  0.00  0.00    -0.175 NA
BRANCH   9  11
ATOM     11  C   LIG    1        5.415  -2.643   0.597  0.00  0.00    +0.061 A 
ATOM     12  C   LIG    1        5.107  -3.925   0.114  0.00  0.00    +0.029 A 
ATOM     13  C   LIG    1        6.011  -4.995   0.243  0.00  0.00    -0.046 A 
ATOM     14  C   LIG    1        5.627  -6.331  -0.332  0.00  0.00    +0.044 C 
ATOM     15  C   LIG    1        7.215  -4.796   0.943  0.00  0.00    -0.047 A 
ATOM     16  C   LIG    1        8.195  -5.912   1.173  0.00  0.00    +0.044 C 
ATOM     17  C   LIG    1        7.521  -3.516   1.423  0.00  0.00    +0.005 A 
ATOM     18  C   LIG    1        6.640  -2.451   1.238  0.00  0.00    +0.026 A 
ENDBRANCH   9  11
ENDBRANCH   1   6
BRANCH   1  19
ATOM     19  C   LIG    1        3.814   3.920   0.064  0.00  0.00    +0.090 A 
ATOM     20  C   LIG    1        2.530   4.426  -0.256  0.00  0.00    +0.147 A 
ATOM     21  C   LIG    1        2.257   5.803  -0.408  0.00  0.00    +0.025 A 
ATOM     22  C   LIG    1        3.349   6.674  -0.239  0.00  0.00    +0.012 A 
ATOM     23  C   LIG    1        4.634   6.199   0.043  0.00  0.00    +0.003 A 
ATOM     24  C   LIG    1        4.864   4.832   0.189  0.00  0.00    +0.028 A 
BRANCH  21  25
ATOM     25  C   LIG    1        0.901   6.335  -0.719  0.00  0.00    -0.014 A 
ATOM     26  C   LIG    1       -0.257   5.705  -0.228  0.00  0.00    +0.023 A 
ATOM     27  C   LIG    1       -1.544   6.155  -0.547  0.00  0.00    +0.059 A 
ATOM     28  C   LIG    1       -1.699   7.313  -1.310  0.00  0.00    +0.015 A 
ATOM     29  C   LIG    1       -0.571   7.986  -1.776  0.00  0.00    +0.001 A 
ATOM     30  C   LIG    1        0.710   7.494  -1.494  0.00  0.00    +0.008 A 
BRANCH  27  31
ATOM     31  C   LIG    1       -2.749   5.451  -0.042  0.00  0.00    +0.337 C 
ATOM     32  O   LIG    1       -3.806   6.027   0.182  0.00  0.00    -0.245 OA
BRANCH  31  33
ATOM     33  O   LIG    1       -2.593   4.120   0.113  0.00  0.00    -0.477 OA
ATOM     34  H   LIG    1       -1.753   3.757  -0.232  0.00  0.00    +0.295 HD
ENDBRANCH  31  33
ENDBRANCH  27  31
ENDBRANCH  21  25
BRANCH  20  35
ATOM     35  O   LIG    1        1.512   3.511  -0.435  0.00  0.00    -0.504 OA
ATOM     36  H   LIG    1        1.966   2.658  -0.252  0.00  0.00    +0.292 HD
ENDBRANCH  20  35
ENDBRANCH   1  19
TORSDOF 7
