REMARK  Name = *****
REMARK                            x       y       z     vdW  Elec       q    Type
REMARK                         _______ _______ _______ _____ _____    ______ ____
ROOT
ATOM      1  C   LIG    1       -9.800   0.947  -1.459  0.00  0.00    +0.044 C 
ATOM      2  C   LIG    1      -11.028   0.711  -2.378  0.00  0.00    +0.006 C 
ATOM      3  C   LIG    1      -11.766   2.049  -2.483  0.00  0.00    -0.001 C 
ATOM      4  C   LIG    1      -13.239   1.720  -2.745  0.00  0.00    +0.034 C 
ATOM      5  C   LIG    1      -13.349   0.238  -2.497  0.00  0.00    -0.073 C 
ATOM      6  C   LIG    1      -14.375  -0.509  -2.941  0.00  0.00    -0.027 C 
ATOM      7  C   LIG    1      -11.517   2.710  -1.136  0.00  0.00    +0.036 C 
ATOM      8  C   LIG    1      -12.084  -0.267  -1.860  0.00  0.00    +0.035 C 
ATOM      9  C   LIG    1      -10.088   2.315  -0.762  0.00  0.00    +0.122 C 
ENDROOT
BRANCH   1  11
ATOM     10  C   LIG    1       -8.789  -0.401   0.505  0.00  0.00    +0.000 C 
ATOM     11  C   LIG    1       -9.405  -0.300  -0.687  0.00  0.00    -0.022 C 
BRANCH  10  12
ATOM     12  C   LIG    1       -8.421  -1.714   1.171  0.00  0.00    +0.141 C 
BRANCH  12  13
ATOM     13  C   LIG    1       -8.428  -1.730   2.719  0.00  0.00    +0.030 C 
ATOM     14  C   LIG    1       -7.987  -3.112   3.241  0.00  0.00    +0.011 C 
BRANCH  13  15
ATOM     15  C   LIG    1       -7.585  -0.628   3.370  0.00  0.00    +0.095 C 
BRANCH  15  18
ATOM     16  C   LIG    1       -3.645  -0.790   2.141  0.00  0.00    +0.106 C 
ATOM     17  C   LIG    1       -5.036  -0.716   2.600  0.00  0.00    -0.106 C 
ATOM     18  C   LIG    1       -6.167  -0.668   2.960  0.00  0.00    -0.102 C 
ENDBRANCH  15  18
ENDBRANCH  13  15
ENDBRANCH  12  13
BRANCH  12  19
ATOM     19  O   LIG    1       -9.320  -2.742   0.737  0.00  0.00    -0.388 OA
ATOM     20  H   LIG    1      -10.233  -2.400   0.794  0.00  0.00    +0.210 HD
ENDBRANCH  12  19
ENDBRANCH  10  12
ENDBRANCH   1  11
BRANCH   9  21
ATOM     21  O   LIG    1       -9.961   2.335   0.649  0.00  0.00    -0.391 OA
ATOM     22  H   LIG    1      -10.574   1.665   1.000  0.00  0.00    +0.210 HD
ENDBRANCH   9  21
BRANCH   6  23
ATOM     23  C   LIG    1      -14.423  -2.009  -2.892  0.00  0.00    +0.028 C 
BRANCH  23  24
ATOM     24  C   LIG    1      -15.827  -2.562  -2.635  0.00  0.00    +0.015 C 
BRANCH  24  25
ATOM     25  C   LIG    1      -15.858  -4.084  -2.661  0.00  0.00    +0.121 C 
BRANCH  25  26
ATOM     26  C   LIG    1      -14.984  -4.713  -1.610  0.00  0.00    +0.307 C 
ATOM     27  O   LIG    1      -15.362  -5.066  -0.502  0.00  0.00    -0.251 OA
BRANCH  26  28
ATOM     28  O   LIG    1      -13.737  -4.904  -2.120  0.00  0.00    -0.457 OA
BRANCH  28  29
ATOM     29  C   LIG    1      -12.913  -5.732  -1.315  0.00  0.00    +0.311 C 
BRANCH  29  30
ATOM     30  C   LIG    1      -12.372  -5.114  -0.022  0.00  0.00    +0.200 C 
ATOM     31  O   LIG    1      -12.057  -3.927   0.064  0.00  0.00    -0.288 OA
BRANCH  30  32
ATOM     32  C   LIG    1      -12.153  -6.031   1.136  0.00  0.00    +0.021 A 
ATOM     33  C   LIG    1      -12.954  -7.162   1.343  0.00  0.00    +0.011 A 
ATOM     34  C   LIG    1      -12.722  -8.005   2.430  0.00  0.00    +0.001 A 
ATOM     35  C   LIG    1      -11.702  -7.713   3.331  0.00  0.00    +0.000 A 
ATOM     36  C   LIG    1      -10.908  -6.582   3.143  0.00  0.00    +0.001 A 
ATOM     37  C   LIG    1      -11.131  -5.744   2.046  0.00  0.00    +0.011 A 
ENDBRANCH  30  32
ENDBRANCH  29  30
ENDBRANCH  28  29
ENDBRANCH  26  28
ENDBRANCH  25  26
ENDBRANCH  24  25
ENDBRANCH  23  24
ENDBRANCH   6  23
TORSDOF 15
