REMARK  Name = *****
REMARK                            x       y       z     vdW  Elec       q    Type
REMARK                         _______ _______ _______ _____ _____    ______ ____
ROOT
ATOM      1  N   LIG    1        1.266   2.538  -0.156  0.00  0.00    -0.300 N 
ATOM      2  C   LIG    1        0.414   3.634  -0.169  0.00  0.00    +0.231 C 
ATOM      3  O   LIG    1       -0.590   3.721   0.558  0.00  0.00    -0.274 OA
ATOM      4  C   LIG    1        0.926   4.676  -1.217  0.00  0.00    +0.101 C 
ATOM      5  C   LIG    1        2.428   4.168  -1.323  0.00  0.00    +0.031 C 
ATOM      6  C   LIG    1        2.302   2.654  -1.143  0.00  0.00    +0.113 C 
ENDROOT
BRANCH   4   7
ATOM      7  C   LIG    1        0.145   4.430  -2.547  0.00  0.00    -0.028 A 
ATOM      8  C   LIG    1        0.736   3.827  -3.678  0.00  0.00    +0.005 A 
ATOM      9  C   LIG    1        0.023   3.582  -4.849  0.00  0.00    +0.000 A 
ATOM     10  C   LIG    1       -1.309   3.951  -4.931  0.00  0.00    +0.000 A 
ATOM     11  C   LIG    1       -1.925   4.550  -3.834  0.00  0.00    +0.000 A 
ATOM     12  C   LIG    1       -1.212   4.782  -2.651  0.00  0.00    +0.005 A 
ENDBRANCH   4   7
BRANCH   4  13
ATOM     13  C   LIG    1        0.817   6.174  -0.785  0.00  0.00    -0.028 A 
ATOM     14  C   LIG    1        1.379   7.201  -1.569  0.00  0.00    +0.005 A 
ATOM     15  C   LIG    1        1.311   8.548  -1.171  0.00  0.00    +0.000 A 
ATOM     16  C   LIG    1        0.673   8.906   0.012  0.00  0.00    +0.000 A 
ATOM     17  C   LIG    1        0.078   7.921   0.785  0.00  0.00    +0.000 A 
ATOM     18  C   LIG    1        0.144   6.580   0.387  0.00  0.00    +0.005 A 
ENDBRANCH   4  13
BRANCH   1  20
ATOM     19  C   LIG    1        0.714   0.145  -0.200  0.00  0.00    +0.024 C 
ATOM     20  C   LIG    1        1.078   1.347   0.647  0.00  0.00    +0.104 C 
ENDBRANCH   1  20
BRANCH   5  21
ATOM     21  C   LIG    1        3.456   4.732  -0.319  0.00  0.00    +0.022 C 
BRANCH  21  22
ATOM     22  C   LIG    1        3.118   4.583   1.177  0.00  0.00    +0.085 C 
BRANCH  22  23
ATOM     23  N   LIG    1        4.141   5.153   2.059  0.00  0.00    -0.298 NA
ATOM     24  C   LIG    1        4.372   6.595   1.843  0.00  0.00    +0.112 C 
ATOM     25  C   LIG    1        3.337   7.525   2.483  0.00  0.00    +0.175 C 
ATOM     26  O   LIG    1        3.219   7.284   3.886  0.00  0.00    -0.377 OA
ATOM     27  C   LIG    1        2.818   5.928   4.115  0.00  0.00    +0.175 C 
ATOM     28  C   LIG    1        3.815   4.930   3.491  0.00  0.00    +0.112 C 
ENDBRANCH  22  23
ENDBRANCH  21  22
ENDBRANCH   5  21
TORSDOF 6
