REMARK  Name = *****
REMARK                            x       y       z     vdW  Elec       q    Type
REMARK                         _______ _______ _______ _____ _____    ______ ____
ROOT
ATOM      1  C   LIG    1        3.117   0.869   1.168  0.00  0.00    +0.159 C 
ATOM      2  O   LIG    1        4.415   1.473   1.124  0.00  0.00    -0.370 OA
ATOM      3  C   LIG    1        3.292   2.355   0.988  0.00  0.00    +0.193 C 
ENDROOT
BRANCH   1   5
ATOM      4 CL   LIG    1        3.233  -1.682   0.378  0.00  0.00    -0.123 Cl
ATOM      5  C   LIG    1        2.783  -0.004   0.009  0.00  0.00    +0.142 C 
ENDBRANCH   1   5
TORSDOF 1
