REMARK  Name = *****
REMARK                            x       y       z     vdW  Elec       q    Type
REMARK                         _______ _______ _______ _____ _____    ______ ____
ROOT
ATOM      1  O   LIG    1        3.361  -0.214   1.406  0.00  0.00    -0.147 OA
ATOM      2  S   LIG    1        2.528   0.130   0.276  0.00  0.00    +0.081 S 
ATOM      3  O   LIG    1        1.963  -0.861  -0.606  0.00  0.00    -0.147 OA
ENDROOT
BRANCH   2   4
ATOM      4  O   LIG    1        1.319   1.012   0.881  0.00  0.00    -0.254 OA
ATOM      5  H   LIG    1        1.333   0.916   1.859  0.00  0.00    +0.244 HD
ENDBRANCH   2   4
BRANCH   2   6
ATOM      6  C   LIG    1        3.314   1.410  -0.685  0.00  0.00    +0.208 C 
BRANCH   6   7
ATOM      7  C   LIG    1        4.601   0.876  -1.281  0.00  0.00    +0.090 C 
BRANCH   7   8
ATOM      8  S   LIG    1        5.423   2.159  -2.275  0.00  0.00    -0.177 S 
ATOM      9  H   LIG    1        4.496   2.235  -3.243  0.00  0.00    +0.102 HD
ENDBRANCH   7   8
ENDBRANCH   6   7
ENDBRANCH   2   6
TORSDOF 4
