REMARK  Name = *****
REMARK                            x       y       z     vdW  Elec       q    Type
REMARK                         _______ _______ _______ _____ _____    ______ ____
ROOT
ATOM      1  C   UNK A  0        6.715  -1.312  -2.079  0.00  0.00    +0.071 A 
ATOM      2  N   UNK A  1        7.132  -0.028  -1.891  0.00  0.00    -0.248 NA
ATOM      3  C   UNK A  1        8.476   0.185  -1.731  0.00  0.00    +0.108 A 
ATOM      4  C   UNK A  1        9.408  -0.850  -1.754  0.00  0.00    +0.140 A 
ATOM      5  C   UNK A  1        8.967  -2.150  -1.952  0.00  0.00    +0.049 A 
ATOM      6  C   UNK A  1        7.604  -2.386  -2.115  0.00  0.00    +0.029 A 
ENDROOT
BRANCH   4   7
ATOM      7  O   UNK A  1       10.735  -0.584  -1.576  0.00  0.00    -0.505 OA
ATOM      8  H   UNK A  1       11.230  -1.420  -1.576  0.00  0.00    +0.292 HD
ENDBRANCH   4   7
BRANCH   1   9
ATOM      9  C   UNK A  0        5.220  -1.567  -2.195  0.00  0.00    +0.176 C 
BRANCH   9  10
ATOM     10  O   UNK A  0        4.577  -1.039  -1.029  0.00  0.00    -0.384 OA
ATOM     11  H   UNK A  0        4.862  -0.108  -0.977  0.00  0.00    +0.210 HD
ENDBRANCH   9  10
BRANCH   9  12
ATOM     12  C   UNK A  0        4.627  -0.927  -3.479  0.00  0.00    +0.119 C 
BRANCH  12  13
ATOM     13  N   UNK A  0        3.205  -1.273  -3.660  0.00  0.00    -0.308 NA
ATOM     14  H   UNK A  0        3.088  -2.285  -3.624  0.00  0.00    +0.122 HD
BRANCH  13  16
ATOM     15  C   UNK A  0        1.077  -1.228  -4.805  0.00  0.00    +0.027 C 
ATOM     16  C   UNK A  0        2.534  -0.724  -4.850  0.00  0.00    +0.011 C 
ATOM     17  C   UNK A  0        2.512   0.812  -4.827  0.00  0.00    +0.027 C 
ATOM     18  C   UNK A  0        3.177  -1.224  -6.154  0.00  0.00    +0.027 C 
ENDBRANCH  13  16
ENDBRANCH  12  13
ENDBRANCH   9  12
ENDBRANCH   1   9
BRANCH   3  19
ATOM     19  C   UNK A  1        8.931   1.611  -1.506  0.00  0.00    +0.215 C 
BRANCH  19  20
ATOM     20  O   UNK A  1        7.831   2.521  -1.511  0.00  0.00    -0.389 OA
ATOM     21  H   UNK A  1        7.043   1.954  -1.641  0.00  0.00    +0.210 HD
ENDBRANCH  19  20
ENDBRANCH   3  19
TORSDOF 8
