REMARK  Name = *****
REMARK                            x       y       z     vdW  Elec       q    Type
REMARK                         _______ _______ _______ _____ _____    ______ ____
ROOT
ATOM      1  C   LIG    1      -13.012   3.831   8.915  0.00  0.00    +0.159 C 
ENDROOT
BRANCH   1   2
ATOM      2  C   LIG    1      -13.607   5.197   8.386  0.00  0.00    +0.234 C 
ATOM      3  N   LIG    1      -13.444   5.442   7.034  0.00  0.00    -0.302 N 
ATOM      4  H   LIG    1      -13.059   4.717   6.444  0.00  0.00    +0.149 HD
ATOM      5  O   LIG    1      -14.091   6.048   9.138  0.00  0.00    -0.274 OA
BRANCH   3   6
ATOM      6  C   LIG    1      -14.002   6.620   6.339  0.00  0.00    +0.163 C 
BRANCH   6   7
ATOM      7  C   LIG    1      -15.504   6.423   5.985  0.00  0.00    +0.234 C 
ATOM      8  N   LIG    1      -16.415   6.856   6.918  0.00  0.00    -0.304 N 
ATOM      9  H   LIG    1      -16.104   7.367   7.742  0.00  0.00    +0.149 HD
ATOM     10  O   LIG    1      -15.893   5.826   4.985  0.00  0.00    -0.274 OA
BRANCH   8  11
ATOM     11  C   LIG    1      -17.869   6.694   6.697  0.00  0.00    +0.142 C 
BRANCH  11  12
ATOM     12  C   LIG    1      -18.621   8.021   6.507  0.00  0.00    +0.187 C 
ATOM     13  O   LIG    1      -19.828   8.088   6.212  0.00  0.00    -0.292 OA
BRANCH  12  14
ATOM     14  C   LIG    1      -17.879   9.325   6.600  0.00  0.00    +0.149 C 
ATOM     15  C   LIG    1      -17.322   9.961   5.364  0.00  0.00    +0.052 C 
ATOM     16  O   LIG    1      -17.106   9.522   7.795  0.00  0.00    -0.360 OA
ATOM     17  C   LIG    1      -18.324  10.269   7.697  0.00  0.00    +0.203 C 
ENDBRANCH  12  14
ENDBRANCH  11  12
BRANCH  11  18
ATOM     18  C   LIG    1      -18.472   5.780   7.790  0.00  0.00    +0.033 C 
BRANCH  18  19
ATOM     19  C   LIG    1      -19.993   5.493   7.689  0.00  0.00    -0.015 C 
ATOM     20  C   LIG    1      -20.468   4.619   8.855  0.00  0.00    +0.007 C 
ATOM     21  C   LIG    1      -20.377   4.832   6.363  0.00  0.00    +0.007 C 
ENDBRANCH  18  19
ENDBRANCH  11  18
ENDBRANCH   8  11
ENDBRANCH   6   7
BRANCH   6  22
ATOM     22  C   LIG    1      -13.173   6.984   5.071  0.00  0.00    +0.067 C 
BRANCH  22  23
ATOM     23  C   LIG    1      -13.102   5.947   3.962  0.00  0.00    -0.045 A 
ATOM     24  C   LIG    1      -12.118   4.951   3.961  0.00  0.00    +0.003 A 
ATOM     25  C   LIG    1      -12.084   3.988   2.947  0.00  0.00    +0.000 A 
ATOM     26  C   LIG    1      -13.038   4.000   1.931  0.00  0.00    +0.000 A 
ATOM     27  C   LIG    1      -14.027   4.977   1.924  0.00  0.00    +0.000 A 
ATOM     28  C   LIG    1      -14.042   5.956   2.918  0.00  0.00    +0.003 A 
ENDBRANCH  22  23
ENDBRANCH   6  22
ENDBRANCH   3   6
ENDBRANCH   1   2
BRANCH   1  29
ATOM     29  N   LIG    1      -13.174   3.762  10.390  0.00  0.00    -0.302 N 
ATOM     30  H   LIG    1      -12.590   4.368  10.954  0.00  0.00    +0.149 HD
ATOM     31  C   LIG    1      -14.361   3.316  10.938  0.00  0.00    +0.234 C 
ATOM     32  O   LIG    1      -15.263   2.898  10.217  0.00  0.00    -0.274 OA
BRANCH  31  33
ATOM     33  C   LIG    1      -14.531   3.351  12.476  0.00  0.00    +0.159 C 
BRANCH  33  34
ATOM     34  N   LIG    1      -14.467   4.793  12.842  0.00  0.00    -0.303 N 
ATOM     35  H   LIG    1      -14.145   5.413  12.114  0.00  0.00    +0.149 HD
ATOM     36  C   LIG    1      -15.133   5.417  13.893  0.00  0.00    +0.228 C 
ATOM     37  O   LIG    1      -15.839   4.841  14.713  0.00  0.00    -0.274 OA
BRANCH  36  38
ATOM     38  C   LIG    1      -14.950   6.958  13.910  0.00  0.00    +0.180 C 
BRANCH  38  39
ATOM     39  N   LIG    1      -13.860   7.393  14.805  0.00  0.00    -0.290 NA
ATOM     40  C   LIG    1      -12.510   6.922  14.448  0.00  0.00    +0.113 C 
ATOM     41  C   LIG    1      -11.818   7.721  13.326  0.00  0.00    +0.175 C 
ATOM     42  O   LIG    1      -11.789   9.124  13.607  0.00  0.00    -0.377 OA
ATOM     43  C   LIG    1      -13.119   9.614  13.816  0.00  0.00    +0.175 C 
ATOM     44  C   LIG    1      -13.792   8.862  14.979  0.00  0.00    +0.113 C 
ENDBRANCH  38  39
ENDBRANCH  36  38
ENDBRANCH  33  34
BRANCH  33  45
ATOM     45  C   LIG    1      -15.887   2.696  12.802  0.00  0.00    +0.036 C 
BRANCH  45  46
ATOM     46  C   LIG    1      -16.113   1.212  12.426  0.00  0.00    +0.037 C 
BRANCH  46  47
ATOM     47  C   LIG    1      -17.540   0.760  12.714  0.00  0.00    -0.047 A 
ATOM     48  C   LIG    1      -17.813  -0.577  13.035  0.00  0.00    +0.003 A 
ATOM     49  C   LIG    1      -19.127  -0.996  13.275  0.00  0.00    +0.000 A 
ATOM     50  C   LIG    1      -20.185  -0.093  13.184  0.00  0.00    +0.000 A 
ATOM     51  C   LIG    1      -19.934   1.230  12.850  0.00  0.00    +0.000 A 
ATOM     52  C   LIG    1      -18.627   1.646  12.608  0.00  0.00    +0.003 A 
ENDBRANCH  46  47
ENDBRANCH  45  46
ENDBRANCH  33  45
ENDBRANCH  31  33
ENDBRANCH   1  29
BRANCH   1  53
ATOM     53  C   LIG    1      -13.558   2.574   8.130  0.00  0.00    +0.034 C 
BRANCH  53  55
ATOM     54  C   LIG    1      -13.724  -0.062   7.978  0.00  0.00    +0.007 C 
ATOM     55  C   LIG    1      -13.052   1.176   8.617  0.00  0.00    -0.015 C 
ATOM     56  C   LIG    1      -11.560   1.008   8.344  0.00  0.00    +0.007 C 
ENDBRANCH  53  55
ENDBRANCH   1  53
TORSDOF 20
