REMARK  Name = *****
REMARK                            x       y       z     vdW  Elec       q    Type
REMARK                         _______ _______ _______ _____ _____    ______ ____
ROOT
ATOM      1  C   LIG    1        4.893  -3.300  -0.481  0.00  0.00    +0.042 C 
ENDROOT
BRANCH   1   2
ATOM      2  C   LIG    1        3.406  -2.898  -0.629  0.00  0.00    +0.087 C 
BRANCH   2   6
ATOM      3  C   LIG    1        1.448  -0.588   2.566  0.00  0.00    +0.093 C 
ATOM      4  C   LIG    1        2.972  -0.721   2.414  0.00  0.00    +0.044 C 
ATOM      5  C   LIG    1        3.451  -0.996   0.978  0.00  0.00    +0.059 C 
ATOM      6  N   LIG    1        2.787  -2.244   0.560  0.00  0.00    -0.296 NA
ATOM      7  C   LIG    1        1.413  -1.762   0.256  0.00  0.00    +0.059 C 
ATOM      8  C   LIG    1        1.641  -0.471  -0.539  0.00  0.00    +0.020 C 
ATOM      9  C   LIG    1        2.990   0.046  -0.041  0.00  0.00    +0.020 C 
ATOM     10  C   LIG    1        0.658  -1.480   1.579  0.00  0.00    +0.044 C 
BRANCH   3  13
ATOM     11  C   LIG    1        0.617   1.824   4.405  0.00  0.00    +0.088 C 
ATOM     12  C   LIG    1        0.556   0.383   4.741  0.00  0.00    +0.131 A 
ATOM     13  N   LIG    1        0.997  -0.678   3.962  0.00  0.00    -0.312 N 
ATOM     14  C   LIG    1        0.941  -1.776   4.811  0.00  0.00    +0.136 A 
ATOM     15  N   LIG    1        0.355  -1.409   5.935  0.00  0.00    -0.134 NA
ATOM     16  N   LIG    1        0.114  -0.074   5.890  0.00  0.00    -0.135 NA
BRANCH  14  17
ATOM     17  C   LIG    1        1.476  -3.161   4.585  0.00  0.00    +0.051 C 
ATOM     18  C   LIG    1        0.651  -4.194   5.372  0.00  0.00    +0.015 C 
ATOM     19  C   LIG    1        2.931  -3.272   5.051  0.00  0.00    +0.015 C 
ENDBRANCH  14  17
ENDBRANCH   3  13
ENDBRANCH   2   6
ENDBRANCH   1   2
BRANCH   1  20
ATOM     20  C   LIG    1        5.471  -4.012  -1.737  0.00  0.00    +0.104 C 
BRANCH  20  21
ATOM     21  C   LIG    1        5.558  -3.104  -2.968  0.00  0.00    -0.027 A 
ATOM     22  C   LIG    1        6.397  -1.976  -3.013  0.00  0.00    +0.005 A 
ATOM     23  C   LIG    1        6.519  -1.215  -4.182  0.00  0.00    +0.000 A 
ATOM     24  C   LIG    1        5.821  -1.576  -5.332  0.00  0.00    +0.000 A 
ATOM     25  C   LIG    1        4.957  -2.667  -5.295  0.00  0.00    +0.000 A 
ATOM     26  C   LIG    1        4.808  -3.408  -4.117  0.00  0.00    +0.005 A 
ENDBRANCH  20  21
BRANCH  20  27
ATOM     27  N   LIG    1        6.814  -4.542  -1.438  0.00  0.00    -0.308 N 
ATOM     28  H   LIG    1        7.547  -3.859  -1.422  0.00  0.00    +0.149 HD
ATOM     29  C   LIG    1        7.107  -5.888  -1.326  0.00  0.00    +0.217 C 
ATOM     30  O   LIG    1        6.260  -6.747  -1.494  0.00  0.00    -0.276 OA
BRANCH  29  31
ATOM     31  C   LIG    1        8.576  -6.285  -0.988  0.00  0.00    +0.075 C 
ATOM     32  C   LIG    1        9.560  -5.124  -0.745  0.00  0.00    +0.018 C 
ATOM     33  C   LIG    1       10.536  -5.337   0.406  0.00  0.00    +0.076 C 
ATOM     34  C   LIG    1       11.076  -6.745   0.415  0.00  0.00    +0.249 C 
ATOM     35  F   LIG    1       11.741  -6.963  -0.750  0.00  0.00    -0.206 F 
ATOM     36  F   LIG    1       11.990  -6.873   1.408  0.00  0.00    -0.206 F 
ATOM     37  C   LIG    1        9.985  -7.790   0.578  0.00  0.00    +0.076 C 
ATOM     38  C   LIG    1        8.585  -7.292   0.182  0.00  0.00    +0.018 C 
ENDBRANCH  29  31
ENDBRANCH  20  27
ENDBRANCH   1  20
TORSDOF 8
