REMARK  Name = *****
REMARK                            x       y       z     vdW  Elec       q    Type
REMARK                         _______ _______ _______ _____ _____    ______ ____
ROOT
ATOM      1  C   LIG    1        4.891   0.862  -3.525  0.00  0.00    +0.009 C 
ATOM      2  C   LIG    1        4.485   2.108  -3.814  0.00  0.00    +0.004 C 
ENDROOT
BRANCH   1   8
ATOM      3  C   LIG    1        7.064  -1.745  -6.124  0.00  0.00    +0.123 A 
ATOM      4  C   LIG    1        5.661  -1.849  -6.067  0.00  0.00    -0.005 A 
ATOM      5  C   LIG    1        4.973  -2.972  -6.805  0.00  0.00    +0.048 C 
ATOM      6  C   LIG    1        4.918  -0.903  -5.316  0.00  0.00    -0.037 A 
ATOM      7  C   LIG    1        3.409  -0.911  -5.375  0.00  0.00    +0.045 C 
ATOM      8  C   LIG    1        5.609   0.010  -4.483  0.00  0.00    -0.019 A 
ATOM      9  C   LIG    1        7.018   0.070  -4.505  0.00  0.00    -0.040 A 
ATOM     10  C   LIG    1        7.803   1.013  -3.627  0.00  0.00    +0.044 C 
ATOM     11  C   LIG    1        7.723  -0.779  -5.364  0.00  0.00    +0.049 A 
BRANCH   3  13
ATOM     12  C   LIG    1        9.057  -2.919  -6.641  0.00  0.00    +0.277 C 
ATOM     13  O   LIG    1        7.714  -2.593  -6.985  0.00  0.00    -0.495 OA
ENDBRANCH   3  13
ENDBRANCH   1   8
BRANCH   2  14
ATOM     14  C   LIG    1        3.868   3.058  -2.882  0.00  0.00    -0.050 C 
ATOM     15  C   LIG    1        3.646   2.753  -1.587  0.00  0.00    +0.003 C 
ATOM     16  C   LIG    1        3.559   4.390  -3.526  0.00  0.00    +0.044 C 
BRANCH  15  17
ATOM     17  C   LIG    1        3.053   3.591  -0.569  0.00  0.00    +0.001 C 
ATOM     18  C   LIG    1        2.866   3.265   0.721  0.00  0.00    +0.003 C 
BRANCH  18  19
ATOM     19  C   LIG    1        3.192   2.025   1.408  0.00  0.00    -0.044 C 
ATOM     20  C   LIG    1        4.404   1.459   1.577  0.00  0.00    +0.094 C 
ATOM     21  C   LIG    1        1.983   1.347   2.013  0.00  0.00    +0.044 C 
BRANCH  20  22
ATOM     22  C   LIG    1        5.772   1.827   1.154  0.00  0.00    +0.330 C 
ATOM     23  O   LIG    1        6.662   0.997   1.125  0.00  0.00    -0.246 OA
BRANCH  22  24
ATOM     24  O   LIG    1        5.979   3.126   0.891  0.00  0.00    -0.477 OA
ATOM     25  H   LIG    1        5.177   3.671   0.959  0.00  0.00    +0.295 HD
ENDBRANCH  22  24
ENDBRANCH  20  22
ENDBRANCH  18  19
ENDBRANCH  15  17
ENDBRANCH   2  14
TORSDOF 7
