REMARK  Name = *****
REMARK                            x       y       z     vdW  Elec       q    Type
REMARK                         _______ _______ _______ _____ _____    ______ ____
ROOT
ATOM      1  C   LIG    1        6.633  -3.055  -2.690  0.00  0.00    +0.162 C 
ENDROOT
BRANCH   1   7
ATOM      2  C   LIG    1        4.004  -4.315   2.954  0.00  0.00    +0.007 C 
ATOM      3  C   LIG    1        4.846  -3.687   1.852  0.00  0.00    -0.010 C 
ATOM      4  C   LIG    1        4.159  -2.611   1.015  0.00  0.00    +0.037 C 
ATOM      5  C   LIG    1        5.181  -1.801   0.150  0.00  0.00    +0.185 C 
ATOM      6  N   LIG    1        6.434  -2.583  -0.043  0.00  0.00    -0.287 N 
ATOM      7  C   LIG    1        7.096  -3.059  -1.170  0.00  0.00    +0.235 C 
ATOM      8  O   LIG    1        8.254  -3.489  -0.978  0.00  0.00    -0.274 OA
ATOM      9  C   LIG    1        7.076  -2.725   1.306  0.00  0.00    +0.109 C 
ATOM     10  C   LIG    1        6.035  -2.942   2.440  0.00  0.00    +0.022 C 
BRANCH   5  11
ATOM     11  C   LIG    1        4.241  -0.945  -0.784  0.00  0.00    +0.326 C 
ATOM     12  O   LIG    1        3.145  -1.149  -1.039  0.00  0.00    -0.249 OA
BRANCH  11  13
ATOM     13  O   LIG    1        5.020   0.103  -1.285  0.00  0.00    -0.479 OA
ATOM     14  H   LIG    1        4.448   0.362  -2.052  0.00  0.00    +0.295 HD
ENDBRANCH  11  13
ENDBRANCH   5  11
ENDBRANCH   1   7
BRANCH   1  15
ATOM     15  N   LIG    1        6.645  -4.323  -3.462  0.00  0.00    -0.178 NA
ATOM     16  H   LIG    1        6.142  -4.339  -4.348  0.00  0.00    +0.149 HD
BRANCH  15  17
ATOM     17  S   LIG    1        7.903  -5.424  -3.581  0.00  0.00    +0.061 S 
ATOM     18  O   LIG    1        9.146  -4.688  -3.649  0.00  0.00    -0.153 OA
ATOM     19  O   LIG    1        7.503  -6.286  -4.679  0.00  0.00    -0.153 OA
BRANCH  17  20
ATOM     20  C   LIG    1        7.745  -6.373  -2.099  0.00  0.00    +0.126 A 
ATOM     21  C   LIG    1        8.773  -6.408  -1.149  0.00  0.00    +0.057 A 
ATOM     22  N   LIG    1       10.014  -5.790  -1.389  0.00  0.00    -0.342 N 
ATOM     23  H   LIG    1        9.911  -4.955  -1.980  0.00  0.00    +0.146 HD
ATOM     24  C   LIG    1       10.824  -5.523  -0.220  0.00  0.00    +0.105 C 
ATOM     25  C   LIG    1       11.028  -6.828   0.542  0.00  0.00    +0.007 C 
ATOM     26  C   LIG    1       11.656  -7.927  -0.330  0.00  0.00    +0.009 C 
ATOM     27  C   LIG    1        9.655  -7.247   1.078  0.00  0.00    +0.041 C 
ATOM     28  C   LIG    1        8.586  -7.200   0.007  0.00  0.00    -0.024 A 
ATOM     29  C   LIG    1        7.380  -7.886   0.212  0.00  0.00    +0.005 A 
ATOM     30  C   LIG    1        6.364  -7.825  -0.739  0.00  0.00    +0.002 A 
ATOM     31  C   LIG    1        6.545  -7.074  -1.897  0.00  0.00    +0.030 A 
ENDBRANCH  17  20
ENDBRANCH  15  17
ENDBRANCH   1  15
BRANCH   1  32
ATOM     32  C   LIG    1        5.364  -2.320  -3.208  0.00  0.00    +0.033 C 
BRANCH  32  33
ATOM     33  C   LIG    1        3.941  -3.038  -3.120  0.00  0.00    +0.039 C 
BRANCH  33  34
ATOM     34  C   LIG    1        2.627  -2.175  -3.400  0.00  0.00    +0.196 C 
BRANCH  34  35
ATOM     35  N   LIG    1        2.059  -1.986  -4.713  0.00  0.00    -0.276 N 
ATOM     36  H   LIG    1        1.183  -1.463  -4.723  0.00  0.00    +0.258 HD
BRANCH  35  37
ATOM     37  C   LIG    1        2.432  -2.317  -5.950  0.00  0.00    +0.376 C 
ATOM     38  N   LIG    1        1.601  -2.152  -6.909  0.00  0.00    -0.130 NA
ATOM     39  H   LIG    1        2.007  -2.475  -7.785  0.00  0.00    +0.306 HD
BRANCH  37  40
ATOM     40  N   LIG    1        3.669  -2.800  -6.021  0.00  0.00    -0.289 N 
ATOM     41  H   LIG    1        4.159  -3.035  -6.867  0.00  0.00    +0.255 HD
ATOM     42  H   LIG    1        4.245  -2.474  -5.278  0.00  0.00    +0.255 HD
ENDBRANCH  37  40
ENDBRANCH  35  37
ENDBRANCH  34  35
ENDBRANCH  33  34
ENDBRANCH  32  33
ENDBRANCH   1  32
TORSDOF 12
