REMARK  Name = *****
REMARK                            x       y       z     vdW  Elec       q    Type
REMARK                         _______ _______ _______ _____ _____    ______ ____
ROOT
ATOM      1  C   LIG    1        4.471  -1.558  -0.182  0.00  0.00    +0.064 C 
ATOM      2  C   LIG    1        4.734  -0.030  -0.405  0.00  0.00    +0.039 C 
ATOM      3  C   LIG    1        5.682  -0.030  -1.633  0.00  0.00    -0.002 C 
ATOM      4  C   LIG    1        5.179  -1.218  -2.453  0.00  0.00    +0.009 C 
ATOM      5  C   LIG    1        7.067  -0.541  -1.173  0.00  0.00    +0.004 C 
ATOM      6  C   LIG    1        6.845  -2.051  -1.008  0.00  0.00    +0.005 C 
ATOM      7  C   LIG    1        5.344  -2.209  -1.297  0.00  0.00    +0.007 C 
ENDROOT
BRANCH   2   8
ATOM      8  C   LIG    1        3.502   0.843  -0.606  0.00  0.00    -0.043 A 
ATOM      9  C   LIG    1        3.547   2.172  -0.153  0.00  0.00    +0.004 A 
ATOM     10  C   LIG    1        2.445   3.018  -0.294  0.00  0.00    +0.000 A 
ATOM     11  C   LIG    1        1.278   2.555  -0.900  0.00  0.00    +0.000 A 
ATOM     12  C   LIG    1        1.219   1.247  -1.367  0.00  0.00    +0.000 A 
ATOM     13  C   LIG    1        2.323   0.404  -1.228  0.00  0.00    +0.004 A 
ENDBRANCH   2   8
BRANCH   1  14
ATOM     14  N   LIG    1        4.806  -2.043   1.164  0.00  0.00    -0.313 NA
ATOM     15  H   LIG    1        4.689  -3.056   1.194  0.00  0.00    +0.122 HD
BRANCH  14  17
ATOM     16  C   LIG    1        4.338  -1.941   3.568  0.00  0.00    +0.020 C 
ATOM     17  C   LIG    1        3.956  -1.428   2.189  0.00  0.00    +0.077 C 
ENDBRANCH  14  17
ENDBRANCH   1  14
TORSDOF 3
