REMARK  Name = *****
REMARK                            x       y       z     vdW  Elec       q    Type
REMARK                         _______ _______ _______ _____ _____    ______ ____
ROOT
ATOM      1  C   LIG    1        4.528   0.537   0.290  0.00  0.00    +0.088 C 
ATOM      2  C   LIG    1        4.936  -0.671   1.098  0.00  0.00    +0.004 A 
ATOM      3  C   LIG    1        5.260  -1.870   0.495  0.00  0.00    +0.132 A 
ATOM      4  S   LIG    1        5.670  -3.092   1.596  0.00  0.00    -0.050 S 
ATOM      5  C   LIG    1        5.402  -2.058   2.930  0.00  0.00    +0.144 A 
ATOM      6  S   LIG    1        5.223  -2.290  -1.224  0.00  0.00    +0.006 S 
ATOM      7  O   LIG    1        6.597  -2.557  -1.591  0.00  0.00    -0.169 OA
ATOM      8  O   LIG    1        4.176  -3.285  -1.329  0.00  0.00    -0.169 OA
ATOM      9  C   LIG    1        4.673  -0.741  -1.970  0.00  0.00    +0.135 C 
ATOM     10  C   LIG    1        3.926  -1.032  -3.269  0.00  0.00    +0.032 C 
ATOM     11  C   LIG    1        5.024  -0.788   2.523  0.00  0.00    +0.043 A 
ATOM     12  C   LIG    1        3.794   0.085  -1.003  0.00  0.00    +0.050 C 
ENDROOT
BRANCH   5  13
ATOM     13  S   LIG    1        5.640  -2.765   4.546  0.00  0.00    +0.062 S 
ATOM     14  O   LIG    1        4.327  -2.728   5.149  0.00  0.00    -0.153 OA
ATOM     15  O   LIG    1        6.776  -2.060   5.084  0.00  0.00    -0.153 OA
BRANCH  13  16
ATOM     16  N   LIG    1        6.072  -4.380   4.390  0.00  0.00    -0.203 NA
ATOM     17  H   LIG    1        5.316  -4.944   4.005  0.00  0.00    +0.144 HD
ATOM     18  H   LIG    1        6.967  -4.492   3.917  0.00  0.00    +0.144 HD
ENDBRANCH  13  16
ENDBRANCH   5  13
BRANCH   1  19
ATOM     19  N   LIG    1        5.759   1.286   0.021  0.00  0.00    -0.309 NA
ATOM     20  H   LIG    1        6.218   1.500   0.910  0.00  0.00    +0.122 HD
BRANCH  19  22
ATOM     21  C   LIG    1        6.843   3.292  -0.901  0.00  0.00    +0.020 C 
ATOM     22  C   LIG    1        5.532   2.543  -0.697  0.00  0.00    +0.078 C 
ENDBRANCH  19  22
ENDBRANCH   1  19
TORSDOF 4
