REMARK  Name = *****
REMARK                            x       y       z     vdW  Elec       q    Type
REMARK                         _______ _______ _______ _____ _____    ______ ____
ROOT
ATOM      1  N   LIG    1        5.211  -2.523  -0.584  0.00  0.00    -0.234 N 
ATOM      2  C   LIG    1        6.129  -2.862  -1.568  0.00  0.00    +0.408 C 
ATOM      3  O   LIG    1        6.582  -2.179  -2.471  0.00  0.00    -0.226 OA
ATOM      4  O   LIG    1        6.518  -4.170  -1.410  0.00  0.00    -0.443 OA
ATOM      5  C   LIG    1        5.683  -4.783  -0.419  0.00  0.00    +0.221 C 
ATOM      6  C   LIG    1        5.045  -3.627   0.315  0.00  0.00    +0.164 C 
ENDROOT
BRANCH   1  10
ATOM      7  C   LIG    1        2.165   0.365   2.084  0.00  0.00    +0.044 C 
ATOM      8  C   LIG    1        3.131   0.204   0.947  0.00  0.00    -0.049 A 
ATOM      9  C   LIG    1        3.725  -1.047   0.702  0.00  0.00    +0.027 A 
ATOM     10  C   LIG    1        4.627  -1.245  -0.358  0.00  0.00    +0.040 A 
ATOM     11  C   LIG    1        4.923  -0.142  -1.167  0.00  0.00    +0.024 A 
ATOM     12  C   LIG    1        4.352   1.111  -0.923  0.00  0.00    +0.002 A 
ATOM     13  C   LIG    1        3.459   1.285   0.129  0.00  0.00    +0.003 A 
ENDBRANCH   1  10
BRANCH   5  14
ATOM     14  C   LIG    1        4.663  -5.678  -1.121  0.00  0.00    +0.202 C 
BRANCH  14  15
ATOM     15  O   LIG    1        5.333  -6.751  -1.780  0.00  0.00    -0.391 OA
ATOM     16  H   LIG    1        5.994  -6.345  -2.373  0.00  0.00    +0.210 HD
ENDBRANCH  14  15
ENDBRANCH   5  14
TORSDOF 3
