REMARK  Name = *****
REMARK                            x       y       z     vdW  Elec       q    Type
REMARK                         _______ _______ _______ _____ _____    ______ ____
ROOT
ATOM      1  O   LIG    1        7.122  -0.074   2.714  0.00  0.00    -0.489 OA
ENDROOT
BRANCH   1   2
ATOM      2  C   LIG    1        8.181  -0.105   3.584  0.00  0.00    +0.130 C 
ATOM      3  C   LIG    1        8.676   1.129   4.071  0.00  0.00    +0.041 C 
ATOM      4  C   LIG    1        9.727   1.137   4.985  0.00  0.00    +0.050 C 
ATOM      5  N   LIG    1       10.000   2.455   5.296  0.00  0.00    -0.360 NA
ATOM      6  H   LIG    1       10.717   2.760   5.933  0.00  0.00    +0.165 HD
ATOM      7  C   LIG    1        9.152   3.286   4.608  0.00  0.00    +0.083 C 
ATOM      8  C   LIG    1       10.340  -0.035   5.450  0.00  0.00    +0.026 C 
ATOM      9  C   LIG    1        9.870  -1.246   4.921  0.00  0.00    +0.006 C 
ATOM     10  C   LIG    1        8.325   2.497   3.844  0.00  0.00    +0.031 C 
ATOM     11  C   LIG    1        8.825  -1.281   4.009  0.00  0.00    +0.046 C 
ENDBRANCH   1   2
BRANCH   1  12
ATOM     12  C   LIG    1        6.262  -1.225   2.730  0.00  0.00    +0.261 C 
BRANCH  12  13
ATOM     13  C   LIG    1        4.811  -0.745   2.558  0.00  0.00    +0.166 C 
BRANCH  13  14
ATOM     14  O   LIG    1        4.629  -0.093   1.290  0.00  0.00    -0.387 OA
ATOM     15  H   LIG    1        5.495   0.309   1.069  0.00  0.00    +0.210 HD
ENDBRANCH  13  14
BRANCH  13  16
ATOM     16  C   LIG    1        3.812  -1.913   2.659  0.00  0.00    +0.115 C 
BRANCH  16  17
ATOM     17  N   LIG    1        4.052  -2.904   1.597  0.00  0.00    -0.311 NA
ATOM     18  H   LIG    1        3.989  -2.401   0.705  0.00  0.00    +0.122 HD
BRANCH  17  20
ATOM     19  C   LIG    1        3.432  -4.943   0.426  0.00  0.00    +0.024 C 
ATOM     20  C   LIG    1        3.093  -4.014   1.597  0.00  0.00    +0.048 C 
ATOM     21  C   LIG    1        3.131  -4.814   2.900  0.00  0.00    +0.024 C 
ENDBRANCH  17  20
ENDBRANCH  16  17
ENDBRANCH  13  16
ENDBRANCH  12  13
ENDBRANCH   1  12
TORSDOF 7
