REMARK  Name = *****
REMARK                            x       y       z     vdW  Elec       q    Type
REMARK                         _______ _______ _______ _____ _____    ______ ____
ROOT
ATOM      1  C   LIG    1        8.759  -1.866  -0.530  0.00  0.00    +0.170 C 
ENDROOT
BRANCH   1   2
ATOM      2  C   LIG    1        9.046  -3.355  -0.605  0.00  0.00    +0.001 A 
ATOM      3  C   LIG    1        9.957  -3.906  -1.520  0.00  0.00    +0.048 A 
ATOM      4 CL   LIG    1       10.902  -2.925  -2.583  0.00  0.00    -0.083 Cl
ATOM      5  C   LIG    1       10.144  -5.287  -1.586  0.00  0.00    +0.040 A 
ATOM      6  C   LIG    1        9.427  -6.124  -0.736  0.00  0.00    +0.042 A 
ATOM      7 CL   LIG    1        9.613  -7.828  -0.862  0.00  0.00    -0.084 Cl
ATOM      8  C   LIG    1        8.556  -5.597   0.211  0.00  0.00    +0.020 A 
ATOM      9  C   LIG    1        8.377  -4.219   0.287  0.00  0.00    +0.009 A 
ENDBRANCH   1   2
BRANCH   1  10
ATOM     10  O   LIG    1        9.036  -1.401   0.810  0.00  0.00    -0.366 OA
BRANCH  10  11
ATOM     11  C   LIG    1       10.422  -1.530   1.165  0.00  0.00    +0.196 C 
BRANCH  11  16
ATOM     12 CL   LIG    1       11.832   0.772   6.548  0.00  0.00    -0.084 Cl
ATOM     13  C   LIG    1       11.366   0.056   5.054  0.00  0.00    +0.041 A 
ATOM     14  C   LIG    1       10.332   0.621   4.311  0.00  0.00    +0.020 A 
ATOM     15  C   LIG    1        9.990   0.077   3.072  0.00  0.00    +0.007 A 
ATOM     16  C   LIG    1       10.679  -1.033   2.566  0.00  0.00    -0.022 A 
ATOM     17  C   LIG    1       11.696  -1.613   3.344  0.00  0.00    +0.007 A 
ATOM     18  C   LIG    1       12.039  -1.069   4.585  0.00  0.00    +0.020 A 
ENDBRANCH  11  16
ENDBRANCH  10  11
ENDBRANCH   1  10
BRANCH   1  19
ATOM     19  C   LIG    1        7.277  -1.566  -0.869  0.00  0.00    +0.159 C 
BRANCH  19  20
ATOM     20  N   LIG    1        6.864  -1.982  -2.198  0.00  0.00    -0.334 N 
ATOM     21  C   LIG    1        6.298  -3.184  -2.528  0.00  0.00    +0.199 A 
ATOM     22  N   LIG    1        6.028  -3.252  -3.812  0.00  0.00    -0.244 NA
ATOM     23  C   LIG    1        6.398  -2.043  -4.320  0.00  0.00    +0.130 A 
ATOM     24  C   LIG    1        6.904  -1.230  -3.334  0.00  0.00    +0.107 A 
ENDBRANCH  19  20
ENDBRANCH   1  19
TORSDOF 6
