REMARK  Name = *****
REMARK                            x       y       z     vdW  Elec       q    Type
REMARK                         _______ _______ _______ _____ _____    ______ ____
ROOT
ATOM      1  C   LIG    1        0.976   0.102   0.034  0.00  0.00    +0.150 C 
ATOM      2  N   LIG    1        2.417   0.072   0.034  0.00  0.00    -0.328 N 
ATOM      3  C   LIG    1        3.207  -1.042   0.034  0.00  0.00    +0.151 A 
ATOM      4  C   LIG    1        2.887  -2.426   0.035  0.00  0.00    +0.282 C 
ATOM      5  N   LIG    1        4.019  -3.243   0.040  0.00  0.00    -0.262 N 
ATOM      6  C   LIG    1        5.356  -2.796   0.036  0.00  0.00    +0.333 C 
ATOM      7  N   LIG    1        5.568  -1.417   0.035  0.00  0.00    -0.280 N 
ATOM      8  C   LIG    1        6.919  -0.886   0.035  0.00  0.00    +0.155 C 
ATOM      9  O   LIG    1        6.292  -3.600   0.035  0.00  0.00    -0.246 OA
ATOM     10  C   LIG    1        3.828  -4.679   0.049  0.00  0.00    +0.157 C 
ATOM     11  O   LIG    1        1.730  -2.840   0.032  0.00  0.00    -0.265 OA
ATOM     12  C   LIG    1        4.485  -0.570   0.035  0.00  0.00    +0.168 A 
ATOM     13  N   LIG    1        4.522   0.793   0.035  0.00  0.00    -0.218 NA
ATOM     14  C   LIG    1        3.254   1.156   0.035  0.00  0.00    +0.202 A 
ENDROOT
TORSDOF 0
