REMARK  Name = *****
REMARK                            x       y       z     vdW  Elec       q    Type
REMARK                         _______ _______ _______ _____ _____    ______ ____
ROOT
ATOM      1  C   LIG    1        0.323   0.015  -0.043  0.00  0.00    +0.025 A 
ATOM      2  C   LIG    1        1.084  -0.404   1.051  0.00  0.00    +0.023 A 
ATOM      3  C   LIG    1        2.431  -0.092   1.123  0.00  0.00    +0.015 A 
ATOM      4  C   LIG    1        3.015   0.700   0.132  0.00  0.00    +0.037 A 
ATOM      5  C   LIG    1        2.283   1.115  -0.978  0.00  0.00    +0.015 A 
ATOM      6  C   LIG    1        0.927   0.792  -1.041  0.00  0.00    +0.023 A 
ENDROOT
BRANCH   4   7
ATOM      7  C   LIG    1        4.417   1.073   0.354  0.00  0.00    +0.244 C 
ATOM      8  N   LIG    1        4.878   2.265  -0.141  0.00  0.00    -0.301 N 
ATOM      9  H   LIG    1        4.174   2.954  -0.378  0.00  0.00    +0.150 HD
ATOM     10  O   LIG    1        5.141   0.314   0.978  0.00  0.00    -0.270 OA
BRANCH   8  11
ATOM     11  C   LIG    1        6.152   2.805   0.341  0.00  0.00    +0.225 C 
BRANCH  11  12
ATOM     12  C   LIG    1        7.436   2.028   0.023  0.00  0.00    +0.322 C 
ATOM     13  O   LIG    1        8.534   2.578  -0.014  0.00  0.00    -0.249 OA
BRANCH  12  14
ATOM     14  O   LIG    1        7.334   0.687  -0.104  0.00  0.00    -0.479 OA
ATOM     15  H   LIG    1        6.465   0.361   0.229  0.00  0.00    +0.295 HD
ENDBRANCH  12  14
ENDBRANCH  11  12
ENDBRANCH   8  11
ENDBRANCH   4   7
BRANCH   1  16
ATOM     16  N   LIG    1       -1.066  -0.131  -0.012  0.00  0.00    -0.358 N 
ATOM     17  H   LIG    1       -1.383  -0.920   0.543  0.00  0.00    +0.142 HD
ATOM     18  H   LIG    1       -1.506  -0.096  -0.925  0.00  0.00    +0.142 HD
ENDBRANCH   1  16
TORSDOF 5
