REMARK  Name = *****
REMARK                            x       y       z     vdW  Elec       q    Type
REMARK                         _______ _______ _______ _____ _____    ______ ____
ROOT
ATOM      1  C   LIG    1        0.595   1.024  -3.069  0.00  0.00    +0.341 C 
ATOM      2  O   LIG    1        1.028   2.160  -3.259  0.00  0.00    -0.247 OA
ENDROOT
BRANCH   1   3
ATOM      3  O   LIG    1        1.316  -0.026  -2.584  0.00  0.00    -0.459 OA
BRANCH   3  11
ATOM      4  C   LIG    1        1.433   0.019   0.719  0.00  0.00    +0.007 C 
ATOM      5  C   LIG    1        2.872   0.043   0.203  0.00  0.00    -0.010 C 
ATOM      6  C   LIG    1        3.504  -1.351   0.051  0.00  0.00    +0.010 C 
ATOM      7  C   LIG    1        3.208  -2.106  -1.264  0.00  0.00    -0.031 C 
ATOM      8  C   LIG    1        4.204  -3.283  -1.386  0.00  0.00    +0.011 C 
ATOM      9  C   LIG    1        1.800  -2.728  -1.256  0.00  0.00    +0.011 C 
ATOM     10  C   LIG    1        3.426  -1.170  -2.476  0.00  0.00    +0.051 C 
ATOM     11  C   LIG    1        2.722   0.189  -2.384  0.00  0.00    +0.177 C 
ATOM     12  C   LIG    1        3.032   0.899  -1.061  0.00  0.00    +0.048 C 
ENDBRANCH   3  11
ENDBRANCH   1   3
BRANCH   1  13
ATOM     13  C   LIG    1       -0.848   0.603  -3.378  0.00  0.00    +0.253 C 
BRANCH  13  14
ATOM     14  C   LIG    1       -0.997   0.032  -4.776  0.00  0.00    -0.008 A 
ATOM     15  C   LIG    1       -0.715   0.808  -5.913  0.00  0.00    +0.007 A 
ATOM     16  C   LIG    1       -0.880   0.283  -7.197  0.00  0.00    +0.000 A 
ATOM     17  C   LIG    1       -1.327  -1.025  -7.363  0.00  0.00    +0.000 A 
ATOM     18  C   LIG    1       -1.607  -1.810  -6.247  0.00  0.00    +0.000 A 
ATOM     19  C   LIG    1       -1.444  -1.286  -4.961  0.00  0.00    +0.007 A 
ENDBRANCH  13  14
BRANCH  13  20
ATOM     20  O   LIG    1       -1.751   1.703  -3.249  0.00  0.00    -0.376 OA
ATOM     21  H   LIG    1       -1.306   2.467  -3.660  0.00  0.00    +0.211 HD
ENDBRANCH  13  20
ENDBRANCH   1  13
TORSDOF 5
