REMARK  Name = *****
REMARK                            x       y       z     vdW  Elec       q    Type
REMARK                         _______ _______ _______ _____ _____    ______ ____
ROOT
ATOM      1  C   LIG    1      -11.970  13.140 -15.077  0.00  0.00    +0.175 C 
ATOM      2  C   LIG    1      -11.547  11.854 -15.790  0.00  0.00    +0.058 C 
ATOM      3  C   LIG    1      -11.358  10.820 -14.689  0.00  0.00    +0.090 C 
ATOM      4  C   LIG    1      -12.300  11.275 -13.568  0.00  0.00    +0.090 C 
ATOM      5  C   LIG    1      -11.947  10.518 -12.303  0.00  0.00    +0.218 C 
ATOM      6  O   LIG    1      -11.668   9.318 -12.341  0.00  0.00    -0.276 OA
ATOM      7  N   LIG    1      -12.066  11.186 -11.117  0.00  0.00    -0.301 N 
ATOM      8  H   LIG    1      -12.407  12.139 -11.085  0.00  0.00    +0.150 HD
ATOM      9  C   LIG    1      -11.814  10.519  -9.853  0.00  0.00    +0.119 C 
ATOM     10  C   LIG    1      -10.444  10.009  -9.412  0.00  0.00    +0.046 C 
ATOM     11  C   LIG    1       -9.270  10.042 -10.295  0.00  0.00    -0.025 C 
ATOM     12  C   LIG    1       -8.051   9.584  -9.964  0.00  0.00    -0.031 C 
ATOM     13  C   LIG    1       -6.795   9.579 -10.800  0.00  0.00    +0.027 C 
ATOM     14  C   LIG    1       -6.822  10.302 -12.155  0.00  0.00    +0.006 C 
ATOM     15  C   LIG    1       -7.037   9.339 -13.330  0.00  0.00    +0.019 C 
ATOM     16  C   LIG    1       -7.609  10.017 -14.579  0.00  0.00    +0.107 C 
ATOM     17  N   LIG    1       -9.056   9.840 -14.701  0.00  0.00    -0.304 N 
ATOM     18  C   LIG    1       -9.522   8.553 -15.200  0.00  0.00    +0.132 C 
ATOM     19  C   LIG    1      -10.960  11.301  -8.861  0.00  0.00    +0.046 C 
ATOM     20  C   LIG    1       -9.887  10.851 -14.263  0.00  0.00    +0.219 C 
ATOM     21  O   LIG    1       -9.454  11.816 -13.627  0.00  0.00    -0.275 OA
ATOM     22  C   LIG    1      -12.201  12.795 -13.595  0.00  0.00    +0.058 C 
ENDROOT
BRANCH   9  23
ATOM     23  C   LIG    1      -12.989   9.777  -9.309  0.00  0.00    +0.256 C 
ATOM     24  N   LIG    1      -13.528   8.732 -10.070  0.00  0.00    -0.188 N 
ATOM     25  H   LIG    1      -13.022   8.422 -10.892  0.00  0.00    +0.176 HD
ATOM     26  O   LIG    1      -13.452  10.131  -8.219  0.00  0.00    -0.272 OA
BRANCH  24  27
ATOM     27  S   LIG    1      -14.877   7.851  -9.675  0.00  0.00    +0.048 S 
ATOM     28  O   LIG    1      -14.418   6.518  -9.344  0.00  0.00    -0.155 OA
ATOM     29  O   LIG    1      -15.818   8.039 -10.767  0.00  0.00    -0.155 OA
BRANCH  27  30
ATOM     30  C   LIG    1      -15.630   8.520  -8.167  0.00  0.00    +0.151 C 
ATOM     31  C   LIG    1      -16.981   9.157  -8.335  0.00  0.00    +0.030 C 
ATOM     32  C   LIG    1      -16.851   7.807  -7.678  0.00  0.00    +0.030 C 
ENDBRANCH  27  30
ENDBRANCH  24  27
ENDBRANCH   9  23
BRANCH   1  33
ATOM     33  O   LIG    1      -10.964  14.149 -15.209  0.00  0.00    -0.488 OA
BRANCH  33  39
ATOM     34  C   LIG    1       -8.541  18.601 -15.374  0.00  0.00    +0.125 A 
ATOM     35  C   LIG    1       -9.919  18.857 -15.494  0.00  0.00    +0.017 A 
ATOM     36  C   LIG    1      -10.418  20.268 -15.710  0.00  0.00    +0.050 C 
ATOM     37  C   LIG    1      -10.847  17.817 -15.365  0.00  0.00    +0.082 A 
ATOM     38  C   LIG    1      -10.398  16.479 -15.277  0.00  0.00    +0.043 A 
ATOM     39  C   LIG    1      -11.377  15.462 -15.196  0.00  0.00    +0.132 A 
ATOM     40  C   LIG    1      -12.713  15.821 -15.096  0.00  0.00    +0.076 A 
ATOM     41  C   LIG    1      -13.064  17.150 -15.147  0.00  0.00    +0.100 A 
ATOM     42  C   LIG    1       -9.012  16.231 -15.252  0.00  0.00    +0.017 A 
ATOM     43  N   LIG    1      -12.152  18.126 -15.310  0.00  0.00    -0.244 NA
ATOM     44  C   LIG    1       -8.095  17.285 -15.268  0.00  0.00    +0.046 A 
BRANCH  41  45
ATOM     45  C   LIG    1      -14.445  17.594 -14.924  0.00  0.00    +0.127 A 
ATOM     46  S   LIG    1      -15.789  16.581 -15.320  0.00  0.00    -0.074 S 
ATOM     47  C   LIG    1      -16.854  17.731 -14.644  0.00  0.00    +0.070 A 
ATOM     48  C   LIG    1      -16.145  18.827 -14.195  0.00  0.00    +0.052 A 
ATOM     49  N   LIG    1      -14.778  18.738 -14.365  0.00  0.00    -0.242 NA
BRANCH  48  50
ATOM     50  C   LIG    1      -16.699  20.049 -13.528  0.00  0.00    +0.032 C 
ATOM     51  C   LIG    1      -15.906  21.305 -13.900  0.00  0.00    +0.014 C 
ATOM     52  C   LIG    1      -16.733  19.863 -12.011  0.00  0.00    +0.014 C 
ENDBRANCH  48  50
ENDBRANCH  41  45
BRANCH  34  54
ATOM     53  C   LIG    1       -6.484  19.580 -14.699  0.00  0.00    +0.277 C 
ATOM     54  O   LIG    1       -7.705  19.687 -15.425  0.00  0.00    -0.495 OA
ENDBRANCH  34  54
ENDBRANCH  33  39
ENDBRANCH   1  33
TORSDOF 8
