REMARK  Name = *****
REMARK                            x       y       z     vdW  Elec       q    Type
REMARK                         _______ _______ _______ _____ _____    ______ ____
ROOT
ATOM      1  C   LIG    1        6.005  -5.203  -0.271  0.00  0.00    +0.261 C 
ENDROOT
BRANCH   1   2
ATOM      2  O   LIG    1        6.501  -3.875  -0.114  0.00  0.00    -0.488 OA
BRANCH   2   6
ATOM      3  C   LIG    1       10.632  -5.553   2.105  0.00  0.00    +0.044 C 
ATOM      4  C   LIG    1        9.664  -4.447   1.786  0.00  0.00    -0.047 A 
ATOM      5  C   LIG    1        8.531  -4.718   0.985  0.00  0.00    +0.050 A 
ATOM      6  C   LIG    1        7.622  -3.695   0.666  0.00  0.00    +0.139 A 
ATOM      7  C   LIG    1        7.877  -2.401   1.130  0.00  0.00    +0.083 A 
ATOM      8 CL   LIG    1        6.809  -1.088   0.776  0.00  0.00    -0.080 Cl
ATOM      9  C   LIG    1        9.009  -2.122   1.912  0.00  0.00    +0.024 A 
ATOM     10  C   LIG    1        9.896  -3.152   2.234  0.00  0.00    +0.005 A 
ENDBRANCH   2   6
ENDBRANCH   1   2
BRANCH   1  11
ATOM     11  C   LIG    1        4.692  -5.198  -1.089  0.00  0.00    +0.166 C 
BRANCH  11  12
ATOM     12  O   LIG    1        3.823  -4.119  -0.716  0.00  0.00    -0.387 OA
ATOM     13  H   LIG    1        4.215  -3.682   0.062  0.00  0.00    +0.210 HD
ENDBRANCH  11  12
BRANCH  11  14
ATOM     14  C   LIG    1        3.938  -6.517  -0.830  0.00  0.00    +0.116 C 
BRANCH  14  15
ATOM     15  N   LIG    1        2.691  -6.656  -1.603  0.00  0.00    -0.309 NA
ATOM     16  H   LIG    1        2.131  -5.812  -1.452  0.00  0.00    +0.122 HD
BRANCH  15  17
ATOM     17  C   LIG    1        1.909  -7.871  -1.284  0.00  0.00    +0.011 C 
ATOM     18  C   LIG    1        0.648  -7.901  -2.173  0.00  0.00    +0.027 C 
ATOM     19  C   LIG    1        1.458  -7.904   0.188  0.00  0.00    +0.027 C 
ATOM     20  C   LIG    1        2.737  -9.128  -1.600  0.00  0.00    +0.027 C 
ENDBRANCH  15  17
ENDBRANCH  14  15
ENDBRANCH  11  14
ENDBRANCH   1  11
TORSDOF 7
