REMARK  Name = *****
REMARK                            x       y       z     vdW  Elec       q    Type
REMARK                         _______ _______ _______ _____ _____    ______ ____
ROOT
ATOM      1  C   LIG    1        7.351   3.543  -0.678  0.00  0.00    +0.131 A 
ATOM      2  C   LIG    1        7.590   4.916  -0.833  0.00  0.00    +0.086 A 
ATOM      3  C   LIG    1        6.534   5.784  -1.154  0.00  0.00    +0.148 A 
ATOM      4  F   LIG    1        6.791   7.089  -1.344  0.00  0.00    -0.203 F 
ATOM      5  C   LIG    1        5.230   5.315  -1.328  0.00  0.00    +0.070 A 
ATOM      6  C   LIG    1        4.990   3.962  -1.086  0.00  0.00    +0.030 A 
ATOM      7  C   LIG    1        6.030   3.096  -0.736  0.00  0.00    +0.048 A 
ENDROOT
BRANCH   5   8
ATOM      8  N   LIG    1        4.215   6.223  -1.730  0.00  0.00    -0.267 N 
ATOM      9  H   LIG    1        4.487   7.197  -1.776  0.00  0.00    +0.157 HD
ATOM     10  C   LIG    1        3.018   5.849  -2.311  0.00  0.00    +0.308 C 
ATOM     11  N   LIG    1        2.207   6.920  -2.615  0.00  0.00    -0.269 N 
ATOM     12  H   LIG    1        2.552   7.840  -2.378  0.00  0.00    +0.156 HD
ATOM     13  O   LIG    1        2.731   4.670  -2.558  0.00  0.00    -0.252 OA
BRANCH  11  14
ATOM     14  C   LIG    1        0.930   6.851  -3.221  0.00  0.00    +0.035 A 
ATOM     15  C   LIG    1        0.259   8.051  -3.475  0.00  0.00    +0.037 A 
ATOM     16  C   LIG    1       -1.024   8.076  -4.078  0.00  0.00    +0.075 A 
ATOM     17  C   LIG    1       -1.632   6.862  -4.409  0.00  0.00    +0.053 A 
ATOM     18 CL   LIG    1       -3.195   6.737  -5.122  0.00  0.00    -0.083 Cl
ATOM     19  C   LIG    1       -0.966   5.662  -4.162  0.00  0.00    +0.022 A 
ATOM     20  C   LIG    1        0.302   5.659  -3.579  0.00  0.00    +0.025 A 
BRANCH  16  21
ATOM     21  C   LIG    1       -1.633   9.429  -4.327  0.00  0.00    +0.419 C 
ATOM     22  F   LIG    1       -0.830  10.196  -5.122  0.00  0.00    -0.166 F 
ATOM     23  F   LIG    1       -1.770  10.138  -3.169  0.00  0.00    -0.166 F 
ATOM     24  F   LIG    1       -2.855   9.453  -4.916  0.00  0.00    -0.166 F 
ENDBRANCH  16  21
ENDBRANCH  11  14
ENDBRANCH   5   8
BRANCH   1  25
ATOM     25  O   LIG    1        8.430   2.706  -0.430  0.00  0.00    -0.456 OA
BRANCH  25  30
ATOM     26  C   LIG    1        8.879  -0.917  -0.242  0.00  0.00    +0.129 A 
ATOM     27  N   LIG    1        8.149  -1.398  -1.290  0.00  0.00    -0.250 NA
ATOM     28  C   LIG    1        7.573  -0.480  -2.085  0.00  0.00    +0.115 A 
ATOM     29  C   LIG    1        7.713   0.887  -1.908  0.00  0.00    +0.066 A 
ATOM     30  C   LIG    1        8.348   1.357  -0.754  0.00  0.00    +0.132 A 
ATOM     31  C   LIG    1        8.983   0.437   0.079  0.00  0.00    +0.079 A 
BRANCH  26  35
ATOM     32  C   LIG    1       10.713  -4.191   0.241  0.00  0.00    +0.128 C 
ATOM     33  N   LIG    1        9.924  -3.091  -0.261  0.00  0.00    -0.313 N 
ATOM     34  H   LIG    1        9.540  -3.120  -1.193  0.00  0.00    +0.149 HD
ATOM     35  C   LIG    1        9.667  -1.957   0.487  0.00  0.00    +0.262 C 
ATOM     36  O   LIG    1       10.057  -1.778   1.639  0.00  0.00    -0.269 OA
ENDBRANCH  26  35
ENDBRANCH  25  30
ENDBRANCH   1  25
TORSDOF 6
