REMARK  Name = *****
REMARK                            x       y       z     vdW  Elec       q    Type
REMARK                         _______ _______ _______ _____ _____    ______ ____
ROOT
ATOM      1  C   LIG    1        6.562  -1.682   1.853  0.00  0.00    +0.034 A 
ATOM      2  C   LIG    1        6.938  -2.483   2.942  0.00  0.00    +0.038 A 
ATOM      3  C   LIG    1        8.295  -2.797   3.179  0.00  0.00    +0.060 A 
ATOM      4  C   LIG    1        9.284  -2.315   2.293  0.00  0.00    +0.131 A 
ATOM      5  C   LIG    1        8.876  -1.539   1.208  0.00  0.00    +0.048 A 
ATOM      6  C   LIG    1        7.545  -1.243   0.989  0.00  0.00    +0.027 A 
ENDROOT
BRANCH   1   8
ATOM      7  C   LIG    1        4.715  -0.519   0.676  0.00  0.00    +0.217 C 
ATOM      8  N   LIG    1        5.212  -1.346   1.692  0.00  0.00    -0.285 N 
ATOM      9  H   LIG    1        4.560  -1.681   2.381  0.00  0.00    +0.155 HD
ATOM     10  O   LIG    1        5.343   0.031  -0.209  0.00  0.00    -0.276 OA
BRANCH   7  11
ATOM     11  C   LIG    1        3.224  -0.286   0.784  0.00  0.00    +0.096 C 
BRANCH  11  13
ATOM     12  C   LIG    1        1.487   1.226   1.753  0.00  0.00    +0.004 C 
ATOM     13  C   LIG    1        2.973   0.938   1.651  0.00  0.00    +0.006 C 
ENDBRANCH  11  13
ENDBRANCH   7  11
ENDBRANCH   1   8
BRANCH   3  14
ATOM     14  C   LIG    1        8.612  -3.648   4.375  0.00  0.00    +0.164 C 
ATOM     15  O   LIG    1        9.560  -4.432   4.360  0.00  0.00    -0.292 OA
ATOM     16  C   LIG    1        7.718  -3.538   5.598  0.00  0.00    +0.091 C 
ENDBRANCH   3  14
BRANCH   4  17
ATOM     17  O   LIG    1       10.612  -2.570   2.521  0.00  0.00    -0.489 OA
BRANCH  17  18
ATOM     18  C   LIG    1       11.593  -1.974   1.641  0.00  0.00    +0.261 C 
BRANCH  18  19
ATOM     19  C   LIG    1       12.059  -0.579   2.114  0.00  0.00    +0.166 C 
BRANCH  19  20
ATOM     20  O   LIG    1       10.982   0.358   2.162  0.00  0.00    -0.387 OA
ATOM     21  H   LIG    1       10.378   0.017   2.851  0.00  0.00    +0.210 HD
ENDBRANCH  19  20
BRANCH  19  22
ATOM     22  C   LIG    1       12.759  -0.652   3.483  0.00  0.00    +0.115 C 
BRANCH  22  23
ATOM     23  N   LIG    1       11.875  -1.156   4.550  0.00  0.00    -0.311 NA
ATOM     24  H   LIG    1       11.497  -2.067   4.256  0.00  0.00    +0.122 HD
BRANCH  23  25
ATOM     25  C   LIG    1       12.566  -1.324   5.835  0.00  0.00    +0.048 C 
ATOM     26  C   LIG    1       13.755  -2.282   5.735  0.00  0.00    +0.024 C 
ATOM     27  C   LIG    1       11.574  -1.855   6.876  0.00  0.00    +0.024 C 
ENDBRANCH  23  25
ENDBRANCH  22  23
ENDBRANCH  19  22
ENDBRANCH  18  19
ENDBRANCH  17  18
ENDBRANCH   4  17
TORSDOF 11
