REMARK  Name = *****
REMARK                            x       y       z     vdW  Elec       q    Type
REMARK                         _______ _______ _______ _____ _____    ______ ____
ROOT
ATOM      1  C   LIG    1        5.189  -0.296   0.767  0.00  0.00    +0.062 A 
ATOM      2  C   LIG    1        5.205   1.062   0.376  0.00  0.00    +0.058 A 
ATOM      3  I   LIG    1        3.750   1.710  -1.084  0.00  0.00    -0.040 I 
ATOM      4  C   LIG    1        6.231   1.919   0.828  0.00  0.00    +0.065 A 
ATOM      5  C   LIG    1        7.209   1.398   1.730  0.00  0.00    +0.051 A 
ATOM      6  I   LIG    1        8.352   2.914   2.849  0.00  0.00    -0.041 I 
ATOM      7  C   LIG    1        7.286   0.011   2.040  0.00  0.00    +0.089 A 
ATOM      8  C   LIG    1        6.253  -0.827   1.539  0.00  0.00    +0.051 A 
ATOM      9  I   LIG    1        6.092  -2.927   2.059  0.00  0.00    -0.041 I 
ENDROOT
BRANCH   1  12
ATOM     10  C   LIG    1        1.852  -2.003   0.616  0.00  0.00    +0.109 C 
ATOM     11  C   LIG    1        2.929  -1.072   1.108  0.00  0.00    +0.214 C 
ATOM     12  N   LIG    1        4.104  -1.127   0.362  0.00  0.00    -0.284 N 
ATOM     13  H   LIG    1        4.351  -2.076   0.101  0.00  0.00    +0.155 HD
ATOM     14  O   LIG    1        2.760  -0.343   2.083  0.00  0.00    -0.276 OA
ENDBRANCH   1  12
BRANCH   4  15
ATOM     15  N   LIG    1        6.366   3.259   0.318  0.00  0.00    -0.273 N 
ATOM     16  C   LIG    1        7.509   3.582  -0.420  0.00  0.00    +0.216 C 
ATOM     17  O   LIG    1        8.393   2.759  -0.677  0.00  0.00    -0.276 OA
ATOM     18  C   LIG    1        7.662   4.999  -0.927  0.00  0.00    +0.110 C 
ATOM     19  C   LIG    1        5.315   4.220   0.631  0.00  0.00    +0.138 C 
ENDBRANCH   4  15
BRANCH   7  20
ATOM     20  C   LIG    1        8.448  -0.599   2.768  0.00  0.00    +0.339 C 
ATOM     21  O   LIG    1        8.903  -1.708   2.489  0.00  0.00    -0.245 OA
BRANCH  20  22
ATOM     22  O   LIG    1        8.981   0.097   3.783  0.00  0.00    -0.477 OA
ATOM     23  H   LIG    1        8.675   1.019   3.860  0.00  0.00    +0.295 HD
ENDBRANCH  20  22
ENDBRANCH   7  20
TORSDOF 4
