REMARK  Name = *****
REMARK                            x       y       z     vdW  Elec       q    Type
REMARK                         _______ _______ _______ _____ _____    ______ ____
ROOT
ATOM      1  C   LIG    1        4.326  -0.027   0.083  0.00  0.00    +0.317 C 
ATOM      2 CL   LIG    1        4.749  -1.441   1.208  0.00  0.00    -0.075 Cl
ATOM      3 CL   LIG    1        5.120   1.424   0.792  0.00  0.00    -0.075 Cl
ENDROOT
BRANCH   1   5
ATOM      4  O   LIG    1        0.952  -0.027   0.083  0.00  0.00    -0.255 OA
ATOM      5  P   LIG    1        2.496  -0.027   0.083  0.00  0.00    +0.375 P 
BRANCH   5   6
ATOM      6  O   LIG    1        2.474   0.418   1.675  0.00  0.00    -0.322 OA
ATOM      7  H   LIG    1        1.538   0.536   1.939  0.00  0.00    +0.220 HD
ENDBRANCH   5   6
BRANCH   5   8
ATOM      8  O   LIG    1        2.495   1.500  -0.532  0.00  0.00    -0.322 OA
ATOM      9  H   LIG    1        1.579   1.843  -0.483  0.00  0.00    +0.220 HD
ENDBRANCH   5   8
ENDBRANCH   1   5
BRANCH   1  10
ATOM     10  P   LIG    1        5.159  -0.406  -1.486  0.00  0.00    +0.375 P 
ATOM     11  O   LIG    1        5.440   0.680  -2.482  0.00  0.00    -0.255 OA
BRANCH  10  12
ATOM     12  O   LIG    1        4.309  -1.574  -2.194  0.00  0.00    -0.322 OA
ATOM     13  H   LIG    1        4.593  -1.725  -3.119  0.00  0.00    +0.220 HD
ENDBRANCH  10  12
BRANCH  10  14
ATOM     14  O   LIG    1        6.511  -1.223  -1.173  0.00  0.00    -0.322 OA
ATOM     15  H   LIG    1        7.127  -1.296  -1.925  0.00  0.00    +0.220 HD
ENDBRANCH  10  14
ENDBRANCH   1  10
TORSDOF 6
