REMARK  Name = *****
REMARK                            x       y       z     vdW  Elec       q    Type
REMARK                         _______ _______ _______ _____ _____    ______ ____
ROOT
ATOM      1  O   LIG    1        0.915   0.037   0.209  0.00  0.00    -0.268 OA
ATOM      2  C   LIG    1        2.131   0.063   0.067  0.00  0.00    +0.252 C 
ATOM      3  N   LIG    1        2.899  -1.074  -0.005  0.00  0.00    -0.328 N 
ATOM      4  H   LIG    1        2.399  -1.952   0.068  0.00  0.00    +0.168 HD
ATOM      5  C   LIG    1        4.263  -1.065  -0.174  0.00  0.00    +0.109 C 
ATOM      6  C   LIG    1        4.931   0.094  -0.278  0.00  0.00    +0.098 C 
ATOM      7 CL   LIG    1        6.641   0.088  -0.498  0.00  0.00    -0.078 Cl
ATOM      8  C   LIG    1        4.195   1.346  -0.206  0.00  0.00    +0.142 C 
ATOM      9  C   LIG    1        2.863   1.351  -0.039  0.00  0.00    +0.117 C 
ENDROOT
BRANCH   8  10
ATOM     10  O   LIG    1        4.936   2.503  -0.317  0.00  0.00    -0.505 OA
ATOM     11  H   LIG    1        4.339   3.269  -0.273  0.00  0.00    +0.292 HD
ENDBRANCH   8  10
TORSDOF 1
