REMARK  Name = *****
REMARK                            x       y       z     vdW  Elec       q    Type
REMARK                         _______ _______ _______ _____ _____    ______ ____
ROOT
ATOM      1  C   LIG    1        2.546   0.062  -0.001  0.00  0.00    +0.088 C 
ENDROOT
BRANCH   1   2
ATOM      2  N   LIG    1        1.082   0.038   0.031  0.00  0.00    -0.329 NA
ATOM      3  H   LIG    1        0.714   0.819  -0.512  0.00  0.00    +0.118 HD
ATOM      4  H   LIG    1        0.752  -0.807  -0.436  0.00  0.00    +0.118 HD
ENDBRANCH   1   2
BRANCH   1   5
ATOM      5  C   LIG    1        3.093   1.324   0.671  0.00  0.00    +0.080 C 
BRANCH   5   6
ATOM      6  S   LIG    1        4.911   1.344   0.628  0.00  0.00    -0.177 S 
ATOM      7  H   LIG    1        5.093   0.276   1.419  0.00  0.00    +0.102 HD
ENDBRANCH   5   6
ENDBRANCH   1   5
TORSDOF 3
