REMARK  Name = *****
REMARK                            x       y       z     vdW  Elec       q    Type
REMARK                         _______ _______ _______ _____ _____    ______ ____
ROOT
ATOM      1  N   LIG    1        4.730  -6.971   3.155  0.00  0.00    -0.310 NA
ATOM      2  H   LIG    1        4.412  -6.463   3.983  0.00  0.00    +0.122 HD
ENDROOT
BRANCH   1   4
ATOM      3  C   LIG    1        2.411  -6.700   2.271  0.00  0.00    +0.024 C 
ATOM      4  C   LIG    1        3.920  -6.534   1.996  0.00  0.00    +0.055 C 
BRANCH   4   5
ATOM      5  C   LIG    1        4.304  -7.173   0.630  0.00  0.00    +0.053 C 
BRANCH   5   6
ATOM      6  C   LIG    1        5.659  -6.874   0.009  0.00  0.00    -0.042 A 
ATOM      7  C   LIG    1        6.223  -7.820  -0.867  0.00  0.00    +0.053 A 
ATOM      8  C   LIG    1        7.373  -7.501  -1.556  0.00  0.00    +0.167 A 
ATOM      9  O   LIG    1        8.004  -8.285  -2.470  0.00  0.00    -0.453 OA
ATOM     10  C   LIG    1        9.113  -7.438  -2.843  0.00  0.00    +0.466 C 
ATOM     11  O   LIG    1        9.114  -6.168  -2.159  0.00  0.00    -0.453 OA
ATOM     12  C   LIG    1        8.000  -6.286  -1.385  0.00  0.00    +0.166 A 
ATOM     13  C   LIG    1        7.498  -5.340  -0.531  0.00  0.00    +0.050 A 
ATOM     14  C   LIG    1        6.311  -5.624   0.160  0.00  0.00    +0.007 A 
ENDBRANCH   5   6
ENDBRANCH   4   5
ENDBRANCH   1   4
BRANCH   1  15
ATOM     15  C   LIG    1        4.650  -8.420   3.421  0.00  0.00    +0.117 C 
BRANCH  15  16
ATOM     16  C   LIG    1        5.386  -8.941   4.678  0.00  0.00    +0.158 C 
BRANCH  16  17
ATOM     17  C   LIG    1        4.864  -8.353   5.975  0.00  0.00    -0.014 A 
ATOM     18  C   LIG    1        5.455  -7.184   6.474  0.00  0.00    +0.055 A 
ATOM     19  C   LIG    1        5.038  -6.667   7.690  0.00  0.00    +0.159 A 
ATOM     20  C   LIG    1        4.012  -7.271   8.411  0.00  0.00    +0.158 A 
ATOM     21  C   LIG    1        3.385  -8.407   7.919  0.00  0.00    +0.049 A 
ATOM     22  C   LIG    1        3.810  -8.946   6.699  0.00  0.00    +0.010 A 
BRANCH  19  23
ATOM     23  O   LIG    1        5.668  -5.563   8.188  0.00  0.00    -0.503 OA
ATOM     24  H   LIG    1        5.288  -5.448   9.081  0.00  0.00    +0.292 HD
ENDBRANCH  19  23
BRANCH  20  25
ATOM     25  O   LIG    1        3.660  -6.707   9.606  0.00  0.00    -0.503 OA
ATOM     26  H   LIG    1        2.882  -7.181   9.947  0.00  0.00    +0.292 HD
ENDBRANCH  20  25
ENDBRANCH  16  17
BRANCH  16  27
ATOM     27  O   LIG    1        5.252 -10.371   4.707  0.00  0.00    -0.386 OA
ATOM     28  H   LIG    1        5.522 -10.663   5.594  0.00  0.00    +0.210 HD
ENDBRANCH  16  27
ENDBRANCH  15  16
ENDBRANCH   1  15
TORSDOF 9
