REMARK  Name = *****
REMARK                            x       y       z     vdW  Elec       q    Type
REMARK                         _______ _______ _______ _____ _____    ______ ____
ROOT
ATOM      1  C   LIG    1        4.283   1.289   2.794  0.00  0.00    +0.162 C 
ENDROOT
BRANCH   1   2
ATOM      2  C   LIG    1        5.436   2.045   3.469  0.00  0.00    -0.007 A 
ATOM      3  C   LIG    1        5.405   2.510   4.815  0.00  0.00    +0.009 A 
ATOM      4  C   LIG    1        6.501   3.265   5.286  0.00  0.00    +0.071 A 
ATOM      5  C   LIG    1        6.470   3.796   6.570  0.00  0.00    +0.032 A 
ATOM      6  C   LIG    1        5.393   3.560   7.426  0.00  0.00    +0.048 A 
ATOM      7  C   LIG    1        4.346   2.750   7.017  0.00  0.00    +0.121 A 
ATOM      8  N   LIG    1        7.607   3.499   4.559  0.00  0.00    -0.255 NA
ATOM      9  C   LIG    1        7.661   2.966   3.327  0.00  0.00    +0.112 A 
ATOM     10  C   LIG    1        4.347   2.230   5.719  0.00  0.00    +0.056 A 
ATOM     11  C   LIG    1        6.625   2.265   2.749  0.00  0.00    +0.026 A 
BRANCH   7  12
ATOM     12  O   LIG    1        3.362   2.545   7.945  0.00  0.00    -0.495 OA
ATOM     13  C   LIG    1        2.549   1.393   7.748  0.00  0.00    +0.277 C 
ENDBRANCH   7  12
ENDBRANCH   1   2
BRANCH   1  17
ATOM     14  C   LIG    1        1.940   2.021  -0.302  0.00  0.00    +0.028 C 
ATOM     15  C   LIG    1        1.976   3.339   0.508  0.00  0.00    -0.000 C 
ATOM     16  C   LIG    1        3.148   3.297   1.514  0.00  0.00    +0.026 C 
ATOM     17  C   LIG    1        2.967   2.125   2.507  0.00  0.00    +0.090 C 
ATOM     18  N   LIG    1        1.747   1.312   2.129  0.00  0.00    -0.296 NA
ATOM     19  C   LIG    1        0.566   2.211   2.270  0.00  0.00    +0.085 C 
ATOM     20  C   LIG    1        0.653   3.407   1.304  0.00  0.00    +0.019 C 
ATOM     21  C   LIG    1        1.744   0.863   0.709  0.00  0.00    +0.092 C 
BRANCH  14  23
ATOM     22  C   LIG    1        3.122   1.607  -2.499  0.00  0.00    +0.004 C 
ATOM     23  C   LIG    1        3.154   1.800  -1.176  0.00  0.00    -0.029 C 
ENDBRANCH  14  23
ENDBRANCH   1  17
BRANCH   1  24
ATOM     24  O   LIG    1        4.801   0.724   1.586  0.00  0.00    -0.386 OA
ATOM     25  H   LIG    1        4.091   0.196   1.202  0.00  0.00    +0.210 HD
ENDBRANCH   1  24
TORSDOF 5
