REMARK  Name = *****
REMARK                            x       y       z     vdW  Elec       q    Type
REMARK                         _______ _______ _______ _____ _____    ______ ____
ROOT
ATOM      1  C   LIG    1        3.206  -0.132   1.412  0.00  0.00    +0.144 C 
ATOM      2  C   LIG    1        2.716  -0.822   0.137  0.00  0.00    +0.239 C 
ATOM      3  O   LIG    1        2.083  -0.249  -0.750  0.00  0.00    -0.274 OA
ATOM      4  N   LIG    1        2.971  -2.162   0.020  0.00  0.00    -0.239 N 
ATOM      5  H   LIG    1        2.611  -2.619  -0.807  0.00  0.00    +0.159 HD
ATOM      6  C   LIG    1        3.765  -2.909   0.828  0.00  0.00    +0.312 C 
ATOM      7  O   LIG    1        3.987  -4.094   0.594  0.00  0.00    -0.252 OA
ATOM      8  N   LIG    1        4.337  -2.275   1.884  0.00  0.00    -0.239 N 
ATOM      9  H   LIG    1        5.002  -2.813   2.423  0.00  0.00    +0.159 HD
ATOM     10  C   LIG    1        4.271  -0.935   2.158  0.00  0.00    +0.239 C 
ATOM     11  O   LIG    1        5.014  -0.457   3.015  0.00  0.00    -0.274 OA
ENDROOT
BRANCH   1  12
ATOM     12  C   LIG    1        1.992  -0.002   2.378  0.00  0.00    -0.049 C 
ATOM     13  C   LIG    1        1.321  -1.293   2.863  0.00  0.00    +0.035 C 
ATOM     14  C   LIG    1        0.065  -1.068   3.740  0.00  0.00    -0.006 C 
ATOM     15  C   LIG    1        0.355   0.051   4.737  0.00  0.00    +0.011 C 
ATOM     16  C   LIG    1        0.336   1.252   3.793  0.00  0.00    +0.012 C 
ATOM     17  C   LIG    1       -0.970   1.034   3.021  0.00  0.00    +0.008 C 
ATOM     18  C   LIG    1       -1.107  -0.494   2.920  0.00  0.00    +0.004 C 
ATOM     19  C   LIG    1        1.499   1.175   2.830  0.00  0.00    -0.023 C 
ENDBRANCH   1  12
BRANCH   1  21
ATOM     20  C   LIG    1        5.032   1.184   0.104  0.00  0.00    +0.005 C 
ATOM     21  C   LIG    1        3.808   1.250   1.015  0.00  0.00    +0.026 C 
ENDBRANCH   1  21
TORSDOF 2
