REMARK  Name = *****
REMARK                            x       y       z     vdW  Elec       q    Type
REMARK                         _______ _______ _______ _____ _____    ______ ____
ROOT
ATOM      1  C   LIG    1       -0.820  -1.412   1.170  0.00  0.00    +0.050 C 
ATOM      2  C   LIG    1        0.031  -0.262   0.644  0.00  0.00    +0.173 C 
ATOM      3  S   LIG    1        0.312  -0.445  -1.127  0.00  0.00    -0.127 S 
ATOM      4  C   LIG    1       -0.595   1.061  -1.515  0.00  0.00    +0.108 C 
ATOM      5  C   LIG    1       -1.363   1.464  -0.249  0.00  0.00    +0.095 C 
ATOM      6  C   LIG    1       -1.524   3.023  -0.141  0.00  0.00    +0.026 C 
ATOM      7  C   LIG    1       -1.843   3.338   1.329  0.00  0.00    +0.022 C 
ATOM      8  C   LIG    1       -2.990   2.399   1.771  0.00  0.00    +0.085 C 
ATOM      9  N   LIG    1       -3.714   1.825   0.599  0.00  0.00    -0.299 NA
ATOM     10  C   LIG    1       -4.044   2.926  -0.324  0.00  0.00    +0.085 C 
ATOM     11  C   LIG    1       -2.756   3.498  -0.953  0.00  0.00    +0.022 C 
ATOM     12  C   LIG    1       -2.807   0.896  -0.139  0.00  0.00    +0.120 C 
ATOM     13  O   LIG    1       -0.567   1.016   0.878  0.00  0.00    -0.358 OA
ENDROOT
TORSDOF 0
