REMARK  Name = *****
REMARK                            x       y       z     vdW  Elec       q    Type
REMARK                         _______ _______ _______ _____ _____    ______ ____
ROOT
ATOM      1  C   LIG    1        2.916   0.577  -0.024  0.00  0.00    +0.226 C 
ATOM      2  N   LIG    1        4.238   0.567  -0.428  0.00  0.00    -0.304 N 
ATOM      3  H   LIG    1        4.792  -0.270  -0.274  0.00  0.00    +0.149 HD
ATOM      4  O   LIG    1        2.241   1.601  -0.083  0.00  0.00    -0.275 OA
ENDROOT
BRANCH   1   6
ATOM      5  C   LIG    1        0.921  -0.624   0.927  0.00  0.00    +0.028 C 
ATOM      6  C   LIG    1        2.367  -0.767   0.469  0.00  0.00    +0.126 C 
BRANCH   6   7
ATOM      7  S   LIG    1        2.490  -2.016  -0.863  0.00  0.00    -0.166 S 
ATOM      8  H   LIG    1        1.617  -1.446  -1.708  0.00  0.00    +0.102 HD
ENDBRANCH   6   7
ENDBRANCH   1   6
BRANCH   2   9
ATOM      9  C   LIG    1        4.928   1.797  -0.830  0.00  0.00    +0.224 C 
BRANCH   9  10
ATOM     10  C   LIG    1        4.854   2.068  -2.335  0.00  0.00    +0.322 C 
ATOM     11  O   LIG    1        5.420   2.996  -2.887  0.00  0.00    -0.249 OA
BRANCH  10  12
ATOM     12  O   LIG    1        4.119   1.157  -3.020  0.00  0.00    -0.479 OA
ATOM     13  H   LIG    1        3.723   0.511  -2.404  0.00  0.00    +0.295 HD
ENDBRANCH  10  12
ENDBRANCH   9  10
ENDBRANCH   2   9
TORSDOF 5
