REMARK  Name = *****
REMARK                            x       y       z     vdW  Elec       q    Type
REMARK                         _______ _______ _______ _____ _____    ______ ____
ROOT
ATOM      1  C   LIG    1        3.316  -1.562   0.633  0.00  0.00    +0.054 C 
ENDROOT
BRANCH   1   3
ATOM      2  C   LIG    1        4.163   0.700   1.594  0.00  0.00    +0.135 A 
ATOM      3  C   LIG    1        3.927  -0.683   1.742  0.00  0.00    +0.003 A 
ATOM      4  C   LIG    1        4.292  -1.246   2.978  0.00  0.00    +0.013 A 
ATOM      5  C   LIG    1        4.726  -0.493   4.077  0.00  0.00    -0.022 A 
ATOM      6  C   LIG    1        4.881   0.880   3.915  0.00  0.00    +0.009 A 
ATOM      7  C   LIG    1        4.630   1.471   2.672  0.00  0.00    +0.047 A 
BRANCH   2   8
ATOM      8  O   LIG    1        3.802   1.329   0.372  0.00  0.00    -0.425 OA
BRANCH   8   9
ATOM      9  C   LIG    1        4.481   2.458  -0.130  0.00  0.00    +0.315 C 
ATOM     10  O   LIG    1        5.545   2.886   0.263  0.00  0.00    -0.250 OA
BRANCH   9  12
ATOM     11  C   LIG    1        2.280   3.481  -0.784  0.00  0.00    +0.019 C 
ATOM     12  C   LIG    1        3.663   3.058  -1.276  0.00  0.00    +0.092 C 
ATOM     13  C   LIG    1        4.383   4.262  -1.889  0.00  0.00    +0.019 C 
ENDBRANCH   9  12
ENDBRANCH   8   9
ENDBRANCH   2   8
BRANCH   5  14
ATOM     14  C   LIG    1        5.009  -1.194   5.383  0.00  0.00    +0.191 C 
BRANCH  14  15
ATOM     15  O   LIG    1        3.870  -1.252   6.233  0.00  0.00    -0.390 OA
ATOM     16  H   LIG    1        3.185  -0.664   5.876  0.00  0.00    +0.210 HD
ENDBRANCH  14  15
ENDBRANCH   5  14
ENDBRANCH   1   3
BRANCH   1  17
ATOM     17  C   LIG    1        4.348  -2.186  -0.309  0.00  0.00    -0.040 A 
ATOM     18  C   LIG    1        4.155  -2.139  -1.702  0.00  0.00    +0.004 A 
ATOM     19  C   LIG    1        5.120  -2.647  -2.579  0.00  0.00    +0.000 A 
ATOM     20  C   LIG    1        6.278  -3.237  -2.080  0.00  0.00    +0.000 A 
ATOM     21  C   LIG    1        6.460  -3.340  -0.705  0.00  0.00    +0.000 A 
ATOM     22  C   LIG    1        5.506  -2.816   0.171  0.00  0.00    +0.004 A 
ENDBRANCH   1  17
BRANCH   1  23
ATOM     23  C   LIG    1        2.181  -2.573   1.087  0.00  0.00    +0.028 C 
BRANCH  23  24
ATOM     24  C   LIG    1        2.629  -3.917   1.726  0.00  0.00    +0.086 C 
BRANCH  24  25
ATOM     25  N   LIG    1        1.606  -4.910   2.187  0.00  0.00    -0.297 NA
BRANCH  25  26
ATOM     26  C   LIG    1        2.196  -5.781   3.259  0.00  0.00    +0.051 C 
ATOM     27  C   LIG    1        3.531  -6.485   2.945  0.00  0.00    +0.024 C 
ATOM     28  C   LIG    1        1.281  -6.823   3.914  0.00  0.00    +0.024 C 
ENDBRANCH  25  26
BRANCH  25  29
ATOM     29  C   LIG    1        0.841  -5.532   1.077  0.00  0.00    +0.051 C 
ATOM     30  C   LIG    1       -0.313  -6.478   1.460  0.00  0.00    +0.024 C 
ATOM     31  C   LIG    1        1.689  -6.279   0.046  0.00  0.00    +0.024 C 
ENDBRANCH  25  29
ENDBRANCH  24  25
ENDBRANCH  23  24
ENDBRANCH   1  23
TORSDOF 12
