REMARK  Name = *****
REMARK                            x       y       z     vdW  Elec       q    Type
REMARK                         _______ _______ _______ _____ _____    ______ ____
ROOT
ATOM      1  C   LIG    1        1.514   0.054   2.425  0.00  0.00    -0.008 A 
ATOM      2  S   LIG    1        2.525   0.341   3.771  0.00  0.00    -0.075 S 
ATOM      3  C   LIG    1        3.238  -1.187   3.643  0.00  0.00    +0.097 A 
ATOM      4  N   LIG    1        4.163  -1.612   4.603  0.00  0.00    -0.275 N 
ATOM      5  C   LIG    1        4.360  -2.938   4.938  0.00  0.00    +0.160 A 
ATOM      6  C   LIG    1        3.532  -4.022   4.362  0.00  0.00    +0.218 C 
ATOM      7  N   LIG    1        3.713  -4.138   2.920  0.00  0.00    -0.275 NA
ATOM      8  C   LIG    1        3.363  -3.198   2.111  0.00  0.00    +0.077 C 
ATOM      9  N   LIG    1        5.255  -3.044   5.895  0.00  0.00    -0.132 NA
ATOM     10  N   LIG    1        5.675  -1.784   6.210  0.00  0.00    -0.134 NA
ATOM     11  C   LIG    1        5.029  -0.925   5.445  0.00  0.00    +0.135 A 
ATOM     12  C   LIG    1        5.297   0.532   5.431  0.00  0.00    +0.088 C 
ATOM     13  C   LIG    1        2.781  -1.926   2.564  0.00  0.00    +0.032 A 
ATOM     14  C   LIG    1        1.715  -1.211   1.908  0.00  0.00    +0.023 A 
ENDROOT
BRANCH   8  15
ATOM     15  C   LIG    1        3.553  -3.447   0.643  0.00  0.00    +0.019 A 
ATOM     16  C   LIG    1        3.974  -2.490  -0.295  0.00  0.00    +0.050 A 
ATOM     17 CL   LIG    1        4.457  -0.879   0.108  0.00  0.00    -0.083 Cl
ATOM     18  C   LIG    1        4.110  -2.846  -1.645  0.00  0.00    +0.021 A 
ATOM     19  C   LIG    1        3.885  -4.157  -2.063  0.00  0.00    +0.002 A 
ATOM     20  C   LIG    1        3.522  -5.125  -1.133  0.00  0.00    +0.001 A 
ATOM     21  C   LIG    1        3.351  -4.771   0.207  0.00  0.00    +0.011 A 
ENDBRANCH   8  15
BRANCH   1  23
ATOM     22  C   LIG    1        1.259   1.996   0.880  0.00  0.00    +0.009 C 
ATOM     23  C   LIG    1        0.586   1.123   1.931  0.00  0.00    +0.039 C 
ENDBRANCH   1  23
TORSDOF 2
