REMARK  Name = *****
REMARK                            x       y       z     vdW  Elec       q    Type
REMARK                         _______ _______ _______ _____ _____    ______ ____
ROOT
ATOM      1  C   LIG    1        3.040   1.279  -0.868  0.00  0.00    +0.040 C 
ATOM      2  C   LIG    1        2.604   0.111   0.008  0.00  0.00    +0.137 C 
ENDROOT
BRANCH   2   3
ATOM      3  O   LIG    1        1.180   0.042   0.028  0.00  0.00    -0.390 OA
ATOM      4  H   LIG    1        0.843   0.906   0.324  0.00  0.00    +0.210 HD
ENDBRANCH   2   3
BRANCH   2   5
ATOM      5  C   LIG    1        3.142   0.223   1.440  0.00  0.00    +0.186 C 
BRANCH   5   6
ATOM      6  O   LIG    1        4.562   0.208   1.474  0.00  0.00    -0.393 OA
ATOM      7  H   LIG    1        4.850  -0.671   1.171  0.00  0.00    +0.209 HD
ENDBRANCH   5   6
ENDBRANCH   2   5
TORSDOF 3
