REMARK  Name = *****
REMARK                            x       y       z     vdW  Elec       q    Type
REMARK                         _______ _______ _______ _____ _____    ______ ____
ROOT
ATOM      1  C   LIG    1        3.093  -0.518   0.937  0.00  0.00    +0.030 A 
ATOM      2  C   LIG    1        2.644  -1.849   0.926  0.00  0.00    +0.040 A 
ATOM      3  C   LIG    1        3.224  -2.856   1.727  0.00  0.00    +0.040 A 
ATOM      4  C   LIG    1        4.276  -2.539   2.586  0.00  0.00    +0.078 A 
ATOM      5  N   LIG    1        4.925  -3.448   3.432  0.00  0.00    -0.246 NA
ATOM      6  C   LIG    1        4.596  -4.696   3.458  0.00  0.00    +0.079 A 
ATOM      7  C   LIG    1        3.548  -5.397   2.669  0.00  0.00    +0.044 A 
ATOM      8  C   LIG    1        3.351  -6.719   2.793  0.00  0.00    +0.095 A 
ATOM      9  C   LIG    1        4.145  -7.583   3.718  0.00  0.00    +0.203 A 
ATOM     10  N   LIG    1        3.959  -8.871   3.810  0.00  0.00    -0.234 N 
ATOM     11  C   LIG    1        4.666  -9.718   4.825  0.00  0.00    +0.432 C 
ATOM     12  C   LIG    1        3.026  -9.621   2.908  0.00  0.00    +0.432 C 
ATOM     13  C   LIG    1        5.167  -6.862   4.529  0.00  0.00    +0.080 A 
ATOM     14  C   LIG    1        5.363  -5.548   4.399  0.00  0.00    +0.035 A 
ATOM     15  C   LIG    1        4.725  -1.219   2.624  0.00  0.00    +0.030 A 
ATOM     16  S   LIG    1        2.556  -4.499   1.583  0.00  0.00    -0.085 S 
ATOM     17  C   LIG    1        4.144  -0.232   1.819  0.00  0.00    +0.025 A 
ENDROOT
BRANCH   1  19
ATOM     18  C   LIG    1        1.341   0.181  -0.666  0.00  0.00    +0.129 C 
ATOM     19  N   LIG    1        2.511   0.486   0.156  0.00  0.00    -0.336 N 
ATOM     20  C   LIG    1        3.408   1.506  -0.395  0.00  0.00    +0.129 C 
ENDBRANCH   1  19
TORSDOF 1
