REMARK  Name = *****
REMARK                            x       y       z     vdW  Elec       q    Type
REMARK                         _______ _______ _______ _____ _____    ______ ____
ROOT
ATOM      1  C   LIG    1        9.418  -8.053  -1.412  0.00  0.00    +0.031 C 
ATOM      2  C   LIG    1        9.452  -8.367  -2.911  0.00  0.00    +0.121 C 
ATOM      3  C   LIG    1       10.621  -9.341  -3.004  0.00  0.00    +0.063 C 
ATOM      4  C   LIG    1       11.684  -8.700  -2.110  0.00  0.00    +0.124 C 
ATOM      5  C   LIG    1       10.909  -7.908  -1.026  0.00  0.00    +0.046 C 
ENDROOT
BRANCH   2   6
ATOM      6  O   LIG    1        9.749  -7.211  -3.686  0.00  0.00    -0.391 OA
ATOM      7  H   LIG    1        8.918  -6.705  -3.764  0.00  0.00    +0.210 HD
ENDBRANCH   2   6
BRANCH   5   8
ATOM      8  C   LIG    1       11.137  -8.459   0.361  0.00  0.00    -0.022 C 
ATOM      9  C   LIG    1       12.030  -7.983   1.240  0.00  0.00    +0.003 C 
BRANCH   9  10
ATOM     10  C   LIG    1       12.296  -8.551   2.614  0.00  0.00    +0.174 C 
BRANCH  10  11
ATOM     11  O   LIG    1       11.470  -9.688   2.859  0.00  0.00    -0.384 OA
ATOM     12  H   LIG    1       11.784 -10.373   2.239  0.00  0.00    +0.210 HD
ENDBRANCH  10  11
BRANCH  10  13
ATOM     13  C   LIG    1       13.778  -8.931   2.796  0.00  0.00    +0.264 C 
BRANCH  13  14
ATOM     14  O   LIG    1       14.136  -9.937   1.835  0.00  0.00    -0.489 OA
BRANCH  14  15
ATOM     15  C   LIG    1       15.435  -9.995   1.415  0.00  0.00    +0.121 A 
ATOM     16  C   LIG    1       16.477  -9.172   1.842  0.00  0.00    +0.058 A 
ATOM     17  C   LIG    1       17.770  -9.298   1.298  0.00  0.00    +0.058 A 
ATOM     18  C   LIG    1       18.013 -10.286   0.335  0.00  0.00    +0.012 A 
ATOM     19  C   LIG    1       16.982 -11.127  -0.079  0.00  0.00    +0.004 A 
ATOM     20  C   LIG    1       15.700 -10.977   0.456  0.00  0.00    +0.045 A 
BRANCH  17  21
ATOM     21  C   LIG    1       18.856  -8.360   1.759  0.00  0.00    +0.417 C 
ATOM     22  F   LIG    1       19.072  -8.438   3.102  0.00  0.00    -0.166 F 
ATOM     23  F   LIG    1       18.554  -7.055   1.508  0.00  0.00    -0.166 F 
ATOM     24  F   LIG    1       20.064  -8.583   1.172  0.00  0.00    -0.166 F 
ENDBRANCH  17  21
ENDBRANCH  14  15
ENDBRANCH  13  14
ENDBRANCH  10  13
ENDBRANCH   9  10
ENDBRANCH   5   8
BRANCH   4  25
ATOM     25  O   LIG    1       12.464  -7.791  -2.893  0.00  0.00    -0.391 OA
ATOM     26  H   LIG    1       11.828  -7.255  -3.410  0.00  0.00    +0.210 HD
ENDBRANCH   4  25
BRANCH   1  27
ATOM     27  C   LIG    1        8.590  -6.833  -0.992  0.00  0.00    +0.033 C 
BRANCH  27  29
ATOM     28  C   LIG    1        6.233  -6.098  -1.569  0.00  0.00    -0.031 C 
ATOM     29  C   LIG    1        7.125  -7.050  -1.250  0.00  0.00    -0.031 C 
BRANCH  28  30
ATOM     30  C   LIG    1        6.540  -4.632  -1.681  0.00  0.00    +0.027 C 
BRANCH  30  31
ATOM     31  C   LIG    1        5.289  -3.826  -2.019  0.00  0.00    +0.015 C 
BRANCH  31  32
ATOM     32  C   LIG    1        5.590  -2.334  -2.143  0.00  0.00    +0.121 C 
BRANCH  32  33
ATOM     33  C   LIG    1        4.304  -1.617  -2.454  0.00  0.00    +0.307 C 
ATOM     34  O   LIG    1        3.844  -1.500  -3.582  0.00  0.00    -0.251 OA
BRANCH  33  35
ATOM     35  O   LIG    1        3.672  -1.276  -1.297  0.00  0.00    -0.462 OA
BRANCH  35  37
ATOM     36  C   LIG    1        1.582  -2.433  -1.282  0.00  0.00    +0.051 C 
ATOM     37  C   LIG    1        2.253  -1.068  -1.411  0.00  0.00    +0.170 C 
ATOM     38  C   LIG    1        1.812  -0.141  -0.286  0.00  0.00    +0.051 C 
ENDBRANCH  35  37
ENDBRANCH  33  35
ENDBRANCH  32  33
ENDBRANCH  31  32
ENDBRANCH  30  31
ENDBRANCH  28  30
ENDBRANCH  27  29
ENDBRANCH   1  27
TORSDOF 17
