REMARK  Name = *****
REMARK                            x       y       z     vdW  Elec       q    Type
REMARK                         _______ _______ _______ _____ _____    ______ ____
ROOT
ATOM      1  C   LIG    1        1.562   3.214   6.121  0.00  0.00    +0.049 C 
ATOM      2  C   LIG    1        1.059   1.864   5.593  0.00  0.00    +0.084 C 
ATOM      3  N   LIG    1        1.183   1.753   4.163  0.00  0.00    -0.268 N 
ATOM      4  C   LIG    1        2.353   1.068   3.823  0.00  0.00    +0.239 C 
ATOM      5  O   LIG    1        2.807   0.986   2.690  0.00  0.00    -0.273 OA
ATOM      6  CA  LIG    1        2.941   0.479   5.098  0.00  0.00    +0.173 C 
ATOM      7  N   LIG    1        1.918   0.790   6.123  0.00  0.00    -0.282 NA
ATOM      8  H   LIG    1        1.354  -0.050   6.238  0.00  0.00    +0.125 HD
ATOM      9  C   LIG    1       -0.348   1.571   6.119  0.00  0.00    +0.049 C 
ENDROOT
BRANCH   3  10
ATOM     10  CA  LIG    1        0.590   2.694   3.158  0.00  0.00    +0.194 C 
ATOM     11  C   LIG    1        0.118   2.059   1.812  0.00  0.00    +0.165 C 
ATOM     12  S   LIG    1       -0.366   0.298   1.838  0.00  0.00    -0.127 S 
ATOM     13  C   LIG    1       -2.183   0.600   1.927  0.00  0.00    +0.042 C 
ATOM     14  CA  LIG    1       -2.401   2.102   1.622  0.00  0.00    +0.201 C 
ATOM     15  C   LIG    1       -2.668   0.287   3.351  0.00  0.00    +0.025 C 
ATOM     16  C   LIG    1       -2.820  -0.422   0.979  0.00  0.00    +0.025 C 
ATOM     17  N   LIG    1       -1.145   2.814   1.944  0.00  0.00    -0.271 N 
ATOM     18  C   LIG    1       -0.876   3.176   3.240  0.00  0.00    +0.240 C 
ATOM     19  O   LIG    1       -1.624   3.651   4.074  0.00  0.00    -0.273 OA
BRANCH  14  20
ATOM     20  C   LIG    1       -2.865   2.424   0.196  0.00  0.00    +0.327 C 
ATOM     21  O   LIG    1       -3.856   1.942  -0.333  0.00  0.00    -0.249 OA
BRANCH  20  22
ATOM     22  OXT LIG    1       -2.115   3.367  -0.425  0.00  0.00    -0.479 OA
ATOM     23  HXT LIG    1       -1.426   3.711   0.179  0.00  0.00    +0.295 HD
ENDBRANCH  20  22
ENDBRANCH  14  20
ENDBRANCH   3  10
BRANCH   6  24
ATOM     24  C   LIG    1        4.318   0.990   5.493  0.00  0.00    -0.022 A 
ATOM     25  C   LIG    1        5.297   1.308   4.538  0.00  0.00    +0.006 A 
ATOM     26  C   LIG    1        6.566   1.747   4.928  0.00  0.00    +0.000 A 
ATOM     27  C   LIG    1        6.889   1.853   6.278  0.00  0.00    +0.000 A 
ATOM     28  C   LIG    1        5.948   1.509   7.242  0.00  0.00    +0.000 A 
ATOM     29  C   LIG    1        4.681   1.072   6.852  0.00  0.00    +0.006 A 
ENDBRANCH   6  24
TORSDOF 4
