REMARK  Name = *****
REMARK                            x       y       z     vdW  Elec       q    Type
REMARK                         _______ _______ _______ _____ _____    ______ ____
ROOT
ATOM      1  C   LIG    1        2.152  -0.529  -1.452  0.00  0.00    +0.111 C 
ENDROOT
BRANCH   1   3
ATOM      2  O   LIG    1        1.061  -0.981   0.670  0.00  0.00    -0.251 OA
ATOM      3  C   LIG    1        1.004  -0.962  -0.541  0.00  0.00    +0.309 C 
BRANCH   3   4
ATOM      4  O   LIG    1       -0.086  -1.426  -1.186  0.00  0.00    -0.480 OA
ATOM      5  H   LIG    1       -0.120  -1.204  -2.146  0.00  0.00    +0.295 HD
ENDBRANCH   3   4
ENDBRANCH   1   3
BRANCH   1   6
ATOM      6  C   LIG    1        3.439  -0.451  -0.572  0.00  0.00    +0.050 C 
BRANCH   6   7
ATOM      7  C   LIG    1        4.701  -0.040  -1.300  0.00  0.00    -0.047 A 
ATOM      8  C   LIG    1        5.179  -0.794  -2.379  0.00  0.00    +0.003 A 
ATOM      9  C   LIG    1        6.314  -0.387  -3.082  0.00  0.00    +0.000 A 
ATOM     10  C   LIG    1        6.997   0.766  -2.702  0.00  0.00    +0.000 A 
ATOM     11  C   LIG    1        6.554   1.506  -1.607  0.00  0.00    +0.000 A 
ATOM     12  C   LIG    1        5.413   1.104  -0.907  0.00  0.00    +0.003 A 
ENDBRANCH   6   7
ENDBRANCH   1   6
BRANCH   1  13
ATOM     13  C   LIG    1        1.890   0.784  -2.213  0.00  0.00    +0.110 C 
BRANCH  13  14
ATOM     14  C   LIG    1        0.761   0.720  -3.240  0.00  0.00    +0.216 C 
ATOM     15  N   LIG    1        0.819   1.582  -4.300  0.00  0.00    -0.301 N 
ATOM     16  C   LIG    1       -0.231   1.631  -5.311  0.00  0.00    +0.111 C 
ATOM     17  C   LIG    1        0.439   2.317  -6.498  0.00  0.00    +0.011 C 
ATOM     18  C   LIG    1        1.455   3.260  -5.829  0.00  0.00    +0.011 C 
ATOM     19  C   LIG    1        0.855   4.594  -5.374  0.00  0.00    +0.005 C 
ATOM     20  C   LIG    1        0.054   5.253  -6.487  0.00  0.00    +0.000 C 
ATOM     21  C   LIG    1       -1.065   4.332  -6.959  0.00  0.00    +0.000 C 
ATOM     22  C   LIG    1       -0.514   3.004  -7.471  0.00  0.00    +0.005 C 
ATOM     23  C   LIG    1        1.934   2.448  -4.632  0.00  0.00    +0.111 C 
ATOM     24  O   LIG    1       -0.183  -0.061  -3.124  0.00  0.00    -0.276 OA
ENDBRANCH  13  14
ENDBRANCH   1  13
TORSDOF 6
