REMARK  Name = *****
REMARK                            x       y       z     vdW  Elec       q    Type
REMARK                         _______ _______ _______ _____ _____    ______ ____
ROOT
ATOM      1  C   LIG    1       -0.933  -6.416  10.066  0.00  0.00    +0.006 C 
ATOM      2  C   LIG    1       -1.881  -5.389   9.483  0.00  0.00    +0.107 C 
ATOM      3  S   LIG    1       -1.159  -4.401   8.154  0.00  0.00    -0.131 S 
ATOM      4  C   LIG    1        0.296  -3.987   9.141  0.00  0.00    +0.169 C 
ATOM      5  N   LIG    1        1.003  -5.222   9.431  0.00  0.00    -0.249 N 
ATOM      6  C   LIG    1        2.206  -4.834   8.982  0.00  0.00    +0.244 C 
ATOM      7  O   LIG    1        3.269  -5.369   9.048  0.00  0.00    -0.273 OA
ATOM      8  CA  LIG    1        1.579  -3.536   8.379  0.00  0.00    +0.191 C 
ATOM      9  CA  LIG    1        0.429  -6.329   9.989  0.00  0.00    +0.125 C 
ENDROOT
BRANCH   8  10
ATOM     10  N   LIG    1        1.530  -3.475   6.893  0.00  0.00    -0.300 N 
ATOM     11  H   LIG    1        1.679  -4.309   6.335  0.00  0.00    +0.150 HD
ATOM     12  C   LIG    1        0.960  -2.367   6.281  0.00  0.00    +0.235 C 
ATOM     13  O   LIG    1        0.497  -1.463   6.973  0.00  0.00    -0.274 OA
BRANCH  12  14
ATOM     14  CA  LIG    1        1.030  -2.390   4.723  0.00  0.00    +0.168 C 
BRANCH  14  15
ATOM     15  C   LIG    1        0.438  -1.173   4.022  0.00  0.00    -0.022 A 
ATOM     16  C   LIG    1        0.523   0.118   4.569  0.00  0.00    +0.006 A 
ATOM     17  C   LIG    1       -0.034   1.222   3.924  0.00  0.00    +0.000 A 
ATOM     18  C   LIG    1       -0.657   1.067   2.692  0.00  0.00    +0.000 A 
ATOM     19  C   LIG    1       -0.720  -0.196   2.106  0.00  0.00    +0.000 A 
ATOM     20  C   LIG    1       -0.174  -1.308   2.762  0.00  0.00    +0.006 A 
ENDBRANCH  14  15
BRANCH  14  21
ATOM     21  N   LIG    1        2.443  -2.571   4.320  0.00  0.00    -0.316 NA
ATOM     22  H1  LIG    1        2.847  -3.361   4.816  0.00  0.00    +0.119 HD
ATOM     23  H2  LIG    1        2.963  -1.753   4.642  0.00  0.00    +0.119 HD
ENDBRANCH  14  21
ENDBRANCH  12  14
ENDBRANCH   8  10
BRANCH   9  24
ATOM     24  C   LIG    1        1.285  -7.492  10.443  0.00  0.00    +0.351 C 
ATOM     25  O   LIG    1        0.874  -8.639  10.531  0.00  0.00    -0.244 OA
BRANCH  24  26
ATOM     26  OXT LIG    1        2.544  -7.181  10.809  0.00  0.00    -0.476 OA
ATOM     27  HXT LIG    1        2.899  -6.333  10.468  0.00  0.00    +0.295 HD
ENDBRANCH  24  26
ENDBRANCH   9  24
BRANCH   1  28
ATOM     28  C   LIG    1       -1.659  -7.572  10.730  0.00  0.00    +0.266 C 
BRANCH  28  29
ATOM     29  O   LIG    1       -2.938  -7.205  11.277  0.00  0.00    -0.460 OA
BRANCH  29  31
ATOM     30  C   LIG    1       -4.211  -6.656  13.151  0.00  0.00    +0.136 C 
ATOM     31  C   LIG    1       -2.903  -6.503  12.440  0.00  0.00    +0.304 C 
ATOM     32  O   LIG    1       -1.932  -5.907  12.881  0.00  0.00    -0.251 OA
ENDBRANCH  29  31
ENDBRANCH  28  29
ENDBRANCH   1  28
TORSDOF 9
