REMARK  Name = *****
REMARK                            x       y       z     vdW  Elec       q    Type
REMARK                         _______ _______ _______ _____ _____    ______ ____
ROOT
ATOM      1  C   LIG    1        5.389  -2.498   1.495  0.00  0.00    -0.021 C 
ATOM      2  C   LIG    1        5.047  -3.881   1.321  0.00  0.00    +0.003 C 
ATOM      3  C   LIG    1        5.400  -4.563   2.483  0.00  0.00    +0.047 C 
ATOM      4  C   LIG    1        5.108  -5.920   2.685  0.00  0.00    +0.026 C 
ATOM      5  C   LIG    1        4.410  -6.598   1.675  0.00  0.00    +0.007 C 
ATOM      6  C   LIG    1        4.051  -5.953   0.485  0.00  0.00    -0.024 C 
ATOM      7  N   LIG    1        6.029  -3.651   3.298  0.00  0.00    -0.360 NA
ATOM      8  H   LIG    1        6.409  -3.865   4.210  0.00  0.00    +0.165 HD
ATOM      9  C   LIG    1        4.415  -4.606   0.294  0.00  0.00    +0.015 C 
ATOM     10  C   LIG    1        6.003  -2.405   2.728  0.00  0.00    +0.087 C 
ENDROOT
BRANCH   1  11
ATOM     11  C   LIG    1        5.029  -1.353   0.585  0.00  0.00    +0.052 C 
BRANCH  11  12
ATOM     12  C   LIG    1        6.110  -0.982  -0.451  0.00  0.00    +0.088 C 
BRANCH  12  14
ATOM     13  C   LIG    1        6.834   0.486  -2.250  0.00  0.00    +0.104 C 
ATOM     14  N   LIG    1        5.751   0.174  -1.311  0.00  0.00    -0.308 NA
ATOM     15  C   LIG    1        4.509  -0.038  -2.056  0.00  0.00    +0.104 C 
ENDBRANCH  12  14
ENDBRANCH  11  12
ENDBRANCH   1  11
BRANCH   6  16
ATOM     16  C   LIG    1        3.282  -6.677  -0.592  0.00  0.00    +0.220 C 
BRANCH  16  17
ATOM     17  S   LIG    1        1.722  -5.812  -0.901  0.00  0.00    +0.036 S 
ATOM     18  O   LIG    1        1.946  -4.605  -1.675  0.00  0.00    -0.158 OA
ATOM     19  O   LIG    1        0.933  -5.786   0.324  0.00  0.00    -0.158 OA
BRANCH  17  20
ATOM     20  N   LIG    1        0.934  -6.902  -1.940  0.00  0.00    -0.181 NA
ATOM     21  C   LIG    1       -0.522  -6.642  -2.117  0.00  0.00    +0.109 C 
ATOM     22  C   LIG    1       -0.826  -7.102  -3.534  0.00  0.00    +0.018 C 
ATOM     23  C   LIG    1        0.447  -6.764  -4.280  0.00  0.00    +0.018 C 
ATOM     24  C   LIG    1        1.541  -7.103  -3.282  0.00  0.00    +0.109 C 
ENDBRANCH  17  20
ENDBRANCH  16  17
ENDBRANCH   6  16
TORSDOF 6
