REMARK  Name = *****
REMARK                            x       y       z     vdW  Elec       q    Type
REMARK                         _______ _______ _______ _____ _____    ______ ____
ROOT
ATOM      1  CA  LIG    1       -4.423  -2.295  -2.759  0.00  0.00    +0.191 C 
ATOM      2  C   LIG    1       -3.163  -3.026  -3.321  0.00  0.00    +0.169 C 
ATOM      3  N   LIG    1       -3.985  -3.439  -4.438  0.00  0.00    -0.249 N 
ATOM      4  CA  LIG    1       -3.603  -4.320  -5.414  0.00  0.00    +0.126 C 
ATOM      5  C   LIG    1       -2.512  -5.109  -5.237  0.00  0.00    -0.009 C 
ATOM      6  C   LIG    1       -1.689  -5.144  -3.956  0.00  0.00    +0.108 C 
ATOM      7  S   LIG    1       -2.572  -4.518  -2.487  0.00  0.00    -0.131 S 
ATOM      8  C   LIG    1       -5.118  -2.819  -4.049  0.00  0.00    +0.244 C 
ATOM      9  O   LIG    1       -6.255  -2.800  -4.483  0.00  0.00    -0.273 OA
ENDROOT
BRANCH   1  11
ATOM     10  C   LIG    1       -4.862  -2.040  -0.295  0.00  0.00    +0.268 C 
ATOM     11  N   LIG    1       -5.019  -2.746  -1.472  0.00  0.00    -0.296 N 
ATOM     12  H   LIG    1       -5.474  -3.654  -1.387  0.00  0.00    +0.150 HD
ATOM     13  O   LIG    1       -4.323  -0.941  -0.255  0.00  0.00    -0.268 OA
BRANCH  10  15
ATOM     14  N   LIG    1       -5.515  -3.981   1.171  0.00  0.00    -0.078 NA
ATOM     15  C   LIG    1       -5.430  -2.689   0.987  0.00  0.00    +0.190 C 
BRANCH  15  16
ATOM     16  C   LIG    1       -5.916  -1.857   2.100  0.00  0.00    +0.107 A 
ATOM     17  N   LIG    1       -6.886  -2.340   2.986  0.00  0.00    -0.223 NA
ATOM     18  C   LIG    1       -7.176  -1.448   3.898  0.00  0.00    +0.156 A 
ATOM     19  S   LIG    1       -6.295   0.017   3.795  0.00  0.00    -0.060 S 
ATOM     20  C   LIG    1       -5.488  -0.576   2.404  0.00  0.00    +0.078 A 
BRANCH  18  21
ATOM     21  N   LIG    1       -8.084  -1.658   4.862  0.00  0.00    -0.338 N 
ATOM     22  H   LIG    1       -8.360  -2.624   4.994  0.00  0.00    +0.144 HD
ATOM     23  H   LIG    1       -8.007  -1.124   5.719  0.00  0.00    +0.144 HD
ENDBRANCH  18  21
ENDBRANCH  15  16
BRANCH  14  25
ATOM     24  C   LIG    1       -5.111  -6.123   0.430  0.00  0.00    +0.313 C 
ATOM     25  O   LIG    1       -5.044  -4.741   0.098  0.00  0.00    -0.396 OA
ENDBRANCH  14  25
ENDBRANCH  10  15
ENDBRANCH   1  11
BRANCH   4  26
ATOM     26  C   LIG    1       -4.421  -4.378  -6.676  0.00  0.00    +0.352 C 
ATOM     27  O   LIG    1       -4.493  -5.296  -7.474  0.00  0.00    -0.244 OA
BRANCH  26  28
ATOM     28  OXT LIG    1       -5.082  -3.230  -6.905  0.00  0.00    -0.476 OA
ATOM     29  HXT LIG    1       -5.674  -3.429  -7.659  0.00  0.00    +0.295 HD
ENDBRANCH  26  28
ENDBRANCH   4  26
BRANCH   5  30
ATOM     30  C   LIG    1       -2.054  -6.074  -6.244  0.00  0.00    +0.007 C 
ATOM     31  C   LIG    1       -0.843  -6.047  -6.825  0.00  0.00    +0.017 C 
BRANCH  31  32
ATOM     32  C   LIG    1       -0.448  -6.947  -7.865  0.00  0.00    +0.035 A 
ATOM     33  C   LIG    1        0.450  -6.730  -8.913  0.00  0.00    +0.052 A 
ATOM     34  C   LIG    1        1.187  -5.471  -9.209  0.00  0.00    +0.067 C 
ATOM     35  N   LIG    1        0.644  -7.798  -9.777  0.00  0.00    -0.252 NA
ATOM     36  C   LIG    1       -0.090  -8.814  -9.393  0.00  0.00    +0.156 A 
ATOM     37  S   LIG    1       -1.028  -8.574  -7.987  0.00  0.00    -0.076 S 
ENDBRANCH  31  32
ENDBRANCH   5  30
TORSDOF 9
