REMARK  Name = *****
REMARK                            x       y       z     vdW  Elec       q    Type
REMARK                         _______ _______ _______ _____ _____    ______ ____
ROOT
ATOM      1  S   LIG    1        6.269   0.125  -6.432  0.00  0.00    +0.095 S 
ATOM      2  O   LIG    1        5.360   0.643  -5.352  0.00  0.00    -0.249 OA
ENDROOT
BRANCH   1   8
ATOM      3  C   LIG    1        1.825  -1.655 -10.433  0.00  0.00    +0.122 A 
ATOM      4  C   LIG    1        2.005  -1.244  -9.105  0.00  0.00    +0.073 A 
ATOM      5  C   LIG    1        3.318  -1.012  -8.690  0.00  0.00    +0.070 A 
ATOM      6  C   LIG    1        4.423  -1.194  -9.513  0.00  0.00    +0.090 A 
ATOM      7  N   LIG    1        5.581  -0.891  -8.849  0.00  0.00    -0.220 NA
ATOM      8  C   LIG    1        5.205  -0.488  -7.659  0.00  0.00    +0.198 A 
ATOM      9  C   LIG    1        4.235  -1.614 -10.835  0.00  0.00    +0.033 A 
ATOM     10  N   LIG    1        3.848  -0.576  -7.502  0.00  0.00    -0.331 N 
ATOM     11  H   LIG    1        3.350  -0.304  -6.668  0.00  0.00    +0.168 HD
ATOM     12  C   LIG    1        2.926  -1.835 -11.281  0.00  0.00    +0.048 A 
BRANCH   3  14
ATOM     13  C   LIG    1       -0.537  -1.744 -10.199  0.00  0.00    +0.277 C 
ATOM     14  O   LIG    1        0.612  -1.904 -11.021  0.00  0.00    -0.495 OA
ENDBRANCH   3  14
ENDBRANCH   1   8
BRANCH   1  15
ATOM     15  C   LIG    1        6.928   1.537  -7.382  0.00  0.00    +0.167 C 
BRANCH  15  16
ATOM     16  C   LIG    1        7.865   1.123  -8.491  0.00  0.00    +0.060 A 
ATOM     17  C   LIG    1        7.616   1.397  -9.846  0.00  0.00    +0.014 A 
ATOM     18  C   LIG    1        6.419   2.202 -10.286  0.00  0.00    +0.049 C 
ATOM     19  C   LIG    1        8.482   0.836 -10.818  0.00  0.00    +0.129 A 
ATOM     20  C   LIG    1        9.595   0.088 -10.412  0.00  0.00    +0.009 A 
ATOM     21  C   LIG    1       10.572  -0.601 -11.313  0.00  0.00    +0.049 C 
ATOM     22  C   LIG    1        9.784  -0.047  -9.039  0.00  0.00    +0.118 A 
ATOM     23  N   LIG    1        8.966   0.446  -8.086  0.00  0.00    -0.258 NA
BRANCH  19  24
ATOM     24  O   LIG    1        8.052   1.025 -12.107  0.00  0.00    -0.494 OA
ATOM     25  C   LIG    1        8.993   1.082 -13.165  0.00  0.00    +0.277 C 
ENDBRANCH  19  24
ENDBRANCH  15  16
ENDBRANCH   1  15
TORSDOF 5
