REMARK  Name = *****
REMARK                            x       y       z     vdW  Elec       q    Type
REMARK                         _______ _______ _______ _____ _____    ______ ____
ROOT
ATOM      1  O   LIG    1        5.715  -1.158   2.895  0.00  0.00    -0.283 OA
ATOM      2  C   LIG    1        6.324  -0.452   2.095  0.00  0.00    +0.228 C 
ATOM      3  C   LIG    1        5.655   0.755   1.544  0.00  0.00    +0.171 C 
ATOM      4  C   LIG    1        6.240   1.577   0.655  0.00  0.00    +0.048 C 
ATOM      5  C   LIG    1        7.617   1.251   0.172  0.00  0.00    +0.194 C 
ATOM      6  O   LIG    1        8.179   1.928  -0.683  0.00  0.00    -0.287 OA
ATOM      7  C   LIG    1        8.319   0.079   0.740  0.00  0.00    +0.033 A 
ATOM      8  C   LIG    1        9.632  -0.213   0.338  0.00  0.00    +0.012 A 
ATOM      9  C   LIG    1       10.304  -1.317   0.868  0.00  0.00    +0.001 A 
ATOM     10  C   LIG    1        9.672  -2.137   1.802  0.00  0.00    +0.001 A 
ATOM     11  C   LIG    1        8.367  -1.853   2.204  0.00  0.00    +0.012 A 
ATOM     12  C   LIG    1        7.695  -0.745   1.670  0.00  0.00    +0.036 A 
ENDROOT
BRANCH   4  13
ATOM     13  C   LIG    1        5.551   2.834   0.126  0.00  0.00    +0.026 C 
ATOM     14  C   LIG    1        5.204   2.748  -1.372  0.00  0.00    +0.009 C 
ATOM     15  C   LIG    1        4.469   4.004  -1.854  0.00  0.00    +0.009 C 
ATOM     16  C   LIG    1        5.275   5.280  -1.556  0.00  0.00    +0.019 C 
ATOM     17  C   LIG    1        5.589   5.373  -0.052  0.00  0.00    +0.009 C 
ATOM     18  C   LIG    1        6.325   4.127   0.449  0.00  0.00    +0.009 C 
BRANCH  16  19
ATOM     19  C   LIG    1        4.569   6.529  -2.066  0.00  0.00    -0.044 A 
ATOM     20  C   LIG    1        3.338   6.941  -1.532  0.00  0.00    +0.005 A 
ATOM     21  C   LIG    1        2.706   8.098  -1.996  0.00  0.00    +0.020 A 
ATOM     22  C   LIG    1        3.297   8.853  -3.005  0.00  0.00    +0.041 A 
ATOM     23 CL   LIG    1        2.521  10.281  -3.569  0.00  0.00    -0.084 Cl
ATOM     24  C   LIG    1        4.513   8.457  -3.556  0.00  0.00    +0.020 A 
ATOM     25  C   LIG    1        5.146   7.300  -3.089  0.00  0.00    +0.005 A 
ENDBRANCH  16  19
ENDBRANCH   4  13
BRANCH   3  26
ATOM     26  O   LIG    1        4.370   0.987   2.013  0.00  0.00    -0.503 OA
ATOM     27  H   LIG    1        4.183   0.242   2.627  0.00  0.00    +0.292 HD
ENDBRANCH   3  26
TORSDOF 3
