REMARK  Name = *****
REMARK                            x       y       z     vdW  Elec       q    Type
REMARK                         _______ _______ _______ _____ _____    ______ ____
ROOT
ATOM      1 CL   LIG    1        1.776   1.529   1.764  0.00  0.00    -0.080 Cl
ATOM      2  C   LIG    1        3.143   0.905   0.896  0.00  0.00    +0.085 A 
ATOM      3  C   LIG    1        3.209  -0.472   0.579  0.00  0.00    +0.188 A 
ATOM      4  C   LIG    1        4.370  -0.893  -0.136  0.00  0.00    +0.143 A 
ATOM      5  C   LIG    1        5.430   0.114  -0.523  0.00  0.00    +0.103 A 
ATOM      6  N   LIG    1        6.459  -0.424  -1.196  0.00  0.00    -0.191 NA
ATOM      7  S   LIG    1        6.137  -2.048  -1.323  0.00  0.00    +0.117 S 
ATOM      8  C   LIG    1        5.301   1.482  -0.186  0.00  0.00    +0.032 A 
ATOM      9  N   LIG    1        4.678  -2.139  -0.546  0.00  0.00    -0.187 NA
ATOM     10  C   LIG    1        4.143   1.839   0.525  0.00  0.00    +0.026 A 
ENDROOT
BRANCH   3  11
ATOM     11  N   LIG    1        2.256  -1.431   0.956  0.00  0.00    -0.073 NA
ATOM     12  C   LIG    1        1.242  -1.614   0.186  0.00  0.00    +0.370 C 
ATOM     13  N   LIG    1        0.875  -0.987  -0.982  0.00  0.00    -0.235 N 
ATOM     14  H   LIG    1        1.131  -0.016  -1.086  0.00  0.00    +0.244 HD
ATOM     15  C   LIG    1       -0.442  -1.413  -1.432  0.00  0.00    +0.219 C 
ATOM     16  C   LIG    1       -0.611  -2.746  -0.688  0.00  0.00    +0.219 C 
ATOM     17  N   LIG    1        0.282  -2.557   0.436  0.00  0.00    -0.235 N 
ATOM     18  H   LIG    1        0.574  -3.339   1.008  0.00  0.00    +0.244 HD
ENDBRANCH   3  11
TORSDOF 1
