REMARK  Name = *****
REMARK                            x       y       z     vdW  Elec       q    Type
REMARK                         _______ _______ _______ _____ _____    ______ ____
ROOT
ATOM      1  C   LIG    1       -2.876   1.414  -4.036  0.00  0.00    +0.021 C 
ATOM      2  C   LIG    1       -3.418   2.879  -3.970  0.00  0.00    +0.016 C 
ATOM      3  C   LIG    1       -2.631   3.877  -4.811  0.00  0.00    +0.001 C 
ATOM      4  C   LIG    1       -2.582   3.478  -6.279  0.00  0.00    +0.000 C 
ATOM      5  C   LIG    1       -2.076   2.060  -6.453  0.00  0.00    +0.001 C 
ATOM      6  C   LIG    1       -2.855   1.068  -5.579  0.00  0.00    +0.016 C 
ENDROOT
BRANCH   1  10
ATOM      7  C   LIG    1        1.031   0.942  -2.027  0.00  0.00    +0.122 A 
ATOM      8  C   LIG    1       -0.109   1.233  -1.302  0.00  0.00    +0.046 A 
ATOM      9  C   LIG    1       -1.334   1.442  -1.969  0.00  0.00    +0.008 A 
ATOM     10  C   LIG    1       -1.486   1.248  -3.356  0.00  0.00    -0.037 A 
ATOM     11  C   LIG    1       -0.338   0.824  -4.040  0.00  0.00    +0.008 A 
ATOM     12  C   LIG    1        0.902   0.719  -3.399  0.00  0.00    +0.046 A 
BRANCH   7  13
ATOM     13  O   LIG    1        2.298   0.818  -1.569  0.00  0.00    -0.475 OA
BRANCH  13  14
ATOM     14  C   LIG    1        2.760   1.204  -0.278  0.00  0.00    +0.203 C 
ATOM     15  C   LIG    1        4.280   1.358  -0.526  0.00  0.00    +0.068 C 
BRANCH  14  17
ATOM     16  C   LIG    1        3.096  -1.322   0.339  0.00  0.00    +0.008 C 
ATOM     17  C   LIG    1        2.578   0.051   0.755  0.00  0.00    +0.056 C 
ENDBRANCH  14  17
BRANCH  14  18
ATOM     18  C   LIG    1        2.332   2.538   0.398  0.00  0.00    +0.349 C 
ATOM     19  O   LIG    1        1.986   2.645   1.592  0.00  0.00    -0.246 OA
BRANCH  18  20
ATOM     20  O   LIG    1        2.422   3.648  -0.371  0.00  0.00    -0.478 OA
ATOM     21  H   LIG    1        2.750   3.496  -1.294  0.00  0.00    +0.295 HD
ENDBRANCH  18  20
ENDBRANCH  14  18
ENDBRANCH  13  14
ENDBRANCH   7  13
ENDBRANCH   1  10
BRANCH   1  22
ATOM     22  C   LIG    1       -3.895   0.492  -3.305  0.00  0.00    -0.037 A 
ATOM     23  C   LIG    1       -4.676   0.903  -2.198  0.00  0.00    +0.008 A 
ATOM     24  C   LIG    1       -5.621   0.053  -1.599  0.00  0.00    +0.046 A 
ATOM     25  C   LIG    1       -5.801  -1.234  -2.092  0.00  0.00    +0.122 A 
ATOM     26  C   LIG    1       -5.007  -1.645  -3.154  0.00  0.00    +0.046 A 
ATOM     27  C   LIG    1       -4.046  -0.825  -3.722  0.00  0.00    +0.008 A 
BRANCH  25  28
ATOM     28  O   LIG    1       -6.764  -2.015  -1.513  0.00  0.00    -0.475 OA
BRANCH  28  29
ATOM     29  C   LIG    1       -6.540  -3.437  -1.455  0.00  0.00    +0.203 C 
ATOM     30  C   LIG    1       -5.231  -3.750  -0.696  0.00  0.00    +0.068 C 
BRANCH  29  31
ATOM     31  C   LIG    1       -6.525  -4.197  -2.831  0.00  0.00    +0.349 C 
ATOM     32  O   LIG    1       -5.587  -4.806  -3.267  0.00  0.00    -0.246 OA
BRANCH  31  33
ATOM     33  O   LIG    1       -7.677  -4.065  -3.550  0.00  0.00    -0.478 OA
ATOM     34  H   LIG    1       -8.357  -3.507  -3.144  0.00  0.00    +0.295 HD
ENDBRANCH  31  33
ENDBRANCH  29  31
BRANCH  29  35
ATOM     35  C   LIG    1       -7.741  -4.025  -0.662  0.00  0.00    +0.056 C 
ATOM     36  C   LIG    1       -7.912  -3.493   0.754  0.00  0.00    +0.008 C 
ENDBRANCH  29  35
ENDBRANCH  28  29
ENDBRANCH  25  28
ENDBRANCH   1  22
TORSDOF 12
