REMARK  Name = *****
REMARK                            x       y       z     vdW  Elec       q    Type
REMARK                         _______ _______ _______ _____ _____    ______ ____
ROOT
ATOM      1  C   LIG    1        2.390   0.307   0.755  0.00  0.00    +0.167 A 
ATOM      2  N   LIG    1        3.485   0.703   0.020  0.00  0.00    -0.125 NA
ATOM      3  N   LIG    1        4.073   1.706   0.658  0.00  0.00    -0.065 NA
ATOM      4  N   LIG    1        3.357   1.954   1.771  0.00  0.00    -0.246 N 
ATOM      5  C   LIG    1        2.301   1.099   1.881  0.00  0.00    +0.143 A 
ENDROOT
BRANCH   1   9
ATOM      6  N   LIG    1        1.847  -1.384  -0.816  0.00  0.00    -0.324 N 
ATOM      7  H   LIG    1        2.648  -1.069  -1.348  0.00  0.00    +0.145 HD
ATOM      8  H   LIG    1        1.280  -2.148  -1.152  0.00  0.00    +0.145 HD
ATOM      9  C   LIG    1        1.511  -0.779   0.362  0.00  0.00    +0.263 C 
ATOM     10  O   LIG    1        0.540  -1.147   1.016  0.00  0.00    -0.269 OA
ENDBRANCH   1   9
BRANCH   4  11
ATOM     11  C   LIG    1        3.772   2.986   2.703  0.00  0.00    +0.186 C 
BRANCH  11  12
ATOM     12  C   LIG    1        3.159   4.308   2.358  0.00  0.00    +0.044 A 
ATOM     13  C   LIG    1        1.910   4.674   2.859  0.00  0.00    +0.131 A 
ATOM     14  F   LIG    1        1.263   3.848   3.693  0.00  0.00    -0.205 F 
ATOM     15  C   LIG    1        1.313   5.886   2.516  0.00  0.00    +0.039 A 
ATOM     16  C   LIG    1        1.968   6.758   1.647  0.00  0.00    +0.006 A 
ATOM     17  C   LIG    1        3.217   6.410   1.135  0.00  0.00    +0.039 A 
ATOM     18  C   LIG    1        3.799   5.195   1.493  0.00  0.00    +0.131 A 
ATOM     19  F   LIG    1        5.006   4.888   0.997  0.00  0.00    -0.205 F 
ENDBRANCH  11  12
ENDBRANCH   4  11
TORSDOF 3
