REMARK  Name = *****
REMARK                            x       y       z     vdW  Elec       q    Type
REMARK                         _______ _______ _______ _____ _____    ______ ____
ROOT
ATOM      1  CA  ASN A  1        4.709  -0.627  -0.876  0.00  0.00    +0.169 C 
ENDROOT
BRANCH   1   2
ATOM      2  N   ASN A  1        3.281  -0.770  -1.268  0.00  0.00    -0.318 NA
ATOM      3  H1  ASN A  1        3.165  -0.340  -2.190  0.00  0.00    +0.119 HD
ATOM      4  H2  ASN A  1        3.112  -1.765  -1.455  0.00  0.00    +0.119 HD
ENDBRANCH   1   2
BRANCH   1   5
ATOM      5  C   ASN A  1        5.593  -1.273  -1.959  0.00  0.00    +0.322 C 
ATOM      6  O   ASN A  1        5.223  -2.215  -2.658  0.00  0.00    -0.249 OA
BRANCH   5   7
ATOM      7  OXT ASN A  1        6.807  -0.704  -2.106  0.00  0.00    -0.479 OA
ATOM      8  HXT ASN A  1        7.050  -0.118  -1.348  0.00  0.00    +0.295 HD
ENDBRANCH   5   7
ENDBRANCH   1   5
BRANCH   1   9
ATOM      9  CB  ASN A  1        4.921  -1.291   0.483  0.00  0.00    +0.125 C 
BRANCH   9  13
ATOM     10  ND2 ASN A  1        6.622  -1.683   2.160  0.00  0.00    -0.329 N 
ATOM     11 HD21 ASN A  1        5.945  -2.213   2.693  0.00  0.00    +0.145 HD
ATOM     12 HD22 ASN A  1        7.551  -1.567   2.547  0.00  0.00    +0.145 HD
ATOM     13  CG  ASN A  1        6.320  -1.048   0.993  0.00  0.00    +0.212 C 
ATOM     14  OD1 ASN A  1        7.137  -0.340   0.413  0.00  0.00    -0.276 OA
ENDBRANCH   9  13
ENDBRANCH   1   9
TORSDOF 5
