REMARK  Name = *****
REMARK                            x       y       z     vdW  Elec       q    Type
REMARK                         _______ _______ _______ _____ _____    ______ ____
ROOT
ATOM      1  O   LIG    1        4.092  -6.923  -4.417  0.00  0.00    -0.273 OA
ATOM      2  C   LIG    1        3.999  -8.098  -4.088  0.00  0.00    +0.249 C 
ATOM      3  N   LIG    1        4.750  -9.199  -4.530  0.00  0.00    -0.180 N 
ATOM      4  N   LIG    1        4.223 -10.395  -3.973  0.00  0.00    -0.180 N 
ATOM      5  C   LIG    1        3.298 -10.092  -2.966  0.00  0.00    +0.249 C 
ATOM      6  O   LIG    1        2.684 -10.840  -2.216  0.00  0.00    -0.273 OA
ATOM      7  C   LIG    1        3.080  -8.603  -3.008  0.00  0.00    +0.166 C 
ENDROOT
BRANCH   3   8
ATOM      8  C   LIG    1        6.154  -9.019  -4.706  0.00  0.00    +0.057 A 
ATOM      9  C   LIG    1        7.079  -9.821  -4.022  0.00  0.00    +0.025 A 
ATOM     10  C   LIG    1        8.451  -9.621  -4.189  0.00  0.00    +0.002 A 
ATOM     11  C   LIG    1        8.912  -8.640  -5.064  0.00  0.00    +0.000 A 
ATOM     12  C   LIG    1        8.003  -7.849  -5.763  0.00  0.00    +0.002 A 
ATOM     13  C   LIG    1        6.630  -8.028  -5.575  0.00  0.00    +0.025 A 
ENDBRANCH   3   8
BRANCH   4  14
ATOM     14  C   LIG    1        4.218 -11.628  -4.711  0.00  0.00    +0.057 A 
ATOM     15  C   LIG    1        4.833 -11.724  -5.973  0.00  0.00    +0.025 A 
ATOM     16  C   LIG    1        4.793 -12.909  -6.718  0.00  0.00    +0.002 A 
ATOM     17  C   LIG    1        4.130 -14.025  -6.221  0.00  0.00    +0.000 A 
ATOM     18  C   LIG    1        3.518 -13.956  -4.976  0.00  0.00    +0.002 A 
ATOM     19  C   LIG    1        3.567 -12.773  -4.229  0.00  0.00    +0.025 A 
ENDBRANCH   4  14
BRANCH   7  20
ATOM     20  C   LIG    1        1.617  -8.223  -3.244  0.00  0.00    +0.036 C 
BRANCH  20  21
ATOM     21  C   LIG    1        1.062  -8.774  -4.560  0.00  0.00    +0.110 C 
BRANCH  21  22
ATOM     22  S   LIG    1       -0.679  -8.285  -4.796  0.00  0.00    +0.054 S 
ATOM     23  O   LIG    1       -1.491  -9.041  -3.785  0.00  0.00    -0.252 OA
BRANCH  22  24
ATOM     24  C   LIG    1       -0.942  -9.131  -6.378  0.00  0.00    +0.039 A 
ATOM     25  C   LIG    1       -0.346  -8.637  -7.545  0.00  0.00    +0.017 A 
ATOM     26  C   LIG    1       -0.562  -9.274  -8.770  0.00  0.00    +0.001 A 
ATOM     27  C   LIG    1       -1.376 -10.404  -8.836  0.00  0.00    +0.000 A 
ATOM     28  C   LIG    1       -1.977 -10.897  -7.679  0.00  0.00    +0.001 A 
ATOM     29  C   LIG    1       -1.764 -10.260  -6.455  0.00  0.00    +0.017 A 
ENDBRANCH  22  24
ENDBRANCH  21  22
ENDBRANCH  20  21
ENDBRANCH   7  20
TORSDOF 6
