REMARK  Name = *****
REMARK                            x       y       z     vdW  Elec       q    Type
REMARK                         _______ _______ _______ _____ _____    ______ ____
ROOT
ATOM      1  C   LIG    1        5.212   1.001   2.792  0.00  0.00    +0.216 C 
ENDROOT
BRANCH   1   2
ATOM      2  C   LIG    1        6.764   1.203   2.749  0.00  0.00    -0.001 A 
ATOM      3  C   LIG    1        7.424   1.947   3.748  0.00  0.00    +0.007 A 
ATOM      4  C   LIG    1        8.814   2.103   3.728  0.00  0.00    +0.000 A 
ATOM      5  C   LIG    1        9.572   1.529   2.709  0.00  0.00    +0.000 A 
ATOM      6  C   LIG    1        8.942   0.800   1.706  0.00  0.00    +0.000 A 
ATOM      7  C   LIG    1        7.555   0.640   1.724  0.00  0.00    +0.007 A 
ENDBRANCH   1   2
BRANCH   1   8
ATOM      8  C   LIG    1        4.777   0.237   4.091  0.00  0.00    -0.001 A 
ATOM      9  C   LIG    1        3.472   0.340   4.620  0.00  0.00    +0.007 A 
ATOM     10  C   LIG    1        3.071  -0.383   5.747  0.00  0.00    +0.000 A 
ATOM     11  C   LIG    1        3.963  -1.237   6.377  0.00  0.00    +0.000 A 
ATOM     12  C   LIG    1        5.249  -1.380   5.869  0.00  0.00    +0.000 A 
ATOM     13  C   LIG    1        5.644  -0.667   4.730  0.00  0.00    +0.007 A 
ENDBRANCH   1   8
BRANCH   1  14
ATOM     14  C   LIG    1        4.521   2.422   2.631  0.00  0.00    +0.349 C 
ATOM     15  O   LIG    1        3.404   2.743   3.058  0.00  0.00    -0.247 OA
BRANCH  14  16
ATOM     16  O   LIG    1        5.243   3.258   1.823  0.00  0.00    -0.459 OA
BRANCH  16  17
ATOM     17  C   LIG    1        4.581   4.479   1.429  0.00  0.00    +0.179 C 
ATOM     18  C   LIG    1        5.633   5.527   1.081  0.00  0.00    +0.060 C 
ATOM     19  C   LIG    1        6.384   5.157  -0.200  0.00  0.00    +0.087 C 
ATOM     20  N   LIG    1        5.509   4.880  -1.347  0.00  0.00    -0.305 NA
ATOM     21  C   LIG    1        4.916   6.092  -1.906  0.00  0.00    +0.105 C 
ATOM     22  C   LIG    1        4.502   3.865  -1.014  0.00  0.00    +0.087 C 
ATOM     23  C   LIG    1        3.673   4.204   0.227  0.00  0.00    +0.060 C 
ENDBRANCH  16  17
ENDBRANCH  14  16
ENDBRANCH   1  14
BRANCH   1  24
ATOM     24  O   LIG    1        4.895   0.149   1.657  0.00  0.00    -0.353 OA
BRANCH  24  25
ATOM     25  C   LIG    1        3.516  -0.088   1.397  0.00  0.00    +0.162 C 
BRANCH  25  27
ATOM     26  C   LIG    1        1.947  -1.280  -0.162  0.00  0.00    +0.006 C 
ATOM     27  C   LIG    1        3.398  -0.948   0.142  0.00  0.00    +0.025 C 
ENDBRANCH  25  27
ENDBRANCH  24  25
ENDBRANCH   1  24
TORSDOF 8
