REMARK  Name = *****
REMARK                            x       y       z     vdW  Elec       q    Type
REMARK                         _______ _______ _______ _____ _____    ______ ____
ROOT
ATOM      1  C   LIG    1        1.978   1.115   0.131  0.00  0.00    +0.008 C 
ATOM      2  C   LIG    1        2.348  -0.379   0.295  0.00  0.00    -0.007 C 
ENDROOT
BRANCH   2   3
ATOM      3  C   LIG    1        2.269  -0.843   1.802  0.00  0.00    -0.007 C 
ATOM      4  C   LIG    1        2.638  -2.316   2.029  0.00  0.00    +0.008 C 
BRANCH   3   5
ATOM      5  C   LIG    1        3.115   0.014   2.815  0.00  0.00    +0.039 C 
BRANCH   5   6
ATOM      6  C   LIG    1        4.622  -0.023   2.649  0.00  0.00    -0.043 A 
ATOM      7  C   LIG    1        5.254   0.985   1.897  0.00  0.00    +0.052 A 
ATOM      8  C   LIG    1        6.623   0.918   1.668  0.00  0.00    +0.159 A 
ATOM      9  C   LIG    1        7.374  -0.151   2.111  0.00  0.00    +0.158 A 
ATOM     10  C   LIG    1        6.779  -1.142   2.897  0.00  0.00    +0.049 A 
ATOM     11  C   LIG    1        5.416  -1.031   3.204  0.00  0.00    +0.007 A 
BRANCH   8  12
ATOM     12  O   LIG    1        7.237   1.939   0.985  0.00  0.00    -0.503 OA
ATOM     13  H   LIG    1        8.183   1.700   0.999  0.00  0.00    +0.292 HD
ENDBRANCH   8  12
BRANCH   9  14
ATOM     14  O   LIG    1        8.699  -0.208   1.778  0.00  0.00    -0.503 OA
ATOM     15  H   LIG    1        9.071  -1.041   2.120  0.00  0.00    +0.292 HD
ENDBRANCH   9  14
ENDBRANCH   5   6
ENDBRANCH   3   5
ENDBRANCH   2   3
BRANCH   2  16
ATOM     16  C   LIG    1        1.446  -1.154  -0.716  0.00  0.00    +0.039 C 
BRANCH  16  17
ATOM     17  C   LIG    1        1.643  -2.643  -0.820  0.00  0.00    -0.043 A 
ATOM     18  C   LIG    1        0.567  -3.471  -0.463  0.00  0.00    +0.052 A 
ATOM     19  C   LIG    1        0.763  -4.834  -0.328  0.00  0.00    +0.159 A 
ATOM     20  C   LIG    1        2.002  -5.404  -0.600  0.00  0.00    +0.158 A 
ATOM     21  C   LIG    1        3.064  -4.611  -1.023  0.00  0.00    +0.049 A 
ATOM     22  C   LIG    1        2.884  -3.225  -1.137  0.00  0.00    +0.007 A 
BRANCH  19  23
ATOM     23  O   LIG    1       -0.268  -5.601   0.132  0.00  0.00    -0.503 OA
ATOM     24  H   LIG    1        0.099  -6.506   0.159  0.00  0.00    +0.292 HD
ENDBRANCH  19  23
BRANCH  20  25
ATOM     25  O   LIG    1        2.125  -6.754  -0.414  0.00  0.00    -0.503 OA
ATOM     26  H   LIG    1        3.020  -7.015  -0.688  0.00  0.00    +0.292 HD
ENDBRANCH  20  25
ENDBRANCH  16  17
ENDBRANCH   2  16
TORSDOF 9
