REMARK  Name = *****
REMARK                            x       y       z     vdW  Elec       q    Type
REMARK                         _______ _______ _______ _____ _____    ______ ____
ROOT
ATOM      1  N   LIG    1        1.558   0.842  -0.794  0.00  0.00    -0.313 N 
ATOM      2  H   LIG    1        0.984   0.201  -1.323  0.00  0.00    +0.146 HD
ATOM      3  H   LIG    1        1.059   1.550  -0.272  0.00  0.00    +0.146 HD
ATOM      4  C   LIG    1        2.609   0.302  -0.104  0.00  0.00    +0.308 C 
ATOM      5  N   LIG    1        3.187  -0.840  -0.670  0.00  0.00    -0.224 N 
ATOM      6  C   LIG    1        4.253  -1.527   0.012  0.00  0.00    +0.050 A 
ATOM      7  C   LIG    1        4.348  -2.934   0.040  0.00  0.00    -0.003 A 
ATOM      8  C   LIG    1        5.415  -3.547   0.724  0.00  0.00    +0.010 A 
ATOM      9  C   LIG    1        6.392  -2.787   1.364  0.00  0.00    +0.001 A 
ATOM     10  C   LIG    1        6.305  -1.402   1.344  0.00  0.00    +0.002 A 
ATOM     11  C   LIG    1        3.317  -3.826  -0.502  0.00  0.00    +0.010 C 
ATOM     12  C   LIG    1        2.652  -3.622  -1.643  0.00  0.00    +0.010 C 
ATOM     13  C   LIG    1        2.859  -2.476  -2.531  0.00  0.00    -0.003 A 
ATOM     14  C   LIG    1        2.739  -2.715  -3.913  0.00  0.00    +0.010 A 
ATOM     15  C   LIG    1        2.850  -1.675  -4.835  0.00  0.00    +0.001 A 
ATOM     16  C   LIG    1        3.073  -0.380  -4.388  0.00  0.00    +0.002 A 
ATOM     17  C   LIG    1        3.180  -0.128  -3.020  0.00  0.00    +0.024 A 
ATOM     18  C   LIG    1        5.245  -0.781   0.679  0.00  0.00    +0.024 A 
ATOM     19  C   LIG    1        3.069  -1.163  -2.069  0.00  0.00    +0.050 A 
ATOM     20  O   LIG    1        2.888   0.817   0.977  0.00  0.00    -0.252 OA
ENDROOT
TORSDOF 0
