REMARK  Name = *****
REMARK                            x       y       z     vdW  Elec       q    Type
REMARK                         _______ _______ _______ _____ _____    ______ ____
ROOT
ATOM      1  C   LIG    1        6.412  -0.560  -5.911  0.00  0.00    +0.122 A 
ATOM      2  C   LIG    1        7.079  -1.572  -6.604  0.00  0.00    +0.046 A 
ATOM      3  C   LIG    1        7.835  -1.300  -7.751  0.00  0.00    +0.015 A 
ATOM      4  C   LIG    1        7.968   0.010  -8.203  0.00  0.00    +0.022 A 
ATOM      5  C   LIG    1        7.337   1.038  -7.489  0.00  0.00    +0.015 A 
ATOM      6  C   LIG    1        6.588   0.757  -6.337  0.00  0.00    +0.046 A 
ENDROOT
BRANCH   4   7
ATOM      7  C   LIG    1        8.750   0.283  -9.445  0.00  0.00    +0.193 C 
ATOM      8  O   LIG    1        8.798  -0.570 -10.333  0.00  0.00    -0.287 OA
BRANCH   7   9
ATOM      9  C   LIG    1        9.493   1.561  -9.623  0.00  0.00    +0.022 A 
ATOM     10  C   LIG    1       10.032   2.226  -8.513  0.00  0.00    +0.013 A 
ATOM     11  C   LIG    1       10.735   3.419  -8.675  0.00  0.00    +0.021 A 
ATOM     12  C   LIG    1       10.941   3.932  -9.953  0.00  0.00    +0.041 A 
ATOM     13 CL   LIG    1       11.848   5.379 -10.145  0.00  0.00    -0.084 Cl
ATOM     14  C   LIG    1       10.423   3.274 -11.069  0.00  0.00    +0.021 A 
ATOM     15  C   LIG    1        9.692   2.089 -10.906  0.00  0.00    +0.013 A 
ENDBRANCH   7   9
ENDBRANCH   4   7
BRANCH   1  16
ATOM     16  O   LIG    1        5.582  -0.739  -4.834  0.00  0.00    -0.475 OA
BRANCH  16  17
ATOM     17  C   LIG    1        4.813  -1.945  -4.739  0.00  0.00    +0.201 C 
ATOM     18  C   LIG    1        5.584  -3.028  -3.969  0.00  0.00    +0.067 C 
ATOM     19  C   LIG    1        3.542  -1.629  -3.892  0.00  0.00    +0.067 C 
BRANCH  17  20
ATOM     20  C   LIG    1        4.282  -2.572  -6.062  0.00  0.00    +0.351 C 
ATOM     21  O   LIG    1        4.806  -3.461  -6.684  0.00  0.00    -0.246 OA
BRANCH  20  22
ATOM     22  O   LIG    1        3.081  -2.023  -6.367  0.00  0.00    -0.459 OA
BRANCH  22  24
ATOM     23  C   LIG    1        1.441  -3.776  -6.304  0.00  0.00    +0.051 C 
ATOM     24  C   LIG    1        2.210  -2.793  -7.188  0.00  0.00    +0.170 C 
ATOM     25  C   LIG    1        1.307  -1.759  -7.832  0.00  0.00    +0.051 C 
ENDBRANCH  22  24
ENDBRANCH  20  22
ENDBRANCH  17  20
ENDBRANCH  16  17
ENDBRANCH   1  16
TORSDOF 7
