REMARK  Name = *****
REMARK                            x       y       z     vdW  Elec       q    Type
REMARK                         _______ _______ _______ _____ _____    ______ ____
ROOT
ATOM      1  C   LIG    1        6.141  -0.454  -0.331  0.00  0.00    +0.008 C 
ATOM      2  C   LIG    1        7.407  -0.448  -0.782  0.00  0.00    +0.009 C 
ENDROOT
BRANCH   1   6
ATOM      3  C   LIG    1        3.384  -3.688  -0.727  0.00  0.00    +0.117 A 
ATOM      4  C   LIG    1        4.728  -3.969  -0.518  0.00  0.00    +0.046 A 
ATOM      5  C   LIG    1        5.644  -2.921  -0.391  0.00  0.00    +0.011 A 
ATOM      6  C   LIG    1        5.219  -1.589  -0.487  0.00  0.00    -0.025 A 
ATOM      7  C   LIG    1        3.854  -1.328  -0.682  0.00  0.00    +0.011 A 
ATOM      8  C   LIG    1        2.936  -2.375  -0.808  0.00  0.00    +0.046 A 
BRANCH   3   9
ATOM      9  O   LIG    1        2.525  -4.740  -0.844  0.00  0.00    -0.507 OA
ATOM     10  H   LIG    1        1.628  -4.395  -0.978  0.00  0.00    +0.292 HD
ENDBRANCH   3   9
ENDBRANCH   1   6
BRANCH   2  11
ATOM     11  C   LIG    1        8.321   0.696  -0.643  0.00  0.00    -0.018 A 
ATOM     12  C   LIG    1        8.331   1.514   0.494  0.00  0.00    +0.053 A 
ATOM     13  C   LIG    1        9.234   2.571   0.591  0.00  0.00    +0.121 A 
ATOM     14  C   LIG    1       10.147   2.826  -0.425  0.00  0.00    +0.090 A 
ATOM     15  C   LIG    1       10.150   2.004  -1.545  0.00  0.00    +0.121 A 
ATOM     16  C   LIG    1        9.254   0.942  -1.662  0.00  0.00    +0.053 A 
BRANCH  13  17
ATOM     17  O   LIG    1        9.193   3.340   1.717  0.00  0.00    -0.507 OA
ATOM     18  H   LIG    1        9.877   4.027   1.646  0.00  0.00    +0.292 HD
ENDBRANCH  13  17
BRANCH  15  19
ATOM     19  O   LIG    1       11.062   2.274  -2.524  0.00  0.00    -0.507 OA
ATOM     20  H   LIG    1       10.948   1.630  -3.243  0.00  0.00    +0.292 HD
ENDBRANCH  15  19
ENDBRANCH   2  11
TORSDOF 5
