REMARK  Name = *****
REMARK                            x       y       z     vdW  Elec       q    Type
REMARK                         _______ _______ _______ _____ _____    ______ ____
ROOT
ATOM      1  N   LIG    1        3.114  -0.220   1.473  0.00  0.00    -0.300 N 
ATOM      2  C   LIG    1        4.354   0.085   2.067  0.00  0.00    +0.231 C 
ATOM      3  O   LIG    1        4.864   1.182   2.144  0.00  0.00    -0.274 OA
ATOM      4  C   LIG    1        4.921  -1.306   2.625  0.00  0.00    +0.101 C 
ATOM      5  C   LIG    1        3.621  -2.238   2.610  0.00  0.00    +0.031 C 
ATOM      6  C   LIG    1        2.700  -1.609   1.572  0.00  0.00    +0.113 C 
ENDROOT
BRANCH   4   7
ATOM      7  C   LIG    1        6.051  -1.726   1.616  0.00  0.00    -0.028 A 
ATOM      8  C   LIG    1        7.423  -1.545   1.877  0.00  0.00    +0.005 A 
ATOM      9  C   LIG    1        8.407  -1.891   0.934  0.00  0.00    +0.000 A 
ATOM     10  C   LIG    1        8.050  -2.401  -0.309  0.00  0.00    +0.000 A 
ATOM     11  C   LIG    1        6.709  -2.580  -0.604  0.00  0.00    +0.000 A 
ATOM     12  C   LIG    1        5.735  -2.231   0.336  0.00  0.00    +0.005 A 
ENDBRANCH   4   7
BRANCH   4  13
ATOM     13  C   LIG    1        5.370  -1.145   4.116  0.00  0.00    -0.028 A 
ATOM     14  C   LIG    1        4.924  -0.067   4.918  0.00  0.00    +0.005 A 
ATOM     15  C   LIG    1        5.370   0.109   6.233  0.00  0.00    +0.000 A 
ATOM     16  C   LIG    1        6.248  -0.807   6.798  0.00  0.00    +0.000 A 
ATOM     17  C   LIG    1        6.656  -1.911   6.055  0.00  0.00    +0.000 A 
ATOM     18  C   LIG    1        6.209  -2.085   4.738  0.00  0.00    +0.005 A 
ENDBRANCH   4  13
BRANCH   1  20
ATOM     19  C   LIG    1        3.058   1.430  -0.373  0.00  0.00    +0.024 C 
ATOM     20  C   LIG    1        2.283   0.709   0.717  0.00  0.00    +0.104 C 
ENDBRANCH   1  20
BRANCH   5  21
ATOM     21  C   LIG    1        3.834  -3.769   2.427  0.00  0.00    +0.022 C 
BRANCH  21  22
ATOM     22  C   LIG    1        2.579  -4.691   2.522  0.00  0.00    +0.085 C 
BRANCH  22  23
ATOM     23  N   LIG    1        1.869  -4.662   3.808  0.00  0.00    -0.298 NA
ATOM     24  C   LIG    1        0.716  -5.603   3.891  0.00  0.00    +0.112 C 
ATOM     25  C   LIG    1        1.073  -7.083   4.160  0.00  0.00    +0.175 C 
ATOM     26  O   LIG    1        1.944  -7.233   5.288  0.00  0.00    -0.377 OA
ATOM     27  C   LIG    1        3.116  -6.428   5.133  0.00  0.00    +0.175 C 
ATOM     28  C   LIG    1        2.744  -4.946   4.966  0.00  0.00    +0.112 C 
ENDBRANCH  22  23
ENDBRANCH  21  22
ENDBRANCH   5  21
TORSDOF 6
