REMARK  Name = *****
REMARK                            x       y       z     vdW  Elec       q    Type
REMARK                         _______ _______ _______ _____ _____    ______ ____
ROOT
ATOM      1  C   LIG    1        0.862  -0.138   0.145  0.00  0.00    +0.069 C 
ATOM      2  C   LIG    1        2.352   0.035   0.192  0.00  0.00    +0.080 A 
ATOM      3  C   LIG    1        2.926   1.304   0.216  0.00  0.00    +0.148 A 
ATOM      4  C   LIG    1        4.325   1.408   0.207  0.00  0.00    +0.064 A 
ATOM      5  C   LIG    1        5.117   0.252   0.198  0.00  0.00    +0.011 A 
ATOM      6  C   LIG    1        4.443  -0.965   0.197  0.00  0.00    +0.117 A 
ATOM      7  N   LIG    1        3.098  -1.096   0.190  0.00  0.00    -0.256 NA
ENDROOT
BRANCH   3   8
ATOM      8  O   LIG    1        2.096   2.392   0.238  0.00  0.00    -0.504 OA
ATOM      9  H   LIG    1        2.652   3.204   0.324  0.00  0.00    +0.292 HD
ENDBRANCH   3   8
BRANCH   4  10
ATOM     10  C   LIG    1        4.949   2.749   0.200  0.00  0.00    +0.262 C 
ATOM     11  O   LIG    1        4.262   3.746   0.374  0.00  0.00    -0.296 OA
ENDBRANCH   4  10
BRANCH   5  12
ATOM     12  C   LIG    1        6.618   0.254   0.211  0.00  0.00    +0.210 C 
BRANCH  12  13
ATOM     13  O   LIG    1        7.083   0.908  -0.953  0.00  0.00    -0.282 OA
BRANCH  13  14
ATOM     14  P   LIG    1        8.669   1.017  -1.115  0.00  0.00    +0.473 P 
ATOM     15  O   LIG    1        9.419  -0.261  -1.205  0.00  0.00    -0.228 OA
BRANCH  14  16
ATOM     16  O   LIG    1        9.136   1.954   0.088  0.00  0.00    -0.303 OA
ATOM     17  H   LIG    1       10.109   1.993   0.139  0.00  0.00    +0.222 HD
ENDBRANCH  14  16
BRANCH  14  18
ATOM     18  O   LIG    1        8.866   1.970  -2.377  0.00  0.00    -0.303 OA
ATOM     19  H   LIG    1        8.912   1.460  -3.208  0.00  0.00    +0.222 HD
ENDBRANCH  14  18
ENDBRANCH  13  14
ENDBRANCH  12  13
ENDBRANCH   5  12
TORSDOF 7
