REMARK  Name = *****
REMARK                            x       y       z     vdW  Elec       q    Type
REMARK                         _______ _______ _______ _____ _____    ______ ____
ROOT
ATOM      1  C   LIG    1        3.984  -0.872   2.283  0.00  0.00    +0.162 C 
ENDROOT
BRANCH   1   2
ATOM      2  C   LIG    1        3.942   0.342   1.365  0.00  0.00    -0.007 A 
ATOM      3  C   LIG    1        4.312   1.663   1.772  0.00  0.00    +0.009 A 
ATOM      4  C   LIG    1        4.102   2.709   0.846  0.00  0.00    +0.071 A 
ATOM      5  C   LIG    1        4.418   4.015   1.191  0.00  0.00    +0.032 A 
ATOM      6  C   LIG    1        4.968   4.337   2.433  0.00  0.00    +0.048 A 
ATOM      7  C   LIG    1        5.220   3.332   3.353  0.00  0.00    +0.121 A 
ATOM      8  N   LIG    1        3.608   2.526  -0.386  0.00  0.00    -0.255 NA
ATOM      9  C   LIG    1        3.356   1.267  -0.775  0.00  0.00    +0.112 A 
ATOM     10  C   LIG    1        4.893   2.008   3.026  0.00  0.00    +0.056 A 
ATOM     11  C   LIG    1        3.525   0.167   0.037  0.00  0.00    +0.026 A 
BRANCH   7  12
ATOM     12  O   LIG    1        5.780   3.508   4.589  0.00  0.00    -0.495 OA
ATOM     13  C   LIG    1        6.100   4.848   4.955  0.00  0.00    +0.277 C 
ENDBRANCH   7  12
ENDBRANCH   1   2
BRANCH   1  17
ATOM     14  C   LIG    1        0.295   0.085   2.300  0.00  0.00    +0.028 C 
ATOM     15  C   LIG    1        0.565  -0.126   3.810  0.00  0.00    -0.000 C 
ATOM     16  C   LIG    1        2.094  -0.161   3.995  0.00  0.00    +0.026 C 
ATOM     17  C   LIG    1        2.700  -1.271   3.115  0.00  0.00    +0.090 C 
ATOM     18  N   LIG    1        1.629  -2.061   2.405  0.00  0.00    -0.296 NA
ATOM     19  C   LIG    1        0.714  -2.611   3.452  0.00  0.00    +0.085 C 
ATOM     20  C   LIG    1        0.011  -1.493   4.245  0.00  0.00    +0.019 C 
ATOM     21  C   LIG    1        0.771  -1.189   1.556  0.00  0.00    +0.092 C 
BRANCH  14  23
ATOM     22  C   LIG    1       -1.649   1.644   1.945  0.00  0.00    +0.004 C 
ATOM     23  C   LIG    1       -1.155   0.401   2.011  0.00  0.00    -0.029 C 
ENDBRANCH  14  23
ENDBRANCH   1  17
BRANCH   1  24
ATOM     24  O   LIG    1        4.401  -2.023   1.521  0.00  0.00    -0.386 OA
ATOM     25  H   LIG    1        3.648  -2.646   1.556  0.00  0.00    +0.210 HD
ENDBRANCH   1  24
TORSDOF 5
