REMARK  Name = *****
REMARK                            x       y       z     vdW  Elec       q    Type
REMARK                         _______ _______ _______ _____ _____    ______ ____
ROOT
ATOM      1  O   LIG    1        5.912   5.227  -4.595  0.00  0.00    -0.489 OA
ENDROOT
BRANCH   1   5
ATOM      2  C   LIG    1        6.848   1.168  -5.046  0.00  0.00    -0.045 A 
ATOM      3  C   LIG    1        5.511   1.616  -4.987  0.00  0.00    +0.007 A 
ATOM      4  C   LIG    1        5.225   2.984  -4.865  0.00  0.00    +0.046 A 
ATOM      5  C   LIG    1        6.253   3.919  -4.838  0.00  0.00    +0.121 A 
ATOM      6  C   LIG    1        7.569   3.477  -5.034  0.00  0.00    +0.046 A 
ATOM      7  C   LIG    1        7.854   2.119  -5.143  0.00  0.00    +0.007 A 
BRANCH   2   8
ATOM      8  C   LIG    1        7.156  -0.311  -4.995  0.00  0.00    +0.063 C 
BRANCH   8   9
ATOM      9  C   LIG    1        8.445  -0.658  -4.234  0.00  0.00    +0.164 C 
BRANCH   9  11
ATOM     10  C   LIG    1        9.752  -2.459  -3.451  0.00  0.00    +0.193 C 
ATOM     11  O   LIG    1        8.569  -2.079  -4.144  0.00  0.00    -0.383 OA
ENDBRANCH   9  11
ENDBRANCH   8   9
ENDBRANCH   2   8
ENDBRANCH   1   5
BRANCH   1  12
ATOM     12  C   LIG    1        7.017   6.131  -4.484  0.00  0.00    +0.261 C 
BRANCH  12  13
ATOM     13  C   LIG    1        6.586   7.526  -4.045  0.00  0.00    +0.166 C 
BRANCH  13  14
ATOM     14  O   LIG    1        7.756   8.351  -3.945  0.00  0.00    -0.387 OA
ATOM     15  H   LIG    1        7.422   9.258  -3.803  0.00  0.00    +0.210 HD
ENDBRANCH  13  14
BRANCH  13  16
ATOM     16  C   LIG    1        5.585   8.148  -5.035  0.00  0.00    +0.115 C 
BRANCH  16  17
ATOM     17  N   LIG    1        5.173   9.519  -4.673  0.00  0.00    -0.311 NA
ATOM     18  H   LIG    1        4.566   9.866  -5.420  0.00  0.00    +0.122 HD
BRANCH  17  19
ATOM     19  C   LIG    1        4.452   9.617  -3.394  0.00  0.00    +0.048 C 
ATOM     20  C   LIG    1        3.146   8.822  -3.378  0.00  0.00    +0.024 C 
ATOM     21  C   LIG    1        4.175  11.092  -3.103  0.00  0.00    +0.024 C 
ENDBRANCH  17  19
ENDBRANCH  16  17
ENDBRANCH  13  16
ENDBRANCH  12  13
ENDBRANCH   1  12
TORSDOF 10
