REMARK  Name = *****
REMARK                            x       y       z     vdW  Elec       q    Type
REMARK                         _______ _______ _______ _____ _____    ______ ____
ROOT
ATOM      1  C   LIG    1        6.885   3.617  -1.390  0.00  0.00    +0.265 C 
ATOM      2  N   LIG    1        5.903   2.657  -1.259  0.00  0.00    -0.307 N 
ATOM      3  H   LIG    1        6.253   1.711  -1.129  0.00  0.00    +0.149 HD
ATOM      4  O   LIG    1        6.656   4.823  -1.425  0.00  0.00    -0.268 OA
ENDROOT
BRANCH   1  12
ATOM      5  C   LIG    1       10.389   0.303  -1.787  0.00  0.00    +0.173 C 
ATOM      6  N   LIG    1        9.793   1.611  -1.655  0.00  0.00    -0.266 N 
ATOM      7  C   LIG    1       10.461   2.809  -1.623  0.00  0.00    +0.069 A 
ATOM      8  C   LIG    1        9.466   3.776  -1.509  0.00  0.00    +0.032 A 
ATOM      9  C   LIG    1        9.834   5.134  -1.444  0.00  0.00    +0.012 A 
ATOM     10  C   LIG    1       11.190   5.476  -1.486  0.00  0.00    +0.001 A 
ATOM     11  C   LIG    1       12.166   4.491  -1.607  0.00  0.00    +0.002 A 
ATOM     12  C   LIG    1        8.240   3.051  -1.481  0.00  0.00    +0.155 A 
ATOM     13  C   LIG    1       11.823   3.136  -1.683  0.00  0.00    +0.028 A 
ATOM     14  N   LIG    1        8.453   1.718  -1.553  0.00  0.00    -0.166 NA
ENDBRANCH   1  12
BRANCH   2  15
ATOM     15  C   LIG    1        4.486   2.961  -1.150  0.00  0.00    +0.076 C 
ATOM     16  C   LIG    1        3.923   3.672  -2.391  0.00  0.00    +0.041 C 
ATOM     17  C   LIG    1        3.345   2.747  -3.470  0.00  0.00    +0.058 C 
ATOM     18  N   LIG    1        2.356   1.876  -2.823  0.00  0.00    -0.299 NA
ATOM     19  C   LIG    1        1.454   1.237  -3.777  0.00  0.00    +0.105 C 
ATOM     20  C   LIG    1        3.037   0.933  -1.930  0.00  0.00    +0.058 C 
ATOM     21  C   LIG    1        4.030   0.023  -2.670  0.00  0.00    +0.019 C 
ATOM     22  C   LIG    1        4.999   0.749  -3.596  0.00  0.00    +0.003 C 
ATOM     23  C   LIG    1        4.402   1.972  -4.281  0.00  0.00    +0.019 C 
ATOM     24  C   LIG    1        3.659   1.725  -0.760  0.00  0.00    +0.041 C 
ENDBRANCH   2  15
TORSDOF 2
