REMARK  Name = *****
REMARK                            x       y       z     vdW  Elec       q    Type
REMARK                         _______ _______ _______ _____ _____    ______ ____
ROOT
ATOM      1  C   LIG    1        7.052   3.678   4.000  0.00  0.00    +0.158 C 
ENDROOT
BRANCH   1   2
ATOM      2  C   LIG    1        6.921   2.478   4.903  0.00  0.00    +0.164 C 
ATOM      3  O   LIG    1        6.333   2.540   5.969  0.00  0.00    -0.292 OA
BRANCH   2   5
ATOM      4  C   LIG    1        7.160   0.034   4.904  0.00  0.00    +0.011 C 
ATOM      5  C   LIG    1        7.537   1.223   4.405  0.00  0.00    +0.047 C 
BRANCH   4  10
ATOM      6  C   LIG    1        8.575  -2.736   2.704  0.00  0.00    +0.162 A 
ATOM      7  C   LIG    1        8.584  -3.792   3.621  0.00  0.00    +0.159 A 
ATOM      8  C   LIG    1        8.145  -3.594   4.930  0.00  0.00    +0.050 A 
ATOM      9  C   LIG    1        7.691  -2.338   5.338  0.00  0.00    +0.012 A 
ATOM     10  C   LIG    1        7.684  -1.259   4.447  0.00  0.00    -0.021 A 
ATOM     11  C   LIG    1        8.120  -1.478   3.130  0.00  0.00    +0.057 A 
BRANCH   6  13
ATOM     12  C   LIG    1        9.467  -4.003   0.895  0.00  0.00    +0.277 C 
ATOM     13  O   LIG    1        8.956  -2.770   1.386  0.00  0.00    -0.491 OA
ENDBRANCH   6  13
BRANCH   7  14
ATOM     14  O   LIG    1        9.007  -5.044   3.271  0.00  0.00    -0.503 OA
ATOM     15  H   LIG    1        8.976  -5.629   4.043  0.00  0.00    +0.292 HD
ENDBRANCH   7  14
ENDBRANCH   4  10
ENDBRANCH   2   5
ENDBRANCH   1   2
BRANCH   1  16
ATOM     16  C   LIG    1        8.270   4.509   4.350  0.00  0.00    +0.164 C 
ATOM     17  O   LIG    1        9.409   4.081   4.175  0.00  0.00    -0.292 OA
BRANCH  16  18
ATOM     18  C   LIG    1        8.088   5.903   4.849  0.00  0.00    +0.047 C 
ATOM     19  C   LIG    1        6.944   6.361   5.357  0.00  0.00    +0.011 C 
BRANCH  19  20
ATOM     20  C   LIG    1        6.728   7.730   5.841  0.00  0.00    -0.021 A 
ATOM     21  C   LIG    1        7.407   8.825   5.298  0.00  0.00    +0.057 A 
ATOM     22  C   LIG    1        7.152  10.130   5.737  0.00  0.00    +0.162 A 
ATOM     23  C   LIG    1        6.200  10.332   6.740  0.00  0.00    +0.159 A 
ATOM     24  C   LIG    1        5.511   9.248   7.288  0.00  0.00    +0.050 A 
ATOM     25  C   LIG    1        5.766   7.954   6.832  0.00  0.00    +0.012 A 
BRANCH  22  26
ATOM     26  O   LIG    1        7.949  11.066   5.138  0.00  0.00    -0.491 OA
ATOM     27  C   LIG    1        7.401  12.366   4.981  0.00  0.00    +0.277 C 
ENDBRANCH  22  26
BRANCH  23  28
ATOM     28  O   LIG    1        5.936  11.581   7.227  0.00  0.00    -0.503 OA
ATOM     29  H   LIG    1        5.233  11.521   7.894  0.00  0.00    +0.292 HD
ENDBRANCH  23  28
ENDBRANCH  19  20
ENDBRANCH  16  18
ENDBRANCH   1  16
TORSDOF 10
