REMARK  Name = *****
REMARK                            x       y       z     vdW  Elec       q    Type
REMARK                         _______ _______ _______ _____ _____    ______ ____
ROOT
ATOM      1  C   LIG    1       -4.209   0.566  -1.703  0.00  0.00    +0.176 C 
ATOM      2  C   LIG    1       -4.924   0.766  -3.099  0.00  0.00    +0.018 C 
ATOM      3  C   LIG    1       -4.103   0.197  -4.273  0.00  0.00    +0.016 C 
ATOM      4  C   LIG    1       -5.045   2.303  -3.196  0.00  0.00    +0.006 C 
ATOM      5  C   LIG    1       -5.926   2.783  -4.364  0.00  0.00    +0.020 C 
ATOM      6  C   LIG    1       -7.260   2.053  -4.618  0.00  0.00    +0.006 C 
ATOM      7  C   LIG    1       -7.179   0.537  -4.348  0.00  0.00    +0.006 C 
ATOM      8  C   LIG    1       -8.587   2.779  -4.151  0.00  0.00    -0.003 C 
ATOM      9  C   LIG    1       -9.622   2.533  -5.299  0.00  0.00    +0.016 C 
ATOM     10  C   LIG    1       -8.443   4.301  -3.955  0.00  0.00    -0.035 C 
ATOM     11  C   LIG    1       -9.418   5.004  -3.343  0.00  0.00    +0.050 C 
ATOM     12  C   LIG    1      -10.594   4.337  -2.739  0.00  0.00    +0.156 C 
ATOM     13  O   LIG    1      -11.582   5.008  -2.447  0.00  0.00    -0.293 OA
ATOM     14  C   LIG    1      -10.535   2.851  -2.474  0.00  0.00    +0.080 C 
ATOM     15  C   LIG    1       -7.200   4.964  -4.351  0.00  0.00    -0.050 C 
ATOM     16  C   LIG    1       -7.188   6.455  -4.593  0.00  0.00    +0.044 C 
ATOM     17  C   LIG    1       -9.182   2.226  -2.829  0.00  0.00    +0.019 C 
ATOM     18  C   LIG    1       -6.056   4.271  -4.470  0.00  0.00    -0.019 C 
ATOM     19  C   LIG    1       -5.412   2.741  -1.772  0.00  0.00    +0.009 C 
ATOM     20  C   LIG    1       -6.358   0.152  -3.116  0.00  0.00    +0.011 C 
ATOM     21  C   LIG    1       -4.960   1.606  -0.831  0.00  0.00    +0.057 C 
ENDROOT
BRANCH   1  22
ATOM     22  C   LIG    1       -2.690   0.956  -1.759  0.00  0.00    +0.174 C 
ATOM     23  O   LIG    1       -2.314   2.131  -1.686  0.00  0.00    -0.293 OA
ATOM     24  C   LIG    1       -1.655  -0.127  -1.951  0.00  0.00    +0.090 C 
ENDBRANCH   1  22
BRANCH   1  25
ATOM     25  O   LIG    1       -4.439  -0.789  -1.254  0.00  0.00    -0.450 OA
BRANCH  25  27
ATOM     26  C   LIG    1       -4.404  -2.566   0.315  0.00  0.00    +0.136 C 
ATOM     27  C   LIG    1       -4.103  -1.120   0.025  0.00  0.00    +0.305 C 
ATOM     28  O   LIG    1       -3.567  -0.374   0.822  0.00  0.00    -0.251 OA
ENDBRANCH  25  27
ENDBRANCH   1  25
TORSDOF 3
