REMARK  Name = *****
REMARK                            x       y       z     vdW  Elec       q    Type
REMARK                         _______ _______ _______ _____ _____    ______ ____
ROOT
ATOM      1  C   LIG    1        3.098  -0.342   1.578  0.00  0.00    +0.027 C 
ATOM      2  C   LIG    1        2.582  -0.285   0.134  0.00  0.00    +0.086 C 
ATOM      3  N   LIG    1        2.621  -1.601  -0.566  0.00  0.00    -0.298 NA
ATOM      4  C   LIG    1        1.854  -2.636   0.127  0.00  0.00    +0.105 C 
ATOM      5  C   LIG    1        2.092  -1.420  -1.937  0.00  0.00    +0.112 C 
ATOM      6  C   LIG    1        2.825  -0.309  -2.700  0.00  0.00    +0.176 C 
ATOM      7  O   LIG    1        2.749   0.945  -2.014  0.00  0.00    -0.369 OA
ATOM      8  C   LIG    1        3.293   0.857  -0.679  0.00  0.00    +0.165 C 
ENDROOT
BRANCH   8   9
ATOM      9  C   LIG    1        4.814   0.920  -0.742  0.00  0.00    -0.017 A 
ATOM     10  C   LIG    1        5.427   2.167  -0.963  0.00  0.00    +0.006 A 
ATOM     11  C   LIG    1        6.816   2.285  -1.041  0.00  0.00    +0.000 A 
ATOM     12  C   LIG    1        7.618   1.155  -0.910  0.00  0.00    +0.000 A 
ATOM     13  C   LIG    1        7.030  -0.091  -0.710  0.00  0.00    +0.000 A 
ATOM     14  C   LIG    1        5.639  -0.208  -0.632  0.00  0.00    +0.006 A 
ENDBRANCH   8   9
TORSDOF 1
