REMARK  Name = *****
REMARK                            x       y       z     vdW  Elec       q    Type
REMARK                         _______ _______ _______ _____ _____    ______ ____
ROOT
ATOM      1  C   LIG    1       -0.852   0.908   0.267  0.00  0.00    +0.019 C 
ATOM      2  C   LIG    1       -2.347   0.579   0.457  0.00  0.00    +0.029 C 
ATOM      3  C   LIG    1       -2.504   0.000   1.861  0.00  0.00    +0.140 C 
ATOM      4  O   LIG    1       -2.639   0.673   2.874  0.00  0.00    -0.297 OA
ATOM      5  C   LIG    1       -2.443  -1.504   1.867  0.00  0.00    +0.075 C 
ATOM      6  C   LIG    1       -2.231  -1.835   0.388  0.00  0.00    +0.012 C 
ATOM      7  C   LIG    1       -2.799  -0.633  -0.404  0.00  0.00    +0.006 C 
ATOM      8  C   LIG    1       -4.332  -0.729  -0.755  0.00  0.00    +0.001 C 
ATOM      9  C   LIG    1       -5.016   0.658  -0.933  0.00  0.00    +0.023 C 
ATOM     10  C   LIG    1       -6.538   0.628  -1.016  0.00  0.00    -0.041 A 
ATOM     11  C   LIG    1       -7.276  -0.519  -0.685  0.00  0.00    -0.041 A 
ATOM     12  C   LIG    1       -6.593  -1.824  -0.403  0.00  0.00    +0.036 C 
ATOM     13  C   LIG    1       -8.679  -0.455  -0.652  0.00  0.00    +0.049 A 
ATOM     14  C   LIG    1       -9.335   0.741  -0.915  0.00  0.00    +0.117 A 
ATOM     15  C   LIG    1       -8.623   1.878  -1.265  0.00  0.00    +0.045 A 
ATOM     16  C   LIG    1       -7.231   1.813  -1.334  0.00  0.00    +0.008 A 
ATOM     17  C   LIG    1       -4.635   1.615   0.207  0.00  0.00    +0.009 C 
ATOM     18  C   LIG    1       -5.182  -1.634   0.156  0.00  0.00    +0.009 C 
ATOM     19  C   LIG    1       -3.141   1.852   0.240  0.00  0.00    +0.015 C 
ENDROOT
BRANCH  14  20
ATOM     20  O   LIG    1      -10.695   0.761  -0.812  0.00  0.00    -0.507 OA
ATOM     21  H   LIG    1      -10.998   1.673  -0.950  0.00  0.00    +0.292 HD
ENDBRANCH  14  20
TORSDOF 1
