REMARK  Name = *****
REMARK                            x       y       z     vdW  Elec       q    Type
REMARK                         _______ _______ _______ _____ _____    ______ ____
ROOT
ATOM      1  C   LIG    1       10.096  -3.558   8.745  0.00  0.00    +0.028 C 
ENDROOT
BRANCH   1   2
ATOM      2  C   LIG    1       11.232  -4.117   7.835  0.00  0.00    +0.017 C 
BRANCH   2   3
ATOM      3  C   LIG    1       11.531  -5.653   7.716  0.00  0.00    +0.084 C 
BRANCH   3   4
ATOM      4  N   LIG    1       12.748  -5.987   6.912  0.00  0.00    -0.305 NA
ATOM      5  C   LIG    1       12.769  -5.350   5.590  0.00  0.00    +0.105 C 
BRANCH   4   6
ATOM      6  C   LIG    1       13.046  -7.462   6.768  0.00  0.00    +0.089 C 
BRANCH   6   7
ATOM      7  C   LIG    1       14.480  -7.706   6.174  0.00  0.00    +0.050 C 
BRANCH   7  11
ATOM      8  C   LIG    1       16.504 -11.525   5.250  0.00  0.00    +0.162 A 
ATOM      9  C   LIG    1       15.486 -11.464   6.236  0.00  0.00    +0.162 A 
ATOM     10  C   LIG    1       14.823 -10.241   6.537  0.00  0.00    +0.053 A 
ATOM     11  C   LIG    1       15.046  -9.076   5.810  0.00  0.00    -0.043 A 
ATOM     12  C   LIG    1       15.977  -9.165   4.758  0.00  0.00    +0.007 A 
ATOM     13  C   LIG    1       16.698 -10.353   4.491  0.00  0.00    +0.050 A 
BRANCH   8  15
ATOM     14  C   LIG    1       18.041 -13.464   5.601  0.00  0.00    +0.277 C 
ATOM     15  O   LIG    1       17.191 -12.633   4.783  0.00  0.00    -0.491 OA
ENDBRANCH   8  15
BRANCH   9  16
ATOM     16  O   LIG    1       14.928 -12.489   6.982  0.00  0.00    -0.491 OA
ATOM     17  C   LIG    1       15.777 -13.589   7.055  0.00  0.00    +0.277 C 
ENDBRANCH   9  16
ENDBRANCH   7  11
ENDBRANCH   6   7
ENDBRANCH   4   6
ENDBRANCH   3   4
ENDBRANCH   2   3
ENDBRANCH   1   2
BRANCH   1  18
ATOM     18  C   LIG    1        8.545  -3.700   8.373  0.00  0.00    +0.085 C 
BRANCH  18  19
ATOM     19  C   LIG    1        8.148  -5.226   8.374  0.00  0.00    -0.024 A 
ATOM     20  C   LIG    1        8.163  -6.042   7.227  0.00  0.00    +0.054 A 
ATOM     21  C   LIG    1        7.980  -7.455   7.287  0.00  0.00    +0.162 A 
ATOM     22  C   LIG    1        7.636  -8.082   8.504  0.00  0.00    +0.162 A 
ATOM     23  C   LIG    1        7.571  -7.286   9.644  0.00  0.00    +0.050 A 
ATOM     24  C   LIG    1        7.835  -5.897   9.579  0.00  0.00    +0.009 A 
BRANCH  21  25
ATOM     25  O   LIG    1        8.147  -8.286   6.197  0.00  0.00    -0.491 OA
ATOM     26  C   LIG    1        8.536  -7.675   4.970  0.00  0.00    +0.277 C 
ENDBRANCH  21  25
BRANCH  22  27
ATOM     27  O   LIG    1        7.432  -9.442   8.511  0.00  0.00    -0.491 OA
ATOM     28  C   LIG    1        6.552 -10.011   9.487  0.00  0.00    +0.277 C 
ENDBRANCH  22  27
ENDBRANCH  18  19
BRANCH  18  29
ATOM     29  C   LIG    1        8.230  -2.859   7.033  0.00  0.00    +0.007 C 
ATOM     30  C   LIG    1        8.920  -1.465   6.998  0.00  0.00    +0.009 C 
ATOM     31  C   LIG    1        6.731  -2.690   6.676  0.00  0.00    +0.009 C 
ENDBRANCH  18  29
BRANCH  18  32
ATOM     32  C   LIG    1        7.803  -2.997   9.451  0.00  0.00    +0.074 C 
ATOM     33  N   LIG    1        7.198  -2.414  10.329  0.00  0.00    -0.196 NA
ENDBRANCH  18  32
ENDBRANCH   1  18
TORSDOF 14
