REMARK  Name = *****
REMARK                            x       y       z     vdW  Elec       q    Type
REMARK                         _______ _______ _______ _____ _____    ______ ____
ROOT
ATOM      1  C   LIG    1        4.740   1.512  -0.339  0.00  0.00    +0.064 C 
ATOM      2  C   LIG    1        5.571   2.590  -1.134  0.00  0.00    +0.039 C 
ATOM      3  C   LIG    1        6.053   1.781  -2.380  0.00  0.00    -0.002 C 
ATOM      4  C   LIG    1        4.891   0.808  -2.604  0.00  0.00    +0.009 C 
ATOM      5  C   LIG    1        7.170   0.787  -2.018  0.00  0.00    +0.004 C 
ATOM      6  C   LIG    1        6.444  -0.240  -1.138  0.00  0.00    +0.005 C 
ATOM      7  C   LIG    1        4.979   0.230  -1.187  0.00  0.00    +0.007 C 
ENDROOT
BRANCH   2   8
ATOM      8  C   LIG    1        6.681   3.401  -0.491  0.00  0.00    -0.043 A 
ATOM      9  C   LIG    1        6.935   4.706  -0.949  0.00  0.00    +0.004 A 
ATOM     10  C   LIG    1        7.971   5.471  -0.404  0.00  0.00    +0.000 A 
ATOM     11  C   LIG    1        8.770   4.946   0.608  0.00  0.00    +0.000 A 
ATOM     12  C   LIG    1        8.532   3.658   1.077  0.00  0.00    +0.000 A 
ATOM     13  C   LIG    1        7.503   2.897   0.525  0.00  0.00    +0.004 A 
ENDBRANCH   2   8
BRANCH   1  14
ATOM     14  N   LIG    1        4.933   1.323   1.099  0.00  0.00    -0.313 NA
ATOM     15  H   LIG    1        4.480   0.460   1.398  0.00  0.00    +0.122 HD
BRANCH  14  17
ATOM     16  C   LIG    1        4.614   2.244   3.357  0.00  0.00    +0.020 C 
ATOM     17  C   LIG    1        4.383   2.446   1.867  0.00  0.00    +0.077 C 
ENDBRANCH  14  17
ENDBRANCH   1  14
TORSDOF 3
