REMARK  Name = *****
REMARK                            x       y       z     vdW  Elec       q    Type
REMARK                         _______ _______ _______ _____ _____    ______ ____
ROOT
ATOM      1  C   LIG    1        3.562   0.623  -1.220  0.00  0.00    +0.059 C 
ATOM      2  C   LIG    1        2.907  -0.730  -1.034  0.00  0.00    +0.037 C 
ATOM      3  C   LIG    1        4.385  -0.548  -0.781  0.00  0.00    +0.029 C 
ENDROOT
BRANCH   2   4
ATOM      4  C   LIG    1        2.412  -1.552  -2.203  0.00  0.00    -0.043 A 
ATOM      5  C   LIG    1        1.330  -1.116  -2.987  0.00  0.00    +0.004 A 
ATOM      6  C   LIG    1        0.842  -1.881  -4.050  0.00  0.00    +0.000 A 
ATOM      7  C   LIG    1        1.423  -3.109  -4.348  0.00  0.00    +0.000 A 
ATOM      8  C   LIG    1        2.487  -3.572  -3.580  0.00  0.00    +0.000 A 
ATOM      9  C   LIG    1        2.970  -2.803  -2.518  0.00  0.00    +0.004 A 
ENDBRANCH   2   4
BRANCH   1  10
ATOM     10  N   LIG    1        3.833   1.184  -2.542  0.00  0.00    -0.327 NA
ATOM     11  H   LIG    1        2.976   1.508  -2.986  0.00  0.00    +0.118 HD
ATOM     12  H   LIG    1        4.456   1.988  -2.482  0.00  0.00    +0.118 HD
ENDBRANCH   1  10
TORSDOF 2
