REMARK  Name = *****
REMARK                            x       y       z     vdW  Elec       q    Type
REMARK                         _______ _______ _______ _____ _____    ______ ____
ROOT
ATOM      1  C   LIG    1        4.042  -1.155  -0.027  0.00  0.00    +0.314 C 
ATOM      2  O   LIG    1        3.702  -0.681  -1.109  0.00  0.00    -0.254 OA
ENDROOT
BRANCH   1   4
ATOM      3  C   LIG    1        1.931  -1.205   0.896  0.00  0.00    +0.374 C 
ATOM      4  N   LIG    1        3.186  -1.464   1.008  0.00  0.00    -0.005 NA
BRANCH   3   5
ATOM      5  N   LIG    1        1.076  -1.522   1.895  0.00  0.00    -0.291 N 
ATOM      6  H   LIG    1        1.575  -1.771   2.743  0.00  0.00    +0.255 HD
ATOM      7  H   LIG    1        0.396  -0.791   2.068  0.00  0.00    +0.255 HD
ENDBRANCH   3   5
BRANCH   3   8
ATOM      8  N   LIG    1        1.252  -0.611  -0.111  0.00  0.00    -0.291 N 
ATOM      9  H   LIG    1        1.838  -0.479  -0.939  0.00  0.00    +0.255 HD
ATOM     10  H   LIG    1        0.400  -1.102  -0.354  0.00  0.00    +0.255 HD
ENDBRANCH   3   8
ENDBRANCH   1   4
BRANCH   1  11
ATOM     11  C   LIG    1        5.488  -1.501   0.303  0.00  0.00    +0.155 C 
BRANCH  11  12
ATOM     12  C   LIG    1        6.460  -1.181  -0.815  0.00  0.00    -0.001 A 
ATOM     13  C   LIG    1        7.036   0.098  -0.933  0.00  0.00    +0.046 A 
ATOM     14 CL   LIG    1        6.690   1.367   0.192  0.00  0.00    -0.083 Cl
ATOM     15  C   LIG    1        7.915   0.403  -1.979  0.00  0.00    +0.020 A 
ATOM     16  C   LIG    1        8.219  -0.554  -2.943  0.00  0.00    +0.003 A 
ATOM     17  C   LIG    1        7.641  -1.817  -2.860  0.00  0.00    +0.020 A 
ATOM     18  C   LIG    1        6.770  -2.129  -1.809  0.00  0.00    +0.046 A 
ATOM     19 CL   LIG    1        6.103  -3.725  -1.797  0.00  0.00    -0.083 Cl
ENDBRANCH  11  12
ENDBRANCH   1  11
TORSDOF 5
