REMARK  Name = *****
REMARK                            x       y       z     vdW  Elec       q    Type
REMARK                         _______ _______ _______ _____ _____    ______ ____
ROOT
ATOM      1  C   LIG    1        2.975  -0.125  -1.711  0.00  0.00    +0.001 C 
ATOM      2  C   LIG    1        4.188   0.813  -2.161  0.00  0.00    +0.000 C 
ATOM      3  C   LIG    1        4.655   0.557  -3.612  0.00  0.00    +0.014 C 
ATOM      4  C   LIG    1        5.382   0.372  -1.224  0.00  0.00    +0.003 C 
ATOM      5  C   LIG    1        6.454   1.406  -0.788  0.00  0.00    +0.025 C 
ATOM      6  C   LIG    1        5.683   3.102  -0.470  0.00  0.00    +0.003 C 
ATOM      7  C   LIG    1        4.168   3.027  -0.750  0.00  0.00    +0.036 C 
ATOM      8  C   LIG    1        6.573   4.486  -1.308  0.00  0.00    -0.026 C 
ATOM      9  C   LIG    1        5.680   5.380  -2.148  0.00  0.00    +0.012 C 
ATOM     10  C   LIG    1        8.315   4.532  -1.982  0.00  0.00    +0.000 C 
ATOM     11  C   LIG    1        9.199   5.177  -0.957  0.00  0.00    +0.035 C 
ATOM     12  C   LIG    1        8.788   4.414   0.256  0.00  0.00    +0.115 C 
ATOM     13  C   LIG    1        8.066   3.123  -0.239  0.00  0.00    +0.032 C 
ATOM     14  C   LIG    1        9.011   2.790  -2.365  0.00  0.00    +0.035 C 
ATOM     15  C   LIG    1        6.971   3.291  -1.869  0.00  0.00    +0.009 C 
ATOM     16  C   LIG    1        7.944   1.310  -1.934  0.00  0.00    +0.118 C 
ATOM     17  C   LIG    1        4.699  -0.277  -0.020  0.00  0.00    +0.005 C 
ATOM     18  C   LIG    1        3.800   2.334  -2.062  0.00  0.00    +0.121 C 
ATOM     19  C   LIG    1        3.590  -1.079  -0.667  0.00  0.00    +0.005 C 
ENDROOT
BRANCH   1  21
ATOM     20  C   LIG    1        1.487  -0.057  -3.865  0.00  0.00    +0.008 C 
ATOM     21  C   LIG    1        2.146  -0.918  -2.778  0.00  0.00    -0.010 C 
BRANCH  21  22
ATOM     22  C   LIG    1        1.039  -1.805  -2.138  0.00  0.00    +0.015 C 
BRANCH  22  23
ATOM     23  C   LIG    1       -0.106  -1.023  -1.495  0.00  0.00    +0.121 C 
BRANCH  23  24
ATOM     24  C   LIG    1       -1.130  -1.959  -0.906  0.00  0.00    +0.305 C 
ATOM     25  O   LIG    1       -1.094  -2.373   0.239  0.00  0.00    -0.251 OA
BRANCH  24  26
ATOM     26  O   LIG    1       -2.091  -2.323  -1.785  0.00  0.00    -0.481 OA
ATOM     27  H   LIG    1       -1.994  -1.925  -2.670  0.00  0.00    +0.295 HD
ENDBRANCH  24  26
ENDBRANCH  23  24
ENDBRANCH  22  23
ENDBRANCH  21  22
ENDBRANCH   1  21
BRANCH  12  28
ATOM     28  O   LIG    1        9.906   4.098   1.069  0.00  0.00    -0.392 OA
ATOM     29  H   LIG    1       10.514   3.546   0.545  0.00  0.00    +0.210 HD
ENDBRANCH  12  28
BRANCH  16  30
ATOM     30  O   LIG    1        8.812   0.277  -1.465  0.00  0.00    -0.392 OA
ATOM     31  H   LIG    1        8.260  -0.493  -1.250  0.00  0.00    +0.210 HD
ENDBRANCH  16  30
BRANCH  18  32
ATOM     32  O   LIG    1        2.408   2.539  -2.320  0.00  0.00    -0.391 OA
ATOM     33  H   LIG    1        1.943   2.616  -1.469  0.00  0.00    +0.210 HD
ENDBRANCH  18  32
TORSDOF 8
