REMARK  Name = *****
REMARK                            x       y       z     vdW  Elec       q    Type
REMARK                         _______ _______ _______ _____ _____    ______ ____
ROOT
ATOM      1  C   LIG    1        6.051  -2.312   4.548  0.00  0.00    -0.018 A 
ATOM      2  C   LIG    1        7.035  -3.263   4.220  0.00  0.00    +0.055 A 
ATOM      3  C   LIG    1        7.654  -4.055   5.204  0.00  0.00    +0.162 A 
ATOM      4  C   LIG    1        7.289  -3.870   6.539  0.00  0.00    +0.159 A 
ATOM      5  C   LIG    1        6.342  -2.900   6.885  0.00  0.00    +0.049 A 
ATOM      6  C   LIG    1        5.736  -2.123   5.895  0.00  0.00    +0.010 A 
ENDROOT
BRANCH   3   7
ATOM      7  O   LIG    1        8.558  -4.946   4.685  0.00  0.00    -0.491 OA
ATOM      8  C   LIG    1        9.222  -5.824   5.583  0.00  0.00    +0.277 C 
ENDBRANCH   3   7
BRANCH   4   9
ATOM      9  O   LIG    1        7.834  -4.618   7.548  0.00  0.00    -0.503 OA
ATOM     10  H   LIG    1        7.336  -4.455   8.363  0.00  0.00    +0.292 HD
ENDBRANCH   4   9
BRANCH   1  11
ATOM     11  C   LIG    1        5.398  -1.486   3.463  0.00  0.00    +0.195 C 
BRANCH  11  12
ATOM     12  O   LIG    1        4.059  -1.137   3.833  0.00  0.00    -0.375 OA
BRANCH  12  13
ATOM     13  C   LIG    1        3.414  -0.362   2.822  0.00  0.00    +0.160 C 
BRANCH  13  14
ATOM     14  C   LIG    1        1.984  -0.058   3.266  0.00  0.00    +0.028 C 
BRANCH  14  16
ATOM     15  C   LIG    1       -0.190   1.080   2.659  0.00  0.00    +0.004 C 
ATOM     16  C   LIG    1        1.236   0.775   2.225  0.00  0.00    -0.001 C 
ENDBRANCH  14  16
ENDBRANCH  13  14
ENDBRANCH  12  13
ENDBRANCH  11  12
ENDBRANCH   1  11
TORSDOF 7
