REMARK  Name = *****
REMARK                            x       y       z     vdW  Elec       q    Type
REMARK                         _______ _______ _______ _____ _____    ______ ____
ROOT
ATOM      1  O   LIG    1        9.402  -3.092  -5.360  0.00  0.00    -0.265 OA
ATOM      2  C   LIG    1        8.962  -2.466  -4.403  0.00  0.00    +0.289 C 
ATOM      3  C   LIG    1        9.782  -1.530  -3.615  0.00  0.00    +0.204 C 
ATOM      4  F   LIG    1       11.074  -1.385  -3.959  0.00  0.00    -0.198 F 
ATOM      5  C   LIG    1        9.233  -0.857  -2.605  0.00  0.00    +0.137 C 
ATOM      6  N   LIG    1        7.902  -1.011  -2.259  0.00  0.00    -0.271 N 
ATOM      7  C   LIG    1        7.081  -1.916  -2.931  0.00  0.00    +0.332 C 
ATOM      8  O   LIG    1        5.909  -2.126  -2.634  0.00  0.00    -0.246 OA
ATOM      9  N   LIG    1        7.665  -2.589  -3.978  0.00  0.00    -0.273 N 
ATOM     10  H   LIG    1        7.077  -3.228  -4.490  0.00  0.00    +0.173 HD
ENDROOT
BRANCH   6  11
ATOM     11  C1* LIG    1        7.296  -0.257  -1.162  0.00  0.00    +0.226 C 
ATOM     12  O4* LIG    1        8.008   0.981  -0.959  0.00  0.00    -0.348 OA
ATOM     13  C4* LIG    1        8.491   1.005   0.402  0.00  0.00    +0.175 C 
ATOM     14  C3* LIG    1        8.508  -0.443   0.869  0.00  0.00    +0.150 C 
ATOM     15  C2* LIG    1        7.296  -1.008   0.166  0.00  0.00    +0.088 C 
BRANCH  14  16
ATOM     16  O3* LIG    1        8.435  -0.581   2.276  0.00  0.00    -0.389 OA
ATOM     17  H3* LIG    1        7.611  -0.174   2.598  0.00  0.00    +0.210 HD
ENDBRANCH  14  16
BRANCH  13  18
ATOM     18  C5* LIG    1        9.865   1.668   0.433  0.00  0.00    +0.190 C 
BRANCH  18  19
ATOM     19  O5* LIG    1        9.759   3.010  -0.042  0.00  0.00    -0.392 OA
ATOM     20  H5* LIG    1        9.235   2.967  -0.865  0.00  0.00    +0.209 HD
ENDBRANCH  18  19
ENDBRANCH  13  18
ENDBRANCH   6  11
TORSDOF 4
