REMARK  Name = *****
REMARK                            x       y       z     vdW  Elec       q    Type
REMARK                         _______ _______ _______ _____ _____    ______ ____
ROOT
ATOM      1  C   UNK A  1        1.730  -4.764   0.571  0.00  0.00    +0.167 C 
ENDROOT
BRANCH   1   2
ATOM      2  C   UNK A  1        0.694  -5.782   0.094  0.00  0.00    -0.017 A 
ATOM      3  C   UNK A  1        0.955  -7.161   0.107  0.00  0.00    +0.013 A 
ATOM      4  C   UNK A  1       -0.030  -8.078  -0.286  0.00  0.00    +0.084 A 
ATOM      5  C   UNK A  1       -1.289  -7.621  -0.702  0.00  0.00    +0.273 A 
ATOM      6  C   UNK A  1       -1.548  -6.255  -0.788  0.00  0.00    +0.084 A 
ATOM      7  C   UNK A  1       -0.554  -5.351  -0.406  0.00  0.00    +0.013 A 
BRANCH   5   8
ATOM      8  N   UNK A  1       -2.353  -8.587  -1.003  0.00  0.00    +0.080 N 
ATOM      9  O   UNK A  1       -2.075  -9.792  -0.924  0.00  0.00    -0.576 OA
ATOM     10  O   UNK A  1       -3.472  -8.142  -1.298  0.00  0.00    +0.041 OA
ENDBRANCH   5   8
ENDBRANCH   1   2
BRANCH   1  11
ATOM     11  O   UNK A  1        1.092  -3.482   0.576  0.00  0.00    -0.385 OA
ATOM     12  H   UNK A  1        1.818  -2.836   0.443  0.00  0.00    +0.210 HD
ENDBRANCH   1  11
BRANCH   1  13
ATOM     13  C   UNK A  1        2.366  -5.024   1.979  0.00  0.00    +0.131 C 
BRANCH  13  16
ATOM     14  O   UNK A  0        3.301  -2.406   0.834  0.00  0.00    -0.273 OA
ATOM     15  C   UNK A  0        3.833  -2.881   1.824  0.00  0.00    +0.246 C 
ATOM     16  N   UNK A  1        3.494  -4.118   2.362  0.00  0.00    -0.305 N 
ATOM     17  H   UNK A  1        4.020  -4.428   3.183  0.00  0.00    +0.149 HD
BRANCH  15  18
ATOM     18  C   UNK A  0        4.994  -2.147   2.525  0.00  0.00    +0.256 C 
ATOM     19 CL   UNK A  0        6.512  -2.681   1.781  0.00  0.00    -0.095 Cl
ATOM     20 CL   UNK A  0        5.006  -2.457   4.275  0.00  0.00    -0.095 Cl
ENDBRANCH  15  18
ENDBRANCH  13  16
BRANCH  13  21
ATOM     21  C   UNK A  1        1.313  -5.040   3.105  0.00  0.00    +0.180 C 
BRANCH  21  22
ATOM     22  O   UNK A  1        1.931  -5.444   4.335  0.00  0.00    -0.393 OA
ATOM     23  H   UNK A  1        2.336  -4.652   4.729  0.00  0.00    +0.209 HD
ENDBRANCH  21  22
ENDBRANCH  13  21
ENDBRANCH   1  13
TORSDOF 8
