REMARK  Name = *****
REMARK                            x       y       z     vdW  Elec       q    Type
REMARK                         _______ _______ _______ _____ _____    ______ ____
ROOT
ATOM      1  N   LIG    1        6.213   1.464   6.711  0.00  0.00    -0.295 NA
ATOM      2  C   LIG    1        5.948   2.899   6.973  0.00  0.00    +0.128 C 
ATOM      3  C   LIG    1        6.249   3.390   8.411  0.00  0.00    +0.241 C 
ATOM      4  N   LIG    1        5.513   2.608   9.432  0.00  0.00    -0.217 N 
ATOM      5  C   LIG    1        5.274   1.200   9.053  0.00  0.00    +0.241 C 
ATOM      6  C   LIG    1        6.251   0.705   7.972  0.00  0.00    +0.128 C 
ENDROOT
BRANCH   4   7
ATOM      7  C   LIG    1        4.716   3.261  10.390  0.00  0.00    +0.330 C 
ATOM      8  C   LIG    1        4.118   2.461  11.521  0.00  0.00    +0.070 A 
ATOM      9  C   LIG    1        2.836   2.809  11.963  0.00  0.00    -0.019 A 
ATOM     10  C   LIG    1        2.174   1.975  12.873  0.00  0.00    +0.005 A 
ATOM     11  C   LIG    1        2.810   0.833  13.366  0.00  0.00    +0.000 A 
ATOM     12  C   LIG    1        4.124   0.549  12.998  0.00  0.00    +0.001 A 
ATOM     13  C   LIG    1        2.224   4.074  11.443  0.00  0.00    +0.158 C 
ATOM     14  S   LIG    1        3.501   5.375  11.351  0.00  0.00    +0.115 S 
ATOM     15  C   LIG    1        4.790   1.384  12.104  0.00  0.00    +0.016 A 
ATOM     16  N   LIG    1        4.452   4.538  10.254  0.00  0.00    -0.003 NA
ENDBRANCH   4   7
BRANCH   1  17
ATOM     17  C   LIG    1        5.266   0.867   5.756  0.00  0.00    +0.085 C 
BRANCH  17  18
ATOM     18  C   LIG    1        5.168   1.575   4.394  0.00  0.00    +0.017 C 
BRANCH  18  19
ATOM     19  C   LIG    1        6.508   1.680   3.664  0.00  0.00    +0.021 C 
BRANCH  19  20
ATOM     20  C   LIG    1        6.362   2.393   2.317  0.00  0.00    +0.116 C 
BRANCH  20  23
ATOM     21  O   LIG    1        8.421   4.409   2.671  0.00  0.00    -0.275 OA
ATOM     22  C   LIG    1        8.566   3.457   1.915  0.00  0.00    +0.226 C 
ATOM     23  N   LIG    1        7.639   2.495   1.631  0.00  0.00    -0.242 N 
ATOM     24  C   LIG    1        8.124   1.542   0.773  0.00  0.00    +0.226 C 
ATOM     25  O   LIG    1        7.602   0.482   0.489  0.00  0.00    -0.275 OA
ATOM     26  C   LIG    1        9.424   2.053   0.186  0.00  0.00    +0.087 C 
ATOM     27  C   LIG    1        9.179   2.629  -1.213  0.00  0.00    +0.013 C 
ATOM     28  C   LIG    1       10.208   3.679  -1.612  0.00  0.00    +0.001 C 
ATOM     29  C   LIG    1       10.256   4.796  -0.580  0.00  0.00    +0.001 C 
ATOM     30  C   LIG    1       10.695   4.251   0.771  0.00  0.00    +0.013 C 
ATOM     31  C   LIG    1        9.863   3.067   1.246  0.00  0.00    +0.087 C 
ENDBRANCH  20  23
ENDBRANCH  19  20
ENDBRANCH  18  19
ENDBRANCH  17  18
ENDBRANCH   1  17
TORSDOF 6
