REMARK  Name = *****
REMARK                            x       y       z     vdW  Elec       q    Type
REMARK                         _______ _______ _______ _____ _____    ______ ____
ROOT
ATOM      1  C   LIG    1        4.876   1.084  -4.122  0.00  0.00    +0.008 C 
ATOM      2  C   LIG    1        4.575  -0.193  -4.410  0.00  0.00    +0.012 C 
ENDROOT
BRANCH   1   6
ATOM      3  C   LIG    1        5.131   2.800  -0.221  0.00  0.00    +0.065 A 
ATOM      4  C   LIG    1        6.271   2.255  -0.821  0.00  0.00    +0.016 A 
ATOM      5  C   LIG    1        6.185   1.689  -2.099  0.00  0.00    +0.009 A 
ATOM      6  C   LIG    1        4.965   1.670  -2.783  0.00  0.00    -0.025 A 
ATOM      7  C   LIG    1        3.831   2.231  -2.186  0.00  0.00    +0.009 A 
ATOM      8  C   LIG    1        3.912   2.788  -0.906  0.00  0.00    +0.016 A 
BRANCH   3  11
ATOM      9  N   LIG    1        4.141   3.317   1.908  0.00  0.00    -0.099 NA
ATOM     10  H   LIG    1        4.358   3.696   2.832  0.00  0.00    +0.363 HD
ATOM     11  C   LIG    1        5.193   3.362   1.159  0.00  0.00    +0.308 C 
BRANCH  11  12
ATOM     12  N   LIG    1        6.344   3.927   1.627  0.00  0.00    -0.247 N 
ATOM     13  H   LIG    1        6.965   4.309   0.921  0.00  0.00    +0.288 HD
ATOM     14  H   LIG    1        6.230   4.564   2.406  0.00  0.00    +0.288 HD
ENDBRANCH  11  12
ENDBRANCH   3  11
ENDBRANCH   1   6
BRANCH   2  15
ATOM     15  C   LIG    1        4.277  -1.262  -3.447  0.00  0.00    +0.017 A 
ATOM     16  C   LIG    1        2.972  -1.512  -2.999  0.00  0.00    +0.125 A 
ATOM     17  C   LIG    1        2.707  -2.552  -2.103  0.00  0.00    +0.061 A 
ATOM     18  C   LIG    1        3.753  -3.367  -1.655  0.00  0.00    +0.068 A 
ATOM     19  C   LIG    1        5.058  -3.133  -2.105  0.00  0.00    +0.017 A 
ATOM     20  C   LIG    1        5.316  -2.084  -2.996  0.00  0.00    +0.012 A 
BRANCH  18  21
ATOM     21  C   LIG    1        3.468  -4.470  -0.690  0.00  0.00    +0.308 C 
ATOM     22  N   LIG    1        4.175  -5.547  -0.610  0.00  0.00    -0.099 NA
ATOM     23  H   LIG    1        4.915  -5.570  -1.317  0.00  0.00    +0.363 HD
BRANCH  21  24
ATOM     24  N   LIG    1        2.417  -4.373   0.177  0.00  0.00    -0.247 N 
ATOM     25  H   LIG    1        2.489  -5.086   0.898  0.00  0.00    +0.288 HD
ATOM     26  H   LIG    1        2.245  -3.453   0.565  0.00  0.00    +0.288 HD
ENDBRANCH  21  24
ENDBRANCH  18  21
BRANCH  16  27
ATOM     27  O   LIG    1        1.943  -0.739  -3.469  0.00  0.00    -0.506 OA
ATOM     28  H   LIG    1        1.110  -1.049  -3.080  0.00  0.00    +0.292 HD
ENDBRANCH  16  27
ENDBRANCH   2  15
TORSDOF 7
