REMARK  Name = *****
REMARK                            x       y       z     vdW  Elec       q    Type
REMARK                         _______ _______ _______ _____ _____    ______ ____
ROOT
ATOM      1  C   LIG    1        2.805   0.578  -1.308  0.00  0.00    +0.074 C 
ENDROOT
BRANCH   1   2
ATOM      2  N   LIG    1        2.676   1.875  -1.978  0.00  0.00    -0.324 NA
ATOM      3  H   LIG    1        1.734   1.928  -2.373  0.00  0.00    +0.119 HD
ATOM      4  H   LIG    1        2.691   2.597  -1.252  0.00  0.00    +0.119 HD
ENDBRANCH   1   2
BRANCH   1   6
ATOM      5  C   LIG    1        0.748   1.169   0.106  0.00  0.00    +0.005 C 
ATOM      6  C   LIG    1        1.737   0.343  -0.268  0.00  0.00    -0.016 C 
ENDBRANCH   1   6
BRANCH   1   7
ATOM      7  C   LIG    1        4.212   0.468  -0.690  0.00  0.00    +0.034 C 
BRANCH   7   8
ATOM      8  C   LIG    1        5.356   0.717  -1.673  0.00  0.00    +0.122 C 
BRANCH   8   9
ATOM      9  C   LIG    1        5.344  -0.254  -2.828  0.00  0.00    +0.305 C 
ATOM     10  O   LIG    1        5.904  -1.335  -2.813  0.00  0.00    -0.251 OA
BRANCH   9  11
ATOM     11  O   LIG    1        4.615   0.184  -3.881  0.00  0.00    -0.481 OA
ATOM     12  H   LIG    1        4.163   1.036  -3.703  0.00  0.00    +0.295 HD
ENDBRANCH   9  11
ENDBRANCH   8   9
ENDBRANCH   7   8
ENDBRANCH   1   7
TORSDOF 6
