REMARK  Name = *****
REMARK                            x       y       z     vdW  Elec       q    Type
REMARK                         _______ _______ _______ _____ _____    ______ ____
ROOT
ATOM      1  C   LIG    1        2.415  -6.738   7.308  0.00  0.00    +0.014 C 
ATOM      2  C   LIG    1        1.547  -6.814   6.045  0.00  0.00    +0.037 C 
ATOM      3  C   LIG    1        2.385  -6.803   4.712  0.00  0.00    +0.127 C 
ATOM      4  C   LIG    1        1.901  -5.981   3.465  0.00  0.00    +0.056 C 
ATOM      5  C   LIG    1        2.660  -4.655   3.296  0.00  0.00    +0.014 C 
ATOM      6  C   LIG    1        0.386  -5.724   3.301  0.00  0.00    +0.179 C 
ATOM      7  C   LIG    1       -0.430  -7.003   3.177  0.00  0.00    +0.052 C 
ATOM      8  O   LIG    1       -0.054  -4.869   4.376  0.00  0.00    -0.461 OA
ATOM      9  C   LIG    1       -1.035  -3.967   4.118  0.00  0.00    +0.310 C 
ATOM     10  O   LIG    1       -1.801  -4.016   3.159  0.00  0.00    -0.251 OA
ATOM     11  C   LIG    1       -0.946  -2.777   5.056  0.00  0.00    +0.152 C 
ATOM     12  C   LIG    1        0.037  -1.703   4.537  0.00  0.00    +0.128 C 
ATOM     13  C   LIG    1       -0.014  -1.589   3.011  0.00  0.00    +0.063 C 
ATOM     14  C   LIG    1        0.951  -0.643   2.308  0.00  0.00    +0.119 C 
ATOM     15  C   LIG    1        0.652  -0.500   0.793  0.00  0.00    +0.062 C 
ATOM     16  C   LIG    1        0.594  -1.783  -0.082  0.00  0.00    +0.117 C 
ATOM     17  C   LIG    1       -0.591  -2.704   0.240  0.00  0.00    +0.034 C 
ATOM     18  C   LIG    1       -1.074  -3.639  -0.875  0.00  0.00    +0.036 C 
ATOM     19  C   LIG    1       -2.087  -4.673  -0.312  0.00  0.00    +0.143 C 
ATOM     20  C   LIG    1       -2.732  -5.527  -1.431  0.00  0.00    +0.150 C 
ATOM     21  C   LIG    1       -4.070  -6.188  -1.060  0.00  0.00    +0.108 C 
ATOM     22  C   LIG    1       -4.000  -6.943   0.253  0.00  0.00    +0.138 C 
ATOM     23  O   LIG    1       -3.009  -7.623   0.543  0.00  0.00    -0.297 OA
ATOM     24  C   LIG    1       -5.182  -6.821   1.205  0.00  0.00    +0.106 C 
ATOM     25  C   LIG    1       -4.748  -6.836   2.682  0.00  0.00    +0.138 C 
ATOM     26  C   LIG    1       -5.747  -6.190   3.687  0.00  0.00    +0.155 C 
ATOM     27  C   LIG    1       -6.154  -4.746   3.290  0.00  0.00    +0.134 C 
ATOM     28  C   LIG    1       -6.497  -3.724   4.409  0.00  0.00    +0.068 C 
ATOM     29  C   LIG    1       -7.953  -3.217   4.553  0.00  0.00    +0.147 C 
ATOM     30  C   LIG    1       -8.775  -4.302   5.184  0.00  0.00    +0.004 C 
ATOM     31  C   LIG    1       -9.471  -5.273   4.571  0.00  0.00    -0.002 C 
ATOM     32  C   LIG    1       -9.672  -6.506   5.308  0.00  0.00    -0.000 C 
ATOM     33  C   LIG    1       -9.311  -7.659   4.720  0.00  0.00    +0.000 C 
ATOM     34  C   LIG    1       -8.667  -8.693   5.506  0.00  0.00    +0.000 C 
ATOM     35  C   LIG    1       -7.717  -9.459   4.945  0.00  0.00    -0.000 C 
ATOM     36  C   LIG    1       -6.715 -10.151   5.723  0.00  0.00    -0.004 C 
ATOM     37  C   LIG    1       -5.641 -10.717   5.151  0.00  0.00    -0.026 C 
ATOM     38  C   LIG    1       -4.505 -11.330   5.925  0.00  0.00    +0.031 C 
ATOM     39  C   LIG    1       -3.127 -10.984   5.339  0.00  0.00    +0.031 C 
ATOM     40  C   LIG    1       -2.564  -9.637   5.724  0.00  0.00    -0.026 C 
ATOM     41  C   LIG    1       -1.260  -9.476   6.007  0.00  0.00    -0.005 C 
ATOM     42  C   LIG    1       -0.606  -8.195   6.186  0.00  0.00    -0.004 C 
ATOM     43  C   LIG    1        0.734  -8.098   6.125  0.00  0.00    -0.021 C 
ENDROOT
BRANCH   3  44
ATOM     44  O   LIG    1        3.769  -6.517   4.964  0.00  0.00    -0.391 OA
ATOM     45  H   LIG    1        3.821  -5.617   5.333  0.00  0.00    +0.210 HD
ENDBRANCH   3  44
BRANCH  12  46
ATOM     46  O   LIG    1        1.350  -2.029   4.986  0.00  0.00    -0.391 OA
ATOM     47  H   LIG    1        1.987  -1.602   4.372  0.00  0.00    +0.210 HD
ENDBRANCH  12  46
BRANCH  14  48
ATOM     48  O   LIG    1        2.282  -1.121   2.514  0.00  0.00    -0.392 OA
ATOM     49  H   LIG    1        2.475  -1.730   1.765  0.00  0.00    +0.210 HD
ENDBRANCH  14  48
BRANCH  16  50
ATOM     50  O   LIG    1        1.817  -2.498   0.103  0.00  0.00    -0.392 OA
ATOM     51  H   LIG    1        1.865  -3.173  -0.599  0.00  0.00    +0.210 HD
ENDBRANCH  16  50
BRANCH  19  52
ATOM     52  O   LIG    1       -3.099  -4.011   0.447  0.00  0.00    -0.389 OA
ATOM     53  H   LIG    1       -2.761  -3.937   1.369  0.00  0.00    +0.210 HD
ENDBRANCH  19  52
BRANCH  20  54
ATOM     54  O   LIG    1       -1.800  -6.519  -1.875  0.00  0.00    -0.389 OA
ATOM     55  H   LIG    1       -1.762  -7.205  -1.178  0.00  0.00    +0.210 HD
ENDBRANCH  20  54
BRANCH  25  56
ATOM     56  O   LIG    1       -3.511  -6.118   2.809  0.00  0.00    -0.391 OA
ATOM     57  H   LIG    1       -2.860  -6.602   2.255  0.00  0.00    +0.210 HD
ENDBRANCH  25  56
BRANCH  26  58
ATOM     58  C   LIG    1       -5.191  -6.266   5.103  0.00  0.00    +0.313 C 
ATOM     59  O   LIG    1       -5.856  -6.569   6.079  0.00  0.00    -0.251 OA
BRANCH  58  60
ATOM     60  O   LIG    1       -3.900  -5.871   5.229  0.00  0.00    -0.480 OA
ATOM     61  H   LIG    1       -3.489  -5.711   4.340  0.00  0.00    +0.295 HD
ENDBRANCH  58  60
ENDBRANCH  26  58
BRANCH  27  62
ATOM     62  O   LIG    1       -7.207  -4.865   2.322  0.00  0.00    -0.391 OA
ATOM     63  H   LIG    1       -7.643  -3.989   2.249  0.00  0.00    +0.210 HD
ENDBRANCH  27  62
BRANCH  29  64
ATOM     64  O   LIG    1       -8.377  -2.745   3.280  0.00  0.00    -0.341 OA
BRANCH  64  65
ATOM     65  C   LIG    1       -9.679  -2.158   3.160  0.00  0.00    +0.281 C 
ATOM     66  C   LIG    1       -9.975  -0.921   4.067  0.00  0.00    +0.189 C 
ATOM     67  C   LIG    1       -9.407   0.363   3.432  0.00  0.00    +0.116 C 
ATOM     68  C   LIG    1      -10.156   0.602   2.104  0.00  0.00    +0.162 C 
ATOM     69  C   LIG    1      -10.625  -0.720   1.451  0.00  0.00    +0.148 C 
ATOM     70  C   LIG    1      -10.671  -0.562  -0.067  0.00  0.00    +0.040 C 
ATOM     71  O   LIG    1       -9.760  -1.813   1.758  0.00  0.00    -0.343 OA
BRANCH  67  72
ATOM     72  N   LIG    1       -7.942   0.320   3.248  0.00  0.00    -0.323 NA
ATOM     73  H   LIG    1       -7.521  -0.035   4.111  0.00  0.00    +0.119 HD
ATOM     74  H   LIG    1       -7.723  -0.404   2.553  0.00  0.00    +0.119 HD
ENDBRANCH  67  72
BRANCH  66  75
ATOM     75  O   LIG    1       -9.569  -1.044   5.429  0.00  0.00    -0.385 OA
ATOM     76  H   LIG    1       -9.862  -0.243   5.898  0.00  0.00    +0.210 HD
ENDBRANCH  66  75
BRANCH  68  77
ATOM     77  O   LIG    1      -11.317   1.409   2.360  0.00  0.00    -0.388 OA
ATOM     78  H   LIG    1      -10.999   2.289   2.632  0.00  0.00    +0.210 HD
ENDBRANCH  68  77
ENDBRANCH  64  65
ENDBRANCH  29  64
TORSDOF 15
