REMARK  Name = *****
REMARK                            x       y       z     vdW  Elec       q    Type
REMARK                         _______ _______ _______ _____ _____    ______ ____
ROOT
ATOM      1  C   LIG    1       10.206  -2.386  -0.548  0.00  0.00    +0.060 A 
ATOM      2  C   LIG    1        8.896  -2.365   0.004  0.00  0.00    +0.040 A 
ATOM      3  I   LIG    1        8.336  -0.575   1.103  0.00  0.00    -0.042 I 
ATOM      4  C   LIG    1        7.906  -3.322  -0.363  0.00  0.00    -0.018 A 
ATOM      5  C   LIG    1        8.271  -4.235  -1.381  0.00  0.00    +0.019 A 
ATOM      6  I   LIG    1        7.014  -5.781  -2.084  0.00  0.00    -0.043 I 
ATOM      7  C   LIG    1        9.507  -4.146  -2.047  0.00  0.00    +0.030 A 
ATOM      8  C   LIG    1       10.461  -3.218  -1.641  0.00  0.00    +0.037 A 
ATOM      9  I   LIG    1       12.268  -3.132  -2.717  0.00  0.00    -0.042 I 
ENDROOT
BRANCH   1  11
ATOM     10  C   LIG    1       11.647  -1.729   1.309  0.00  0.00    +0.217 C 
ATOM     11  N   LIG    1       11.277  -1.607  -0.028  0.00  0.00    -0.284 N 
ATOM     12  H   LIG    1       12.067  -1.492  -0.655  0.00  0.00    +0.155 HD
ATOM     13  O   LIG    1       11.083  -2.444   2.131  0.00  0.00    -0.276 OA
BRANCH  10  14
ATOM     14  C   LIG    1       12.848  -0.867   1.661  0.00  0.00    +0.096 C 
BRANCH  14  16
ATOM     15  C   LIG    1       14.331  -2.814   2.320  0.00  0.00    +0.004 C 
ATOM     16  C   LIG    1       13.727  -1.484   2.747  0.00  0.00    +0.006 C 
ENDBRANCH  14  16
ENDBRANCH  10  14
ENDBRANCH   1  11
BRANCH   4  17
ATOM     17  C   LIG    1        6.510  -3.339   0.263  0.00  0.00    +0.052 C 
BRANCH  17  18
ATOM     18  C   LIG    1        6.293  -4.243   1.502  0.00  0.00    +0.102 C 
BRANCH  18  19
ATOM     19  C   LIG    1        4.790  -4.272   1.799  0.00  0.00    +0.308 C 
ATOM     20  O   LIG    1        4.035  -5.094   1.313  0.00  0.00    -0.251 OA
BRANCH  19  21
ATOM     21  O   LIG    1        4.328  -3.274   2.592  0.00  0.00    -0.480 OA
ATOM     22  H   LIG    1        4.989  -2.646   2.927  0.00  0.00    +0.295 HD
ENDBRANCH  19  21
ENDBRANCH  18  19
BRANCH  18  23
ATOM     23  C   LIG    1        7.147  -3.865   2.721  0.00  0.00    +0.011 C 
ATOM     24  C   LIG    1        6.907  -4.741   3.947  0.00  0.00    +0.004 C 
ENDBRANCH  18  23
ENDBRANCH  17  18
ENDBRANCH   4  17
TORSDOF 8
