REMARK  Name = *****
REMARK                            x       y       z     vdW  Elec       q    Type
REMARK                         _______ _______ _______ _____ _____    ______ ____
ROOT
ATOM      1  C   LIG    1        3.146  -0.233   2.015  0.00  0.00    +0.039 C 
ENDROOT
BRANCH   1   2
ATOM      2  C   LIG    1        2.778   0.653   3.181  0.00  0.00    -0.047 A 
ATOM      3  C   LIG    1        3.454   1.855   3.423  0.00  0.00    +0.004 A 
ATOM      4  C   LIG    1        3.070   2.676   4.489  0.00  0.00    +0.004 A 
ATOM      5  C   LIG    1        1.993   2.344   5.332  0.00  0.00    -0.042 A 
ATOM      6  C   LIG    1        1.347   1.117   5.095  0.00  0.00    +0.004 A 
ATOM      7  C   LIG    1        1.738   0.291   4.038  0.00  0.00    +0.004 A 
BRANCH   5   8
ATOM      8  C   LIG    1        1.532   3.312   6.433  0.00  0.00    -0.013 C 
ATOM      9  C   LIG    1        0.283   2.827   7.203  0.00  0.00    +0.015 C 
ATOM     10  C   LIG    1        1.171   4.670   5.792  0.00  0.00    +0.015 C 
ATOM     11  C   LIG    1        2.659   3.520   7.465  0.00  0.00    +0.015 C 
ENDBRANCH   5   8
ENDBRANCH   1   2
BRANCH   1  13
ATOM     12  C   LIG    1        0.887  -0.086   0.820  0.00  0.00    +0.009 C 
ATOM     13  C   LIG    1        2.411   0.108   0.700  0.00  0.00    +0.004 C 
BRANCH  13  14
ATOM     14  C   LIG    1        2.921  -0.764  -0.477  0.00  0.00    +0.088 C 
BRANCH  14  15
ATOM     15  N   LIG    1        4.367  -0.726  -0.766  0.00  0.00    -0.302 NA
ATOM     16  C   LIG    1        4.710  -1.631  -1.881  0.00  0.00    +0.084 C 
ATOM     17  C   LIG    1        4.232  -1.135  -3.252  0.00  0.00    +0.015 C 
ATOM     18  C   LIG    1        4.681   0.298  -3.531  0.00  0.00    +0.002 C 
ATOM     19  C   LIG    1        4.389   1.219  -2.349  0.00  0.00    +0.015 C 
ATOM     20  C   LIG    1        4.913   0.610  -1.048  0.00  0.00    +0.084 C 
ENDBRANCH  14  15
ENDBRANCH  13  14
ENDBRANCH   1  13
TORSDOF 5
