REMARK  Name = *****
REMARK                            x       y       z     vdW  Elec       q    Type
REMARK                         _______ _______ _______ _____ _____    ______ ____
ROOT
ATOM      1  C   LIG    1        4.923   1.237  -2.020  0.00  0.00    +0.137 A 
ATOM      2  C   LIG    1        4.852   2.622  -2.096  0.00  0.00    +0.052 A 
ATOM      3  C   LIG    1        5.629   3.321  -3.032  0.00  0.00    -0.011 A 
ATOM      4  C   LIG    1        6.494   2.591  -3.856  0.00  0.00    +0.052 A 
ATOM      5  C   LIG    1        6.630   1.210  -3.695  0.00  0.00    +0.137 A 
ATOM      6  C   LIG    1        5.828   0.521  -2.794  0.00  0.00    +0.092 A 
ENDROOT
BRANCH   1   7
ATOM      7  O   LIG    1        4.064   0.444  -1.237  0.00  0.00    -0.411 OA
BRANCH   7  10
ATOM      8  C   LIG    1        2.564  -1.640  -0.610  0.00  0.00    +0.135 C 
ATOM      9  N   LIG    1        2.016  -0.302  -0.510  0.00  0.00    -0.273 N 
ATOM     10  C   LIG    1        2.776   0.821  -0.837  0.00  0.00    +0.408 C 
ATOM     11  O   LIG    1        2.356   1.972  -0.773  0.00  0.00    -0.226 OA
ATOM     12  C   LIG    1        0.781  -0.118   0.214  0.00  0.00    +0.135 C 
ENDBRANCH   7  10
ENDBRANCH   1   7
BRANCH   3  13
ATOM     13  C   LIG    1        5.502   4.822  -3.225  0.00  0.00    +0.158 C 
BRANCH  13  14
ATOM     14  O   LIG    1        4.468   5.094  -4.181  0.00  0.00    -0.386 OA
ATOM     15  H   LIG    1        4.181   4.246  -4.558  0.00  0.00    +0.210 HD
ENDBRANCH  13  14
BRANCH  13  16
ATOM     16  C   LIG    1        5.180   5.567  -1.909  0.00  0.00    +0.117 C 
BRANCH  16  17
ATOM     17  N   LIG    1        5.063   7.023  -2.087  0.00  0.00    -0.308 NA
ATOM     18  H   LIG    1        4.349   7.176  -2.805  0.00  0.00    +0.122 HD
BRANCH  17  19
ATOM     19  C   LIG    1        4.728   7.764  -0.857  0.00  0.00    +0.011 C 
ATOM     20  C   LIG    1        5.847   7.607   0.188  0.00  0.00    +0.027 C 
ATOM     21  C   LIG    1        3.377   7.337  -0.254  0.00  0.00    +0.027 C 
ATOM     22  C   LIG    1        4.633   9.255  -1.234  0.00  0.00    +0.027 C 
ENDBRANCH  17  19
ENDBRANCH  16  17
ENDBRANCH  13  16
ENDBRANCH   3  13
BRANCH   5  23
ATOM     23  O   LIG    1        7.500   0.432  -4.477  0.00  0.00    -0.411 OA
BRANCH  23  24
ATOM     24  C   LIG    1        8.700   0.954  -4.961  0.00  0.00    +0.408 C 
ATOM     25  N   LIG    1        9.355   0.080  -5.804  0.00  0.00    -0.273 N 
ATOM     26  C   LIG    1       10.525   0.532  -6.530  0.00  0.00    +0.135 C 
ATOM     27  C   LIG    1        9.088  -1.347  -5.803  0.00  0.00    +0.135 C 
ATOM     28  O   LIG    1        9.130   2.075  -4.696  0.00  0.00    -0.226 OA
ENDBRANCH  23  24
ENDBRANCH   5  23
TORSDOF 9
