REMARK  Name = *****
REMARK                            x       y       z     vdW  Elec       q    Type
REMARK                         _______ _______ _______ _____ _____    ______ ____
ROOT
ATOM      1  C   LIG    1        2.340   1.158  -0.424  0.00  0.00    +0.188 C 
ATOM      2  C   LIG    1        3.829   1.165  -0.650  0.00  0.00    +0.008 C 
ATOM      3  C   LIG    1        4.595  -0.075  -0.502  0.00  0.00    +0.035 C 
ATOM      4  C   LIG    1        5.900  -0.074  -0.798  0.00  0.00    +0.071 C 
ATOM      5  C   LIG    1        6.893  -1.151  -0.834  0.00  0.00    +0.093 A 
ATOM      6  C   LIG    1        8.100  -0.583  -1.212  0.00  0.00    +0.000 A 
ATOM      7  C   LIG    1        9.200  -1.391  -1.379  0.00  0.00    +0.018 A 
ATOM      8  C   LIG    1        9.067  -2.776  -1.167  0.00  0.00    +0.009 A 
ATOM      9  C   LIG    1       10.161  -3.682  -1.297  0.00  0.00    +0.017 A 
ATOM     10  C   LIG    1        9.922  -5.050  -1.093  0.00  0.00    +0.122 A 
ATOM     11  C   LIG    1        8.659  -5.518  -0.751  0.00  0.00    +0.048 A 
ATOM     12  C   LIG    1        7.604  -4.615  -0.603  0.00  0.00    +0.032 A 
ATOM     13  C   LIG    1        7.768  -3.254  -0.801  0.00  0.00    +0.072 A 
ATOM     14  C   LIG    1        7.964   0.889  -1.401  0.00  0.00    +0.163 C 
ATOM     15  N   LIG    1        6.688  -2.458  -0.633  0.00  0.00    -0.245 NA
ATOM     16  N   LIG    1        6.538   1.098  -1.164  0.00  0.00    -0.302 N 
ATOM     17  C   LIG    1        5.922   2.315  -1.284  0.00  0.00    +0.259 C 
ATOM     18  O   LIG    1        6.497   3.348  -1.594  0.00  0.00    -0.267 OA
ATOM     19  C   LIG    1        4.447   2.296  -1.034  0.00  0.00    +0.061 C 
ATOM     20  C   LIG    1        3.750   3.585  -1.282  0.00  0.00    +0.273 C 
ATOM     21  O   LIG    1        2.320   3.543  -1.131  0.00  0.00    -0.458 OA
ATOM     22  C   LIG    1        1.720   2.576  -0.405  0.00  0.00    +0.344 C 
ATOM     23  O   LIG    1        0.653   2.790   0.172  0.00  0.00    -0.247 OA
ENDROOT
BRANCH   1  25
ATOM     24  C   LIG    1        1.693   0.744  -2.899  0.00  0.00    +0.007 C 
ATOM     25  C   LIG    1        1.562   0.299  -1.447  0.00  0.00    +0.048 C 
ENDBRANCH   1  25
BRANCH  10  26
ATOM     26  O   LIG    1       10.954  -5.937  -1.217  0.00  0.00    -0.506 OA
ATOM     27  H   LIG    1       10.626  -6.838  -1.060  0.00  0.00    +0.292 HD
ENDBRANCH  10  26
BRANCH   1  28
ATOM     28  O   LIG    1        2.102   0.589   0.877  0.00  0.00    -0.373 OA
ATOM     29  H   LIG    1        1.213   0.897   1.149  0.00  0.00    +0.211 HD
ENDBRANCH   1  28
BRANCH   9  30
ATOM     30  C   LIG    1       11.584  -3.203  -1.559  0.00  0.00    +0.123 C 
BRANCH  30  31
ATOM     31  N   LIG    1       11.813  -2.518  -2.851  0.00  0.00    -0.304 NA
ATOM     32  C   LIG    1       11.527  -3.395  -3.987  0.00  0.00    +0.105 C 
ATOM     33  C   LIG    1       13.211  -2.075  -2.912  0.00  0.00    +0.105 C 
ENDBRANCH  30  31
ENDBRANCH   9  30
TORSDOF 5
