REMARK  Name = *****
REMARK                            x       y       z     vdW  Elec       q    Type
REMARK                         _______ _______ _______ _____ _____    ______ ____
ROOT
ATOM      1  C   LIG    1        2.952  -1.318   0.583  0.00  0.00    +0.078 C 
ENDROOT
BRANCH   1   2
ATOM      2  S   LIG    1        2.300  -2.905  -0.083  0.00  0.00    -0.172 S 
ATOM      3  H   LIG    1        2.553  -2.621  -1.372  0.00  0.00    +0.102 HD
ENDBRANCH   1   2
BRANCH   1   4
ATOM      4  C   LIG    1        2.313  -0.152  -0.186  0.00  0.00    +0.170 C 
BRANCH   4   5
ATOM      5  O   LIG    1        2.704  -0.158  -1.556  0.00  0.00    -0.394 OA
ATOM      6  H   LIG    1        2.277   0.615  -1.979  0.00  0.00    +0.209 HD
ENDBRANCH   4   5
ENDBRANCH   1   4
BRANCH   1   7
ATOM      7  C   LIG    1        4.486  -1.351   0.514  0.00  0.00    +0.081 C 
BRANCH   7   8
ATOM      8  S   LIG    1        5.264   0.065   1.368  0.00  0.00    -0.177 S 
ATOM      9  H   LIG    1        4.803   1.023   0.550  0.00  0.00    +0.102 HD
ENDBRANCH   7   8
ENDBRANCH   1   7
TORSDOF 5
