REMARK  Name = *****
REMARK                            x       y       z     vdW  Elec       q    Type
REMARK                         _______ _______ _______ _____ _____    ______ ____
ROOT
ATOM      1  C   LIG    1        3.877   0.718   2.604  0.00  0.00    +0.086 C 
ENDROOT
BRANCH   1   2
ATOM      2  N   LIG    1        4.335  -0.027   3.801  0.00  0.00    -0.302 NA
ATOM      3  C   LIG    1        4.448   0.822   4.996  0.00  0.00    +0.086 C 
ATOM      4  C   LIG    1        3.102   1.253   5.583  0.00  0.00    +0.038 C 
ATOM      5  C   LIG    1        2.094   0.080   5.827  0.00  0.00    +0.095 C 
ATOM      6  C   LIG    1        2.103  -0.840   4.574  0.00  0.00    +0.038 C 
ATOM      7  C   LIG    1        3.527  -1.203   4.135  0.00  0.00    +0.086 C 
BRANCH   5   8
ATOM      8  C   LIG    1        2.429  -0.683   7.138  0.00  0.00    -0.030 A 
ATOM      9  C   LIG    1        2.470  -0.001   8.368  0.00  0.00    +0.005 A 
ATOM     10  C   LIG    1        2.782  -0.674   9.558  0.00  0.00    +0.000 A 
ATOM     11  C   LIG    1        3.053  -2.040   9.550  0.00  0.00    +0.000 A 
ATOM     12  C   LIG    1        2.990  -2.740   8.356  0.00  0.00    +0.000 A 
ATOM     13  C   LIG    1        2.667  -2.073   7.174  0.00  0.00    +0.005 A 
ENDBRANCH   5   8
BRANCH   5  14
ATOM     14  C   LIG    1        0.678   0.708   5.873  0.00  0.00    +0.315 C 
ATOM     15  O   LIG    1        0.370   1.751   5.309  0.00  0.00    -0.250 OA
BRANCH  14  16
ATOM     16  O   LIG    1       -0.260  -0.008   6.535  0.00  0.00    -0.480 OA
ATOM     17  H   LIG    1        0.075  -0.813   6.973  0.00  0.00    +0.295 HD
ENDBRANCH  14  16
ENDBRANCH   5  14
ENDBRANCH   1   2
BRANCH   1  18
ATOM     18  C   LIG    1        3.886  -0.193   1.361  0.00  0.00    +0.046 C 
BRANCH  18  19
ATOM     19  C   LIG    1        3.409   0.415   0.004  0.00  0.00    +0.108 C 
BRANCH  19  20
ATOM     20  C   LIG    1        4.321   1.622  -0.354  0.00  0.00    -0.023 A 
ATOM     21  C   LIG    1        3.833   2.942  -0.450  0.00  0.00    +0.005 A 
ATOM     22  C   LIG    1        4.676   4.006  -0.784  0.00  0.00    +0.000 A 
ATOM     23  C   LIG    1        6.025   3.780  -1.027  0.00  0.00    +0.000 A 
ATOM     24  C   LIG    1        6.535   2.488  -0.931  0.00  0.00    +0.000 A 
ATOM     25  C   LIG    1        5.695   1.421  -0.598  0.00  0.00    +0.005 A 
ENDBRANCH  19  20
BRANCH  19  26
ATOM     26  C   LIG    1        3.389  -0.680  -1.112  0.00  0.00    -0.023 A 
ATOM     27  C   LIG    1        3.477  -0.336  -2.475  0.00  0.00    +0.005 A 
ATOM     28  C   LIG    1        3.381  -1.309  -3.479  0.00  0.00    +0.000 A 
ATOM     29  C   LIG    1        3.177  -2.646  -3.150  0.00  0.00    +0.000 A 
ATOM     30  C   LIG    1        3.080  -3.015  -1.817  0.00  0.00    +0.000 A 
ATOM     31  C   LIG    1        3.183  -2.047  -0.814  0.00  0.00    +0.005 A 
ENDBRANCH  19  26
BRANCH  19  33
ATOM     32  N   LIG    1        0.860   1.141   0.379  0.00  0.00    -0.195 NA
ATOM     33  C   LIG    1        1.954   0.825   0.197  0.00  0.00    +0.079 C 
ENDBRANCH  19  33
ENDBRANCH  18  19
ENDBRANCH   1  18
TORSDOF 9
