REMARK  Name = *****
REMARK                            x       y       z     vdW  Elec       q    Type
REMARK                         _______ _______ _______ _____ _____    ______ ____
ROOT
ATOM      1  C   LIG    1        4.321   0.588   1.065  0.00  0.00    +0.039 C 
ATOM      2  C   LIG    1        4.978  -0.813   1.234  0.00  0.00    +0.018 C 
ENDROOT
BRANCH   1   3
ATOM      3  C   LIG    1        2.770   0.416   0.760  0.00  0.00    -0.002 C 
ATOM      4  C   LIG    1        1.948  -0.314   1.838  0.00  0.00    +0.008 C 
BRANCH   3   6
ATOM      5  C   LIG    1        1.918   2.839   1.326  0.00  0.00    +0.004 C 
ATOM      6  C   LIG    1        1.976   1.684   0.342  0.00  0.00    +0.000 C 
ENDBRANCH   3   6
ENDBRANCH   1   3
BRANCH   1   7
ATOM      7  C   LIG    1        4.657   1.384   2.359  0.00  0.00    +0.244 C 
BRANCH   7   8
ATOM      8  O   LIG    1        4.117   0.730   3.517  0.00  0.00    -0.450 OA
BRANCH   8   9
ATOM      9  C   LIG    1        4.988   0.379   4.487  0.00  0.00    +0.398 C 
ATOM     10  O   LIG    1        6.165   0.684   4.558  0.00  0.00    -0.227 OA
ATOM     11  N   LIG    1        4.366  -0.404   5.393  0.00  0.00    -0.295 N 
ATOM     12  H   LIG    1        4.887  -0.712   6.199  0.00  0.00    +0.148 HD
ATOM     13  H   LIG    1        3.372  -0.556   5.330  0.00  0.00    +0.148 HD
ENDBRANCH   8   9
ENDBRANCH   7   8
ENDBRANCH   1   7
BRANCH   1  14
ATOM     14  C   LIG    1        5.040   1.309  -0.118  0.00  0.00    +0.244 C 
BRANCH  14  15
ATOM     15  O   LIG    1        4.865   0.602  -1.364  0.00  0.00    -0.450 OA
BRANCH  15  16
ATOM     16  C   LIG    1        4.301   1.288  -2.387  0.00  0.00    +0.398 C 
ATOM     17  O   LIG    1        3.897   2.432  -2.370  0.00  0.00    -0.227 OA
ATOM     18  N   LIG    1        4.217   0.497  -3.483  0.00  0.00    -0.295 N 
ATOM     19  H   LIG    1        3.719   0.849  -4.287  0.00  0.00    +0.148 HD
ATOM     20  H   LIG    1        4.502  -0.467  -3.434  0.00  0.00    +0.148 HD
ENDBRANCH  15  16
ENDBRANCH  14  15
ENDBRANCH   1  14
TORSDOF 8
