REMARK  Name = *****
REMARK                            x       y       z     vdW  Elec       q    Type
REMARK                         _______ _______ _______ _____ _____    ______ ____
ROOT
ATOM      1  N   LIG    1       10.118   5.578   3.281  0.00  0.00    -0.337 NA
ATOM      2  C   LIG    1       11.318   5.962   3.865  0.00  0.00    +0.050 C 
ATOM      3  C   LIG    1       11.027   6.407   5.160  0.00  0.00    +0.008 C 
ATOM      4  C   LIG    1       12.119   6.767   5.993  0.00  0.00    +0.010 C 
ATOM      5  C   LIG    1       13.437   6.670   5.537  0.00  0.00    +0.001 C 
ATOM      6  C   LIG    1       13.691   6.287   4.232  0.00  0.00    +0.002 C 
ATOM      7  C   LIG    1        9.590   6.421   5.309  0.00  0.00    +0.015 C 
ATOM      8  C   LIG    1       12.641   5.949   3.377  0.00  0.00    +0.026 C 
ATOM      9  C   LIG    1        9.060   5.877   4.137  0.00  0.00    +0.051 C 
ENDROOT
BRANCH   7  10
ATOM     10  C   LIG    1        8.786   6.903   6.451  0.00  0.00    -0.015 C 
ATOM     11  C   LIG    1        7.523   7.497   6.273  0.00  0.00    +0.011 C 
ATOM     12  C   LIG    1        6.768   7.942   7.365  0.00  0.00    +0.039 C 
ATOM     13  C   LIG    1        7.288   7.840   8.646  0.00  0.00    +0.123 C 
ATOM     14  F   LIG    1        6.569   8.268   9.693  0.00  0.00    -0.205 F 
ATOM     15  C   LIG    1        8.544   7.293   8.855  0.00  0.00    +0.039 C 
ATOM     16  C   LIG    1        9.276   6.809   7.765  0.00  0.00    +0.011 C 
ENDBRANCH   7  10
BRANCH   1  18
ATOM     17  C   LIG    1       10.067   5.931   0.822  0.00  0.00    +0.030 C 
ATOM     18  C   LIG    1        9.987   4.924   1.968  0.00  0.00    +0.082 C 
ATOM     19  C   LIG    1       10.928   3.732   1.757  0.00  0.00    +0.030 C 
ENDBRANCH   1  18
BRANCH   9  20
ATOM     20  C   LIG    1        7.725   5.629   3.701  0.00  0.00    +0.025 C 
ATOM     21  C   LIG    1        7.115   4.462   3.973  0.00  0.00    +0.006 C 
BRANCH  21  22
ATOM     22  C   LIG    1        5.710   4.128   3.545  0.00  0.00    +0.140 C 
BRANCH  22  23
ATOM     23  O   LIG    1        5.122   3.292   4.539  0.00  0.00    -0.388 OA
ATOM     24  H   LIG    1        5.629   2.459   4.552  0.00  0.00    +0.210 HD
ENDBRANCH  22  23
BRANCH  22  25
ATOM     25  C   LIG    1        5.652   3.423   2.179  0.00  0.00    +0.067 C 
BRANCH  25  26
ATOM     26  C   LIG    1        4.215   3.113   1.708  0.00  0.00    +0.128 C 
BRANCH  26  27
ATOM     27  O   LIG    1        3.550   2.231   2.615  0.00  0.00    -0.391 OA
ATOM     28  H   LIG    1        3.537   2.668   3.498  0.00  0.00    +0.210 HD
ENDBRANCH  26  27
BRANCH  26  29
ATOM     29  C   LIG    1        4.165   2.426   0.343  0.00  0.00    +0.151 C 
BRANCH  29  30
ATOM     30  C   LIG    1        4.782   3.271  -0.747  0.00  0.00    +0.307 C 
ATOM     31  O   LIG    1        5.947   3.253  -1.041  0.00  0.00    -0.251 OA
BRANCH  30  32
ATOM     32  O   LIG    1        3.896   4.093  -1.345  0.00  0.00    -0.481 OA
ATOM     33  H   LIG    1        2.959   3.994  -1.029  0.00  0.00    +0.295 HD
ENDBRANCH  30  32
ENDBRANCH  29  30
ENDBRANCH  26  29
ENDBRANCH  25  26
ENDBRANCH  22  25
ENDBRANCH  21  22
ENDBRANCH   9  20
TORSDOF 11
