REMARK  Name = *****
REMARK                            x       y       z     vdW  Elec       q    Type
REMARK                         _______ _______ _______ _____ _____    ______ ____
ROOT
ATOM      1  C   LIG    1       15.186   2.590  -2.267  0.00  0.00    +0.138 A 
ATOM      2  C   LIG    1       16.485   2.048  -2.441  0.00  0.00    -0.001 A 
ATOM      3  C   LIG    1       17.151   1.194  -1.385  0.00  0.00    +0.048 C 
ATOM      4  C   LIG    1       17.223   2.438  -3.580  0.00  0.00    +0.001 A 
ATOM      5  C   LIG    1       18.628   1.930  -3.778  0.00  0.00    +0.043 C 
ATOM      6  C   LIG    1       19.173   2.267  -5.147  0.00  0.00    +0.052 C 
ATOM      7  C   LIG    1       18.796   3.689  -5.558  0.00  0.00    +0.108 C 
ATOM      8  O   LIG    1       17.368   3.834  -5.577  0.00  0.00    -0.485 OA
ATOM      9  C   LIG    1       19.401   4.763  -4.633  0.00  0.00    +0.056 C 
ATOM     10  C   LIG    1       16.667   3.342  -4.503  0.00  0.00    +0.128 A 
ATOM     11  C   LIG    1       15.352   3.825  -4.365  0.00  0.00    -0.002 A 
ATOM     12  C   LIG    1       14.791   4.742  -5.430  0.00  0.00    +0.048 C 
ATOM     13  C   LIG    1       14.625   3.509  -3.193  0.00  0.00    -0.001 A 
ATOM     14  C   LIG    1       13.281   4.161  -2.966  0.00  0.00    +0.048 C 
ENDROOT
BRANCH   1  15
ATOM     15  O   LIG    1       14.513   2.387  -1.029  0.00  0.00    -0.425 OA
BRANCH  15  17
ATOM     16  C   LIG    1       14.229   1.212   0.998  0.00  0.00    +0.136 C 
ATOM     17  C   LIG    1       14.309   1.103  -0.498  0.00  0.00    +0.309 C 
ATOM     18  O   LIG    1       14.312   0.060  -1.111  0.00  0.00    -0.251 OA
ENDBRANCH  15  17
ENDBRANCH   1  15
BRANCH   7  19
ATOM     19  C   LIG    1       19.293   3.974  -6.998  0.00  0.00    +0.048 C 
BRANCH  19  20
ATOM     20  C   LIG    1       18.677   3.049  -8.053  0.00  0.00    +0.004 C 
BRANCH  20  21
ATOM     21  C   LIG    1       19.175   3.376  -9.461  0.00  0.00    +0.003 C 
BRANCH  21  22
ATOM     22  C   LIG    1       18.597   2.449 -10.553  0.00  0.00    -0.014 C 
ATOM     23  C   LIG    1       17.082   2.642 -10.699  0.00  0.00    +0.007 C 
BRANCH  22  24
ATOM     24  C   LIG    1       18.897   0.954 -10.329  0.00  0.00    +0.003 C 
BRANCH  24  25
ATOM     25  C   LIG    1       20.389   0.636 -10.211  0.00  0.00    +0.000 C 
BRANCH  25  26
ATOM     26  C   LIG    1       20.609  -0.863  -9.977  0.00  0.00    +0.003 C 
BRANCH  26  27
ATOM     27  C   LIG    1       22.087  -1.293  -9.858  0.00  0.00    -0.014 C 
ATOM     28  C   LIG    1       22.741  -0.707  -8.601  0.00  0.00    +0.007 C 
BRANCH  27  29
ATOM     29  C   LIG    1       22.879  -0.956 -11.139  0.00  0.00    +0.003 C 
BRANCH  29  30
ATOM     30  C   LIG    1       24.302  -1.518 -11.122  0.00  0.00    +0.000 C 
BRANCH  30  31
ATOM     31  C   LIG    1       25.072  -1.202 -12.406  0.00  0.00    +0.003 C 
BRANCH  31  32
ATOM     32  C   LIG    1       26.517  -1.739 -12.367  0.00  0.00    -0.017 C 
ATOM     33  C   LIG    1       27.291  -1.307 -13.614  0.00  0.00    +0.007 C 
ATOM     34  C   LIG    1       26.562  -3.263 -12.235  0.00  0.00    +0.007 C 
ENDBRANCH  31  32
ENDBRANCH  30  31
ENDBRANCH  29  30
ENDBRANCH  27  29
ENDBRANCH  26  27
ENDBRANCH  25  26
ENDBRANCH  24  25
ENDBRANCH  22  24
ENDBRANCH  21  22
ENDBRANCH  20  21
ENDBRANCH  19  20
ENDBRANCH   7  19
TORSDOF 14
