REMARK  Name = *****
REMARK                            x       y       z     vdW  Elec       q    Type
REMARK                         _______ _______ _______ _____ _____    ______ ____
ROOT
ATOM      1  C   LIG    1        6.551   4.814  -0.962  0.00  0.00    +0.228 C 
ENDROOT
BRANCH   1   2
ATOM      2  C   LIG    1        6.090   5.111   0.467  0.00  0.00    +0.275 C 
BRANCH   2   3
ATOM      3  O   LIG    1        5.330   4.024   0.976  0.00  0.00    -0.488 OA
BRANCH   3  12
ATOM      4  C   LIG    1        0.800   0.742   1.515  0.00  0.00    +0.063 C 
ATOM      5  C   LIG    1        1.679   1.880   1.872  0.00  0.00    +0.014 C 
ATOM      6  N   LIG    1        1.370   2.738   2.899  0.00  0.00    -0.358 NA
ATOM      7  H   LIG    1        0.550   2.671   3.484  0.00  0.00    +0.166 HD
ATOM      8  C   LIG    1        2.336   3.710   3.027  0.00  0.00    +0.050 C 
ATOM      9  C   LIG    1        2.429   4.780   3.922  0.00  0.00    +0.026 C 
ATOM     10  C   LIG    1        3.550   5.608   3.821  0.00  0.00    +0.006 C 
ATOM     11  C   LIG    1        4.535   5.378   2.859  0.00  0.00    +0.046 C 
ATOM     12  C   LIG    1        4.419   4.316   1.950  0.00  0.00    +0.130 C 
ATOM     13  C   LIG    1        3.301   3.460   2.053  0.00  0.00    +0.042 C 
ATOM     14  C   LIG    1        2.875   2.305   1.334  0.00  0.00    +0.034 C 
ENDBRANCH   3  12
ENDBRANCH   2   3
ENDBRANCH   1   2
BRANCH   1  15
ATOM     15  C   LIG    1        7.531   3.624  -1.088  0.00  0.00    +0.129 C 
BRANCH  15  16
ATOM     16  N   LIG    1        7.054   2.289  -0.713  0.00  0.00    -0.308 NA
ATOM     17  H   LIG    1        6.191   2.078  -1.216  0.00  0.00    +0.123 HD
BRANCH  16  18
ATOM     18  C   LIG    1        8.035   1.198  -0.899  0.00  0.00    +0.011 C 
ATOM     19  C   LIG    1        8.473   1.068  -2.369  0.00  0.00    +0.027 C 
ATOM     20  C   LIG    1        7.365  -0.130  -0.491  0.00  0.00    +0.027 C 
ATOM     21  C   LIG    1        9.265   1.398   0.004  0.00  0.00    +0.027 C 
ENDBRANCH  16  18
ENDBRANCH  15  16
ENDBRANCH   1  15
BRANCH   1  22
ATOM     22  O   LIG    1        7.297   5.985  -1.407  0.00  0.00    -0.453 OA
BRANCH  22  23
ATOM     23  C   LIG    1        7.255   6.292  -2.719  0.00  0.00    +0.340 C 
ATOM     24  O   LIG    1        6.497   5.875  -3.569  0.00  0.00    -0.245 OA
BRANCH  23  25
ATOM     25  C   LIG    1        8.367   7.273  -2.948  0.00  0.00    +0.059 C 
ATOM     26  C   LIG    1        8.213   8.289  -3.902  0.00  0.00    +0.015 C 
ATOM     27  C   LIG    1        9.233   9.217  -4.101  0.00  0.00    +0.001 C 
ATOM     28  C   LIG    1       10.422   9.126  -3.369  0.00  0.00    +0.000 C 
ATOM     29  C   LIG    1       10.599   8.095  -2.448  0.00  0.00    +0.001 C 
ATOM     30  C   LIG    1        9.579   7.169  -2.239  0.00  0.00    +0.015 C 
ENDBRANCH  23  25
ENDBRANCH  22  23
ENDBRANCH   1  22
TORSDOF 9
