REMARK  Name = *****
REMARK                            x       y       z     vdW  Elec       q    Type
REMARK                         _______ _______ _______ _____ _____    ______ ____
ROOT
ATOM      1  O   LIG    1        1.685   1.485  -0.543  0.00  0.00    -0.241 OA
ENDROOT
BRANCH   1   3
ATOM      2  O   LIG    1        1.875   3.715  -1.120  0.00  0.00    -0.241 OA
ATOM      3  C   LIG    1        2.266   2.554  -1.142  0.00  0.00    +0.387 C 
BRANCH   3   4
ATOM      4  C   LIG    1        3.511   2.109  -1.829  0.00  0.00    +0.063 A 
ATOM      5  C   LIG    1        4.318   3.076  -2.446  0.00  0.00    +0.015 A 
ATOM      6  C   LIG    1        5.481   2.699  -3.118  0.00  0.00    +0.001 A 
ATOM      7  C   LIG    1        5.848   1.355  -3.180  0.00  0.00    +0.000 A 
ATOM      8  C   LIG    1        5.052   0.385  -2.572  0.00  0.00    +0.001 A 
ATOM      9  C   LIG    1        3.888   0.756  -1.900  0.00  0.00    +0.015 A 
ENDBRANCH   3   4
ENDBRANCH   1   3
BRANCH   1  10
ATOM     10  O   LIG    1        0.404   1.930  -0.012  0.00  0.00    -0.241 OA
BRANCH  10  11
ATOM     11  C   LIG    1       -0.494   0.939  -0.274  0.00  0.00    +0.387 C 
ATOM     12  O   LIG    1       -0.282  -0.117  -0.837  0.00  0.00    -0.241 OA
BRANCH  11  13
ATOM     13  C   LIG    1       -1.826   1.353   0.237  0.00  0.00    +0.063 A 
ATOM     14  C   LIG    1       -2.975   0.792  -0.334  0.00  0.00    +0.015 A 
ATOM     15  C   LIG    1       -4.237   1.149   0.148  0.00  0.00    +0.001 A 
ATOM     16  C   LIG    1       -4.351   2.056   1.204  0.00  0.00    +0.000 A 
ATOM     17  C   LIG    1       -3.209   2.611   1.778  0.00  0.00    +0.001 A 
ATOM     18  C   LIG    1       -1.947   2.262   1.297  0.00  0.00    +0.015 A 
ENDBRANCH  11  13
ENDBRANCH  10  11
ENDBRANCH   1  10
TORSDOF 5
