REMARK  Name = *****
REMARK                            x       y       z     vdW  Elec       q    Type
REMARK                         _______ _______ _______ _____ _____    ______ ____
ROOT
ATOM      1  C   LIG    1        4.608   2.862  -0.203  0.00  0.00    +0.265 C 
ATOM      2  N   LIG    1        5.814   2.794   0.463  0.00  0.00    -0.307 N 
ATOM      3  H   LIG    1        5.898   2.034   1.133  0.00  0.00    +0.149 HD
ATOM      4  O   LIG    1        4.315   3.774  -0.968  0.00  0.00    -0.268 OA
ENDROOT
BRANCH   1  12
ATOM      5  C   LIG    1        3.073  -1.374   1.580  0.00  0.00    +0.173 C 
ATOM      6  N   LIG    1        3.007  -0.105   0.893  0.00  0.00    -0.266 N 
ATOM      7  C   LIG    1        1.926   0.385   0.205  0.00  0.00    +0.069 A 
ATOM      8  C   LIG    1        2.366   1.581  -0.354  0.00  0.00    +0.032 A 
ATOM      9  C   LIG    1        1.483   2.327  -1.158  0.00  0.00    +0.012 A 
ATOM     10  C   LIG    1        0.176   1.866  -1.345  0.00  0.00    +0.001 A 
ATOM     11  C   LIG    1       -0.246   0.673  -0.761  0.00  0.00    +0.002 A 
ATOM     12  C   LIG    1        3.707   1.738   0.100  0.00  0.00    +0.155 A 
ATOM     13  C   LIG    1        0.624  -0.100   0.017  0.00  0.00    +0.028 A 
ATOM     14  N   LIG    1        4.083   0.709   0.891  0.00  0.00    -0.166 NA
ENDBRANCH   1  12
BRANCH   2  15
ATOM     15  C   LIG    1        6.835   3.824   0.357  0.00  0.00    +0.076 C 
ATOM     16  C   LIG    1        6.486   5.066   1.188  0.00  0.00    +0.041 C 
ATOM     17  C   LIG    1        7.663   6.046   1.366  0.00  0.00    +0.058 C 
ATOM     18  N   LIG    1        8.800   5.292   1.915  0.00  0.00    -0.299 NA
ATOM     19  C   LIG    1        9.293   4.326   0.924  0.00  0.00    +0.058 C 
ATOM     20  C   LIG    1        9.743   4.992  -0.390  0.00  0.00    +0.019 C 
ATOM     21  C   LIG    1        8.745   5.986  -0.980  0.00  0.00    +0.003 C 
ATOM     22  C   LIG    1        9.853   6.145   2.459  0.00  0.00    +0.105 C 
ATOM     23  C   LIG    1        8.029   6.817   0.082  0.00  0.00    +0.019 C 
ATOM     24  C   LIG    1        8.205   3.255   0.732  0.00  0.00    +0.041 C 
ENDBRANCH   2  15
TORSDOF 2
