REMARK  Name = *****
REMARK                            x       y       z     vdW  Elec       q    Type
REMARK                         _______ _______ _______ _____ _____    ______ ____
ROOT
ATOM      1  C   LIG    1        2.762  -0.321  -1.192  0.00  0.00    +0.104 C 
ATOM      2  C   LIG    1        3.081  -1.815  -1.096  0.00  0.00    +0.152 C 
ATOM      3  O   LIG    1        4.101  -2.212  -0.524  0.00  0.00    -0.296 OA
ATOM      4  C   LIG    1        2.057  -2.799  -1.636  0.00  0.00    +0.070 C 
ATOM      5  C   LIG    1        2.629  -4.206  -1.770  0.00  0.00    +0.017 C 
ATOM      6  C   LIG    1        1.595  -2.275  -2.981  0.00  0.00    +0.115 C 
ATOM      7  N   LIG    1        1.026  -0.961  -2.841  0.00  0.00    -0.314 N 
ATOM      8  H   LIG    1        0.286  -0.655  -3.466  0.00  0.00    +0.149 HD
ATOM      9  C   LIG    1        1.565   0.029  -2.073  0.00  0.00    +0.226 C 
ATOM     10  O   LIG    1        1.086   1.159  -2.134  0.00  0.00    -0.275 OA
ENDROOT
BRANCH   1  12
ATOM     11  C   LIG    1        1.304  -0.419   0.952  0.00  0.00    +0.005 C 
ATOM     12  C   LIG    1        2.497   0.215   0.243  0.00  0.00    +0.020 C 
ENDBRANCH   1  12
BRANCH   1  13
ATOM     13  C   LIG    1        4.005   0.423  -1.758  0.00  0.00    +0.020 C 
ATOM     14  C   LIG    1        4.420   0.008  -3.166  0.00  0.00    +0.005 C 
ENDBRANCH   1  13
TORSDOF 2
