REMARK  Name = *****
REMARK                            x       y       z     vdW  Elec       q    Type
REMARK                         _______ _______ _______ _____ _____    ______ ____
ROOT
ATOM      1  C   LIG    1        1.674   2.533   1.851  0.00  0.00    +0.046 C 
ATOM      2  C   LIG    1        2.443   1.430   1.206  0.00  0.00    -0.023 A 
ATOM      3  C   LIG    1        2.059   0.081   1.244  0.00  0.00    +0.089 A 
ATOM      4  C   LIG    1        2.844  -0.847   0.559  0.00  0.00    +0.030 A 
ATOM      5  C   LIG    1        3.990  -0.435  -0.131  0.00  0.00    +0.010 A 
ATOM      6  C   LIG    1        4.399   0.911  -0.159  0.00  0.00    -0.018 A 
ATOM      7  C   LIG    1        3.579   1.820   0.504  0.00  0.00    +0.014 A 
ENDROOT
BRANCH   6   8
ATOM      8  C   LIG    1        5.629   1.376  -0.835  0.00  0.00    -0.018 A 
ATOM      9  C   LIG    1        6.459   0.481  -1.518  0.00  0.00    +0.014 A 
ATOM     10  C   LIG    1        7.622   0.883  -2.187  0.00  0.00    -0.023 A 
ATOM     11  C   LIG    1        8.392  -0.182  -2.915  0.00  0.00    +0.046 C 
ATOM     12  C   LIG    1        7.993   2.238  -2.167  0.00  0.00    +0.089 A 
ATOM     13  C   LIG    1        7.192   3.142  -1.466  0.00  0.00    +0.030 A 
ATOM     14  C   LIG    1        6.032   2.723  -0.824  0.00  0.00    +0.010 A 
BRANCH  12  15
ATOM     15  N   LIG    1        9.150   2.676  -2.843  0.00  0.00    -0.149 NA
ATOM     16  N   LIG    1        8.952   3.787  -3.386  0.00  0.00    -0.144 NA
BRANCH  16  17
ATOM     17  C   LIG    1        9.979   4.192  -4.253  0.00  0.00    +0.155 A 
ATOM     18  C   LIG    1       10.355   5.531  -4.384  0.00  0.00    +0.148 A 
ATOM     19  C   LIG    1       11.250   5.933  -5.388  0.00  0.00    +0.040 A 
ATOM     20  C   LIG    1       11.836   5.004  -6.250  0.00  0.00    -0.009 A 
ATOM     21  C   LIG    1       11.546   3.624  -6.114  0.00  0.00    +0.047 A 
ATOM     22  C   LIG    1       12.197   2.692  -6.976  0.00  0.00    +0.038 A 
ATOM     23  C   LIG    1       13.113   3.139  -7.927  0.00  0.00    +0.053 A 
ATOM     24  C   LIG    1       13.345   4.503  -8.070  0.00  0.00    +0.119 A 
ATOM     25  C   LIG    1       12.721   5.434  -7.243  0.00  0.00    +0.038 A 
ATOM     26  C   LIG    1       10.586   3.266  -5.139  0.00  0.00    +0.155 A 
BRANCH  22  27
ATOM     27  N   LIG    1       12.125   1.301  -6.745  0.00  0.00    -0.357 N 
ATOM     28  H   LIG    1       12.190   0.735  -7.583  0.00  0.00    +0.142 HD
ATOM     29  H   LIG    1       11.293   1.073  -6.191  0.00  0.00    +0.142 HD
ENDBRANCH  22  27
BRANCH  24  30
ATOM     30  S   LIG    1       14.468   5.069  -9.312  0.00  0.00    +0.110 S 
ATOM     31  O   LIG    1       13.847   6.188  -9.986  0.00  0.00    -0.142 OA
ATOM     32  O   LIG    1       14.976   3.932 -10.029  0.00  0.00    -0.142 OA
BRANCH  30  33
ATOM     33  O   LIG    1       15.716   5.632  -8.461  0.00  0.00    -0.250 OA
ATOM     34  H   LIG    1       16.489   5.067  -8.677  0.00  0.00    +0.245 HD
ENDBRANCH  30  33
ENDBRANCH  24  30
BRANCH  18  35
ATOM     35  S   LIG    1        9.750   6.795  -3.304  0.00  0.00    +0.112 S 
ATOM     36  O   LIG    1        8.564   6.368  -2.614  0.00  0.00    -0.142 OA
ATOM     37  O   LIG    1        9.771   8.060  -4.038  0.00  0.00    -0.142 OA
BRANCH  35  38
ATOM     38  O   LIG    1       10.932   6.945  -2.209  0.00  0.00    -0.250 OA
ATOM     39  H   LIG    1       11.339   7.821  -2.323  0.00  0.00    +0.245 HD
ENDBRANCH  35  38
ENDBRANCH  18  35
BRANCH  26  40
ATOM     40  O   LIG    1       10.181   1.941  -5.098  0.00  0.00    -0.504 OA
ATOM     41  H   LIG    1        9.587   1.875  -4.325  0.00  0.00    +0.292 HD
ENDBRANCH  26  40
ENDBRANCH  16  17
ENDBRANCH  12  15
ENDBRANCH   6   8
BRANCH   3  42
ATOM     42  N   LIG    1        1.056  -0.398   2.099  0.00  0.00    -0.149 NA
ATOM     43  N   LIG    1       -0.015   0.234   2.047  0.00  0.00    -0.144 NA
BRANCH  43  44
ATOM     44  C   LIG    1       -0.653   0.267   3.318  0.00  0.00    +0.155 A 
ATOM     45  C   LIG    1       -0.761  -0.771   4.232  0.00  0.00    +0.148 A 
ATOM     46  C   LIG    1       -1.465  -0.575   5.445  0.00  0.00    +0.040 A 
ATOM     47  C   LIG    1       -2.006   0.676   5.779  0.00  0.00    -0.009 A 
ATOM     48  C   LIG    1       -1.864   1.782   4.921  0.00  0.00    +0.047 A 
ATOM     49  C   LIG    1       -2.377   3.058   5.337  0.00  0.00    +0.038 A 
ATOM     50  C   LIG    1       -3.093   3.163   6.529  0.00  0.00    +0.053 A 
ATOM     51  C   LIG    1       -3.233   2.047   7.344  0.00  0.00    +0.119 A 
ATOM     52  C   LIG    1       -2.693   0.813   6.986  0.00  0.00    +0.038 A 
ATOM     53  C   LIG    1       -1.203   1.525   3.694  0.00  0.00    +0.155 A 
BRANCH  45  54
ATOM     54  S   LIG    1       -0.009  -2.364   4.023  0.00  0.00    +0.112 S 
ATOM     55  O   LIG    1       -0.296  -2.850   2.682  0.00  0.00    -0.142 OA
ATOM     56  O   LIG    1       -0.329  -3.165   5.164  0.00  0.00    -0.142 OA
BRANCH  54  57
ATOM     57  O   LIG    1        1.580  -2.096   4.155  0.00  0.00    -0.250 OA
ATOM     58  H   LIG    1        1.924  -2.687   4.862  0.00  0.00    +0.245 HD
ENDBRANCH  54  57
ENDBRANCH  45  54
BRANCH  51  59
ATOM     59  S   LIG    1       -4.168   2.188   8.835  0.00  0.00    +0.110 S 
ATOM     60  O   LIG    1       -5.373   2.932   8.539  0.00  0.00    -0.142 OA
ATOM     61  O   LIG    1       -3.253   2.575   9.875  0.00  0.00    -0.142 OA
BRANCH  59  62
ATOM     62  O   LIG    1       -4.610   0.676   9.184  0.00  0.00    -0.250 OA
ATOM     63  H   LIG    1       -4.375   0.517  10.123  0.00  0.00    +0.245 HD
ENDBRANCH  59  62
ENDBRANCH  51  59
BRANCH  49  64
ATOM     64  N   LIG    1       -2.372   4.180   4.484  0.00  0.00    -0.357 N 
ATOM     65  H   LIG    1       -2.312   5.077   4.954  0.00  0.00    +0.142 HD
ATOM     66  H   LIG    1       -1.682   4.078   3.736  0.00  0.00    +0.142 HD
ENDBRANCH  49  64
BRANCH  53  67
ATOM     67  O   LIG    1       -1.074   2.590   2.822  0.00  0.00    -0.504 OA
ATOM     68  H   LIG    1       -0.844   2.194   1.963  0.00  0.00    +0.292 HD
ENDBRANCH  53  67
ENDBRANCH  43  44
ENDBRANCH   3  42
TORSDOF 17
