REMARK  Name = *****
REMARK                            x       y       z     vdW  Elec       q    Type
REMARK                         _______ _______ _______ _____ _____    ______ ____
ROOT
ATOM      1  N   UNK A  1        5.604  -3.201  -0.657  0.00  0.00    -0.296 N 
ATOM      2  H   UNK A  1        4.939  -3.184   0.119  0.00  0.00    +0.150 HD
ATOM      3  C   UNK A  0        6.928  -3.339  -0.291  0.00  0.00    +0.268 C 
ATOM      4  O   UNK A  0        7.855  -3.142  -1.067  0.00  0.00    -0.268 OA
ENDROOT
BRANCH   1  12
ATOM      5  C   UNK A  1        1.618  -0.593  -1.775  0.00  0.00    -0.010 C 
ATOM      6  C   UNK A  1        1.191  -2.053  -1.702  0.00  0.00    +0.108 C 
ATOM      7  S   UNK A  1        2.515  -3.156  -1.105  0.00  0.00    -0.131 S 
ATOM      8  C   UNK A  1        3.700  -2.508  -2.301  0.00  0.00    +0.169 C 
ATOM      9  N   UNK A  1        3.919  -1.101  -2.018  0.00  0.00    -0.249 N 
ATOM     10  C   UNK A  1        5.261  -1.134  -2.206  0.00  0.00    +0.244 C 
ATOM     11  O   UNK A  1        6.080  -0.292  -2.467  0.00  0.00    -0.273 OA
ATOM     12  C   UNK A  1        5.214  -2.700  -2.012  0.00  0.00    +0.191 C 
ATOM     13  C   UNK A  1        2.898  -0.181  -1.909  0.00  0.00    +0.126 C 
BRANCH   5  15
ATOM     14  C   UNK A  1       -0.548   0.380  -2.451  0.00  0.00    +0.009 C 
ATOM     15  C   UNK A  1        0.493   0.326  -1.611  0.00  0.00    -0.001 C 
ENDBRANCH   5  15
BRANCH  13  16
ATOM     16  C   UNK A  1        3.243   1.279  -1.859  0.00  0.00    +0.352 C 
ATOM     17  O   UNK A  1        2.535   2.216  -2.196  0.00  0.00    -0.244 OA
BRANCH  16  18
ATOM     18  O   UNK A  1        4.456   1.505  -1.331  0.00  0.00    -0.476 OA
ATOM     19  H   UNK A  1        4.620   2.461  -1.460  0.00  0.00    +0.295 HD
ENDBRANCH  16  18
ENDBRANCH  13  16
ENDBRANCH   1  12
BRANCH   3  20
ATOM     20  C   UNK A  0        7.196  -3.835   1.145  0.00  0.00    +0.190 C 
ATOM     21  N   UNK A  0        6.447  -3.518   2.169  0.00  0.00    -0.080 NA
BRANCH  20  22
ATOM     22  C   UNK A  0        8.330  -4.738   1.426  0.00  0.00    +0.107 A 
ATOM     23  N   UNK A  0        8.506  -5.312   2.695  0.00  0.00    -0.223 NA
ATOM     24  C   UNK A  0        9.566  -6.080   2.721  0.00  0.00    +0.156 A 
ATOM     25  S   UNK A  0       10.421  -6.199   1.243  0.00  0.00    -0.060 S 
ATOM     26  C   UNK A  0        9.305  -5.121   0.520  0.00  0.00    +0.078 A 
BRANCH  24  27
ATOM     27  N   UNK A  0        9.969  -6.754   3.809  0.00  0.00    -0.338 N 
ATOM     28  H   UNK A  0        9.299  -6.832   4.565  0.00  0.00    +0.144 HD
ATOM     29  H   UNK A  0       10.559  -7.566   3.679  0.00  0.00    +0.144 HD
ENDBRANCH  24  27
ENDBRANCH  20  22
BRANCH  21  30
ATOM     30  O   UNK A  0        5.404  -2.634   1.879  0.00  0.00    -0.409 OA
ATOM     31  H   UNK A  0        5.060  -2.430   2.773  0.00  0.00    +0.328 HD
ENDBRANCH  21  30
ENDBRANCH   3  20
TORSDOF 8
