REMARK  Name = *****
REMARK                            x       y       z     vdW  Elec       q    Type
REMARK                         _______ _______ _______ _____ _____    ______ ____
ROOT
ATOM      1  C   LIG    1        6.705  -2.943  -0.905  0.00  0.00    -0.017 C 
ATOM      2  C   LIG    1        7.824  -3.672  -1.101  0.00  0.00    -0.014 C 
ATOM      3  C   LIG    1        7.715  -4.899  -1.934  0.00  0.00    -0.014 A 
ATOM      4  C   LIG    1        8.518  -5.112  -3.074  0.00  0.00    -0.039 A 
ATOM      5  C   LIG    1        8.354  -6.316  -3.795  0.00  0.00    +0.004 A 
ATOM      6  C   LIG    1        7.423  -7.278  -3.406  0.00  0.00    +0.000 A 
ATOM      7  C   LIG    1        6.643  -7.068  -2.278  0.00  0.00    +0.001 A 
ATOM      8  C   LIG    1        9.600  -4.173  -3.585  0.00  0.00    +0.040 C 
ATOM      9  C   LIG    1        9.656  -2.725  -3.080  0.00  0.00    +0.040 C 
ATOM     10  C   LIG    1       10.023  -2.649  -1.618  0.00  0.00    -0.039 A 
ATOM     11  C   LIG    1       11.248  -2.103  -1.208  0.00  0.00    +0.004 A 
ATOM     12  C   LIG    1       11.587  -2.074   0.146  0.00  0.00    +0.000 A 
ATOM     13  C   LIG    1       10.714  -2.595   1.099  0.00  0.00    +0.001 A 
ATOM     14  C   LIG    1        9.491  -3.136   0.699  0.00  0.00    +0.009 A 
ATOM     15  C   LIG    1        6.793  -5.892  -1.545  0.00  0.00    +0.009 A 
ATOM     16  C   LIG    1        9.134  -3.150  -0.656  0.00  0.00    -0.014 A 
ENDROOT
BRANCH   1  17
ATOM     17  C   LIG    1        6.594  -1.605  -0.213  0.00  0.00    +0.043 C 
BRANCH  17  18
ATOM     18  C   LIG    1        6.030  -0.519  -1.151  0.00  0.00    +0.088 C 
BRANCH  18  20
ATOM     19  C   LIG    1        7.158   1.339  -0.039  0.00  0.00    +0.104 C 
ATOM     20  N   LIG    1        5.877   0.801  -0.504  0.00  0.00    -0.308 NA
ATOM     21  C   LIG    1        5.261   1.745  -1.442  0.00  0.00    +0.104 C 
ENDBRANCH  18  20
ENDBRANCH  17  18
ENDBRANCH   1  17
TORSDOF 3
