REMARK  Name = *****
REMARK                            x       y       z     vdW  Elec       q    Type
REMARK                         _______ _______ _______ _____ _____    ______ ____
ROOT
ATOM      1  C   LIG    1        2.094   3.212   0.693  0.00  0.00    +0.144 C 
ENDROOT
BRANCH   1   2
ATOM      2  C   LIG    1        1.415   4.514   1.232  0.00  0.00    -0.003 C 
ATOM      3  C   LIG    1       -0.055   4.206   1.671  0.00  0.00    +0.012 C 
ATOM      4  C   LIG    1       -0.783   5.476   2.143  0.00  0.00    -0.007 C 
ATOM      5  C   LIG    1       -0.826   6.486   0.992  0.00  0.00    +0.038 C 
ATOM      6  C   LIG    1        0.605   6.840   0.559  0.00  0.00    +0.067 C 
ATOM      7  C   LIG    1        1.365   7.448   1.748  0.00  0.00    +0.038 C 
ATOM      8  C   LIG    1        1.412   6.439   2.907  0.00  0.00    -0.007 C 
ATOM      9  C   LIG    1       -0.020   6.081   3.331  0.00  0.00    +0.007 C 
ATOM     10  C   LIG    1        1.335   5.569   0.092  0.00  0.00    +0.043 C 
ATOM     11  C   LIG    1        2.138   5.162   2.444  0.00  0.00    +0.012 C 
BRANCH   6  12
ATOM     12  O   LIG    1        0.558   7.763  -0.520  0.00  0.00    -0.389 OA
ATOM     13  H   LIG    1        0.106   8.567  -0.210  0.00  0.00    +0.210 HD
ENDBRANCH   6  12
ENDBRANCH   1   2
BRANCH   1  16
ATOM     14  C   LIG    1        5.329   2.544  -1.375  0.00  0.00    +0.179 C 
ATOM     15  N   LIG    1        3.924   2.621  -0.925  0.00  0.00    -0.281 N 
ATOM     16  C   LIG    1        3.559   3.378   0.173  0.00  0.00    +0.234 C 
ATOM     17  O   LIG    1        4.397   4.059   0.770  0.00  0.00    -0.274 OA
ATOM     18  C   LIG    1        3.100   1.714  -1.671  0.00  0.00    +0.081 C 
ATOM     19  C   LIG    1        3.959   0.947  -2.630  0.00  0.00    +0.014 C 
ATOM     20  C   LIG    1        2.908   1.893  -3.149  0.00  0.00    +0.028 C 
ATOM     21  C   LIG    1        5.385   1.358  -2.374  0.00  0.00    +0.043 C 
BRANCH  14  23
ATOM     22  N   LIG    1        6.194   4.725  -2.583  0.00  0.00    -0.195 NA
ATOM     23  C   LIG    1        5.794   3.784  -2.031  0.00  0.00    +0.085 C 
ENDBRANCH  14  23
ENDBRANCH   1  16
BRANCH   1  24
ATOM     24  N   LIG    1        2.134   2.110   1.685  0.00  0.00    -0.320 NA
ATOM     25  H   LIG    1        1.201   1.918   2.039  0.00  0.00    +0.119 HD
ATOM     26  H   LIG    1        2.690   2.416   2.486  0.00  0.00    +0.119 HD
ENDBRANCH   1  24
TORSDOF 5
