REMARK  Name = *****
REMARK                            x       y       z     vdW  Elec       q    Type
REMARK                         _______ _______ _______ _____ _____    ______ ____
ROOT
ATOM      1  C   LIG    1        4.715  -0.924   0.632  0.00  0.00    +0.122 C 
ATOM      2  C   LIG    1        5.326   0.286  -0.132  0.00  0.00    +0.036 C 
ATOM      3  C   LIG    1        6.132  -0.084  -1.410  0.00  0.00    +0.028 C 
ATOM      4  C   LIG    1        6.176  -1.577  -1.769  0.00  0.00    +0.058 C 
ATOM      5  N   LIG    1        6.411  -2.409  -0.593  0.00  0.00    -0.296 NA
ATOM      6  C   LIG    1        4.813  -2.116  -2.227  0.00  0.00    +0.020 C 
ATOM      7  C   LIG    1        4.244  -2.810  -0.989  0.00  0.00    +0.021 C 
ATOM      8  C   LIG    1        5.156  -2.337   0.157  0.00  0.00    +0.071 C 
ENDROOT
BRANCH   2   9
ATOM      9  C   LIG    1        6.073   1.373   0.651  0.00  0.00    -0.043 A 
ATOM     10  C   LIG    1        7.054   1.097   1.616  0.00  0.00    +0.005 A 
ATOM     11  C   LIG    1        7.760   2.125   2.252  0.00  0.00    +0.014 A 
ATOM     12  C   LIG    1        7.489   3.452   1.936  0.00  0.00    +0.013 A 
ATOM     13  I   LIG    1        8.532   4.976   2.888  0.00  0.00    -0.044 I 
ATOM     14  C   LIG    1        6.521   3.756   0.985  0.00  0.00    +0.014 A 
ATOM     15  C   LIG    1        5.825   2.724   0.345  0.00  0.00    +0.005 A 
ENDBRANCH   2   9
BRANCH   1  16
ATOM     16  C   LIG    1        4.669  -0.829   2.151  0.00  0.00    +0.312 C 
ATOM     17  O   LIG    1        5.346  -1.483   2.923  0.00  0.00    -0.251 OA
BRANCH  16  19
ATOM     18  C   LIG    1        3.476   0.106   3.943  0.00  0.00    +0.280 C 
ATOM     19  O   LIG    1        3.696   0.054   2.532  0.00  0.00    -0.468 OA
ENDBRANCH  16  19
ENDBRANCH   1  16
BRANCH   5  20
ATOM     20  C   LIG    1        7.676  -2.227   0.099  0.00  0.00    +0.087 C 
BRANCH  20  21
ATOM     21  C   LIG    1        7.822  -3.162   1.302  0.00  0.00    +0.049 C 
BRANCH  21  22
ATOM     22  C   LIG    1        9.143  -2.949   2.012  0.00  0.00    +0.214 C 
ATOM     23  F   LIG    1       10.163  -3.209   1.154  0.00  0.00    -0.249 F 
ENDBRANCH  21  22
ENDBRANCH  20  21
ENDBRANCH   5  20
TORSDOF 6
