REMARK  Name = *****
REMARK                            x       y       z     vdW  Elec       q    Type
REMARK                         _______ _______ _______ _____ _____    ______ ____
ROOT
ATOM      1  C   LIG    1        3.472  -0.010   0.052  0.00  0.00    +0.145 C 
ATOM      2  C   LIG    1        4.116   0.127  -1.139  0.00  0.00    +0.076 C 
ATOM      3  S   LIG    1        3.248   0.153  -2.676  0.00  0.00    -0.107 S 
ATOM      4  C   LIG    1        4.534  -0.720  -3.643  0.00  0.00    +0.093 C 
ATOM      5  C   LIG    1        5.865  -0.132  -3.164  0.00  0.00    +0.094 C 
ATOM      6  S   LIG    1        5.854   0.118  -1.357  0.00  0.00    -0.114 S 
ENDROOT
BRANCH   4   7
ATOM      7  C   LIG    1        4.361  -2.238  -3.574  0.00  0.00    -0.015 A 
ATOM      8  C   LIG    1        3.514  -2.919  -4.477  0.00  0.00    +0.047 A 
ATOM      9 CL   LIG    1        2.636  -2.093  -5.719  0.00  0.00    -0.083 Cl
ATOM     10  C   LIG    1        3.348  -4.309  -4.416  0.00  0.00    +0.040 A 
ATOM     11  C   LIG    1        4.014  -5.044  -3.444  0.00  0.00    +0.042 A 
ATOM     12 CL   LIG    1        3.816  -6.750  -3.369  0.00  0.00    -0.084 Cl
ATOM     13  C   LIG    1        4.843  -4.405  -2.534  0.00  0.00    +0.020 A 
ATOM     14  C   LIG    1        5.017  -3.019  -2.601  0.00  0.00    +0.007 A 
ENDBRANCH   4   7
BRANCH   1  15
ATOM     15  N   LIG    1        4.076  -0.163   1.324  0.00  0.00    -0.296 N 
ATOM     16  C   LIG    1        5.304   0.276   1.791  0.00  0.00    +0.204 A 
ATOM     17  N   LIG    1        5.573  -0.120   3.013  0.00  0.00    -0.244 NA
ATOM     18  C   LIG    1        4.470  -0.807   3.414  0.00  0.00    +0.130 A 
ATOM     19  C   LIG    1        3.522  -0.812   2.422  0.00  0.00    +0.113 A 
ENDBRANCH   1  15
BRANCH   1  21
ATOM     20  N   LIG    1        0.915  -0.010   0.052  0.00  0.00    -0.189 NA
ATOM     21  C   LIG    1        2.066  -0.010   0.052  0.00  0.00    +0.119 C 
ENDBRANCH   1  21
TORSDOF 3
