REMARK  Name = *****
REMARK                            x       y       z     vdW  Elec       q    Type
REMARK                         _______ _______ _______ _____ _____    ______ ____
ROOT
ATOM      1  C   LIG    1        1.252   0.498   1.348  0.00  0.00    +0.105 C 
ATOM      2  N   LIG    1        2.266   0.148   0.364  0.00  0.00    -0.299 NA
ATOM      3  C   LIG    1        2.374   1.074  -0.774  0.00  0.00    +0.119 C 
ATOM      4  C   LIG    1        2.278   2.567  -0.483  0.00  0.00    -0.027 A 
ATOM      5  C   LIG    1        3.374   3.398  -0.140  0.00  0.00    -0.010 A 
ATOM      6  C   LIG    1        3.134   4.791  -0.026  0.00  0.00    +0.007 A 
ATOM      7  C   LIG    1        1.858   5.340  -0.157  0.00  0.00    +0.000 A 
ATOM      8  C   LIG    1        0.783   4.516  -0.440  0.00  0.00    +0.000 A 
ATOM      9  C   LIG    1        4.826   2.911  -0.021  0.00  0.00    +0.179 C 
ATOM     10  O   LIG    1        5.005   1.505   0.146  0.00  0.00    -0.366 OA
ATOM     11  C   LIG    1        4.464   0.955   1.345  0.00  0.00    +0.176 C 
ATOM     12  C   LIG    1        0.994   3.150  -0.612  0.00  0.00    +0.005 A 
ATOM     13  C   LIG    1        3.555  -0.216   0.967  0.00  0.00    +0.112 C 
ENDROOT
BRANCH   9  14
ATOM     14  C   LIG    1        5.758   3.636   0.956  0.00  0.00    -0.015 A 
ATOM     15  C   LIG    1        5.343   4.064   2.229  0.00  0.00    +0.006 A 
ATOM     16  C   LIG    1        6.235   4.697   3.098  0.00  0.00    +0.000 A 
ATOM     17  C   LIG    1        7.558   4.901   2.715  0.00  0.00    +0.000 A 
ATOM     18  C   LIG    1        7.993   4.467   1.466  0.00  0.00    +0.000 A 
ATOM     19  C   LIG    1        7.102   3.835   0.596  0.00  0.00    +0.006 A 
ENDBRANCH   9  14
TORSDOF 1
