REMARK  Name = *****
REMARK                            x       y       z     vdW  Elec       q    Type
REMARK                         _______ _______ _______ _____ _____    ______ ____
ROOT
ATOM      1  C   LIG    1        8.550   1.125  -1.634  0.00  0.00    +0.051 C 
ATOM      2  C   LIG    1        9.275   2.249  -2.015  0.00  0.00    -0.012 C 
ATOM      3  C   LIG    1        8.798   3.617  -2.444  0.00  0.00    +0.056 C 
ATOM      4  C   LIG    1        9.529   4.811  -1.792  0.00  0.00    +0.109 C 
ATOM      5  N   LIG    1       10.938   4.588  -1.489  0.00  0.00    -0.311 N 
ATOM      6  H   LIG    1       11.014   4.065  -0.624  0.00  0.00    +0.149 HD
ATOM      7  C   LIG    1       11.714   4.032  -2.500  0.00  0.00    +0.245 C 
ATOM      8  C   LIG    1       11.839   2.566  -2.375  0.00  0.00    +0.049 C 
ATOM      9  C   LIG    1       13.054   1.897  -2.499  0.00  0.00    +0.052 C 
ATOM     10  C   LIG    1       13.085   0.527  -2.265  0.00  0.00    +0.126 C 
ATOM     11  F   LIG    1       14.255  -0.119  -2.364  0.00  0.00    -0.205 F 
ATOM     12  C   LIG    1       11.943  -0.205  -1.906  0.00  0.00    +0.064 C 
ATOM     13  C   LIG    1       10.732   0.494  -1.826  0.00  0.00    +0.051 C 
ATOM     14  O   LIG    1       12.210   4.649  -3.429  0.00  0.00    -0.270 OA
ATOM     15  C   LIG    1       10.653   1.855  -2.079  0.00  0.00    +0.016 C 
ATOM     16  N   LIG    1        9.459   0.086  -1.516  0.00  0.00    -0.354 NA
ATOM     17  H   LIG    1        9.210  -0.859  -1.257  0.00  0.00    +0.166 HD
ENDROOT
BRANCH   1  21
ATOM     18  C   LIG    1        4.354   0.495  -0.955  0.00  0.00    -0.034 A 
ATOM     19  C   LIG    1        5.116  -0.454  -1.646  0.00  0.00    +0.005 A 
ATOM     20  C   LIG    1        6.481  -0.244  -1.871  0.00  0.00    +0.010 A 
ATOM     21  C   LIG    1        7.117   0.917  -1.407  0.00  0.00    -0.001 A 
ATOM     22  C   LIG    1        6.354   1.863  -0.713  0.00  0.00    +0.010 A 
ATOM     23  C   LIG    1        4.987   1.660  -0.499  0.00  0.00    +0.005 A 
BRANCH  18  24
ATOM     24  C   LIG    1        2.873   0.285  -0.735  0.00  0.00    +0.116 C 
BRANCH  24  26
ATOM     25  C   LIG    1        1.105   0.150   0.891  0.00  0.00    +0.101 C 
ATOM     26  N   LIG    1        2.526   0.386   0.683  0.00  0.00    -0.315 NA
ATOM     27  H   LIG    1        3.065  -0.308   1.200  0.00  0.00    +0.122 HD
ENDBRANCH  24  26
ENDBRANCH  18  24
ENDBRANCH   1  21
TORSDOF 3
