REMARK  Name = *****
REMARK                            x       y       z     vdW  Elec       q    Type
REMARK                         _______ _______ _______ _____ _____    ______ ____
ROOT
ATOM      1  C   LIG    1        8.621  -1.660   0.908  0.00  0.00    +0.097 C 
ENDROOT
BRANCH   1   5
ATOM      2  C   LIG    1        4.415  -2.257   1.871  0.00  0.00    +0.132 A 
ATOM      3  C   LIG    1        4.772  -1.670   0.657  0.00  0.00    +0.046 A 
ATOM      4  C   LIG    1        6.127  -1.463   0.359  0.00  0.00    +0.008 A 
ATOM      5  C   LIG    1        7.136  -1.837   1.268  0.00  0.00    -0.034 A 
ATOM      6  C   LIG    1        6.739  -2.401   2.493  0.00  0.00    +0.008 A 
ATOM      7  C   LIG    1        5.392  -2.610   2.793  0.00  0.00    +0.046 A 
BRANCH   2   8
ATOM      8  O   LIG    1        3.040  -2.332   2.171  0.00  0.00    -0.426 OA
BRANCH   8  10
ATOM      9  C   LIG    1        1.222  -2.907   3.551  0.00  0.00    +0.136 C 
ATOM     10  C   LIG    1        2.568  -3.333   3.031  0.00  0.00    +0.309 C 
ATOM     11  O   LIG    1        3.122  -4.368   3.333  0.00  0.00    -0.251 OA
ENDBRANCH   8  10
ENDBRANCH   2   8
ENDBRANCH   1   5
BRANCH   1  12
ATOM     12  C   LIG    1        9.390  -2.982   0.694  0.00  0.00    +0.053 A 
ATOM     13  N   LIG    1        9.050  -4.065   1.442  0.00  0.00    -0.259 NA
ATOM     14  C   LIG    1        9.755  -5.205   1.278  0.00  0.00    +0.111 A 
ATOM     15  C   LIG    1       10.816  -5.334   0.403  0.00  0.00    +0.020 A 
ATOM     16  C   LIG    1       11.176  -4.225  -0.349  0.00  0.00    +0.003 A 
ATOM     17  C   LIG    1       10.466  -3.032  -0.199  0.00  0.00    +0.024 A 
ENDBRANCH   1  12
BRANCH   1  18
ATOM     18  C   LIG    1        9.361  -0.683   1.835  0.00  0.00    -0.034 A 
ATOM     19  C   LIG    1        9.963  -1.102   3.037  0.00  0.00    +0.008 A 
ATOM     20  C   LIG    1       10.662  -0.200   3.853  0.00  0.00    +0.046 A 
ATOM     21  C   LIG    1       10.761   1.138   3.472  0.00  0.00    +0.132 A 
ATOM     22  C   LIG    1       10.189   1.561   2.275  0.00  0.00    +0.046 A 
ATOM     23  C   LIG    1        9.464   0.671   1.483  0.00  0.00    +0.008 A 
BRANCH  21  24
ATOM     24  O   LIG    1       11.495   2.014   4.302  0.00  0.00    -0.426 OA
BRANCH  24  25
ATOM     25  C   LIG    1       11.191   3.379   4.322  0.00  0.00    +0.309 C 
ATOM     26  O   LIG    1       10.267   3.944   3.746  0.00  0.00    -0.251 OA
ATOM     27  C   LIG    1       12.195   4.120   5.144  0.00  0.00    +0.136 C 
ENDBRANCH  24  25
ENDBRANCH  21  24
ENDBRANCH   1  18
TORSDOF 7
