REMARK  Name = *****
REMARK                            x       y       z     vdW  Elec       q    Type
REMARK                         _______ _______ _______ _____ _____    ______ ____
ROOT
ATOM      1  C   LIG    1        2.910   0.646  -0.886  0.00  0.00    +0.273 A 
ATOM      2  C   LIG    1        3.676   0.061  -1.897  0.00  0.00    +0.085 A 
ATOM      3  C   LIG    1        4.048   0.824  -3.010  0.00  0.00    +0.015 A 
ATOM      4  C   LIG    1        3.681   2.179  -3.137  0.00  0.00    -0.018 A 
ATOM      5  C   LIG    1        2.916   2.739  -2.094  0.00  0.00    +0.015 A 
ATOM      6  C   LIG    1        2.525   1.986  -0.980  0.00  0.00    +0.085 A 
ENDROOT
BRANCH   4   7
ATOM      7  C   LIG    1        4.084   2.983  -4.319  0.00  0.00    -0.018 A 
ATOM      8  C   LIG    1        5.308   2.761  -4.978  0.00  0.00    +0.008 A 
ATOM      9  C   LIG    1        5.685   3.512  -6.096  0.00  0.00    +0.001 A 
ATOM     10  C   LIG    1        4.851   4.516  -6.575  0.00  0.00    +0.000 A 
ATOM     11  C   LIG    1        3.639   4.764  -5.941  0.00  0.00    +0.001 A 
ATOM     12  C   LIG    1        3.258   4.001  -4.832  0.00  0.00    +0.008 A 
ENDBRANCH   4   7
BRANCH   1  14
ATOM     13  O   LIG    1        1.826   0.408   1.151  0.00  0.00    +0.041 OA
ATOM     14  N   LIG    1        2.509  -0.148   0.281  0.00  0.00    +0.080 N 
ATOM     15  O   LIG    1        2.877  -1.332   0.326  0.00  0.00    -0.576 OA
ENDBRANCH   1  14
TORSDOF 2
