REMARK  Name = *****
REMARK                            x       y       z     vdW  Elec       q    Type
REMARK                         _______ _______ _______ _____ _____    ______ ____
ROOT
ATOM      1  C   LIG    1        2.939   2.751  -3.053  0.00  0.00    +0.341 C 
ATOM      2  O   LIG    1        1.900   3.170  -2.556  0.00  0.00    -0.247 OA
ENDROOT
BRANCH   1   3
ATOM      3  O   LIG    1        3.438   1.490  -2.904  0.00  0.00    -0.459 OA
BRANCH   3  11
ATOM      4  C   LIG    1        2.932  -0.033   1.750  0.00  0.00    +0.007 C 
ATOM      5  C   LIG    1        2.450  -0.249   0.315  0.00  0.00    -0.010 C 
ATOM      6  C   LIG    1        2.797  -1.668  -0.161  0.00  0.00    +0.010 C 
ATOM      7  C   LIG    1        2.402  -1.939  -1.631  0.00  0.00    -0.031 C 
ATOM      8  C   LIG    1        2.978  -3.303  -2.059  0.00  0.00    +0.011 C 
ATOM      9  C   LIG    1        0.870  -2.010  -1.778  0.00  0.00    +0.011 C 
ATOM     10  C   LIG    1        2.992  -0.838  -2.539  0.00  0.00    +0.051 C 
ATOM     11  C   LIG    1        2.670   0.590  -2.077  0.00  0.00    +0.177 C 
ATOM     12  C   LIG    1        3.063   0.803  -0.614  0.00  0.00    +0.048 C 
ENDBRANCH   3  11
ENDBRANCH   1   3
BRANCH   1  13
ATOM     13  C   LIG    1        3.829   3.594  -3.977  0.00  0.00    +0.253 C 
BRANCH  13  14
ATOM     14  C   LIG    1        4.995   4.223  -3.240  0.00  0.00    -0.008 A 
ATOM     15  C   LIG    1        4.893   5.493  -2.648  0.00  0.00    +0.007 A 
ATOM     16  C   LIG    1        5.981   6.063  -1.984  0.00  0.00    +0.000 A 
ATOM     17  C   LIG    1        7.183   5.366  -1.891  0.00  0.00    +0.000 A 
ATOM     18  C   LIG    1        7.295   4.097  -2.454  0.00  0.00    +0.000 A 
ATOM     19  C   LIG    1        6.209   3.527  -3.122  0.00  0.00    +0.007 A 
ENDBRANCH  13  14
BRANCH  13  20
ATOM     20  O   LIG    1        3.065   4.618  -4.625  0.00  0.00    -0.376 OA
ATOM     21  H   LIG    1        2.327   4.823  -4.019  0.00  0.00    +0.211 HD
ENDBRANCH  13  20
ENDBRANCH   1  13
TORSDOF 5
