REMARK  Name = *****
REMARK                            x       y       z     vdW  Elec       q    Type
REMARK                         _______ _______ _______ _____ _____    ______ ____
ROOT
ATOM      1  C   LIG    1        4.698  -0.275   1.504  0.00  0.00    +0.119 C 
ATOM      2  N   LIG    1        5.333  -0.516   0.192  0.00  0.00    -0.330 N 
ATOM      3  H   LIG    1        5.078  -1.382  -0.287  0.00  0.00    +0.147 HD
ATOM      4  C   LIG    1        6.725  -0.333   0.083  0.00  0.00    +0.133 A 
ATOM      5  C   LIG    1        7.472   0.293   1.026  0.00  0.00    +0.126 A 
ATOM      6  N   LIG    1        8.815   0.436   0.818  0.00  0.00    -0.315 N 
ATOM      7  H   LIG    1        9.369   0.568   1.651  0.00  0.00    +0.170 HD
ATOM      8  C   LIG    1        9.418  -0.116  -0.264  0.00  0.00    +0.195 A 
ATOM      9  N   LIG    1        8.820  -0.749  -1.214  0.00  0.00    -0.176 NA
ATOM     10  N   LIG    1        6.875   0.761   2.194  0.00  0.00    -0.327 N 
ATOM     11  H   LIG    1        7.376   1.548   2.596  0.00  0.00    +0.147 HD
ATOM     12  C   LIG    1        7.453  -0.911  -1.122  0.00  0.00    +0.297 A 
ATOM     13  O   LIG    1        6.795  -1.532  -1.957  0.00  0.00    -0.264 OA
ATOM     14  C   LIG    1        5.406   0.900   2.245  0.00  0.00    +0.128 C 
ENDROOT
BRANCH   8  15
ATOM     15  N   LIG    1       10.761   0.065  -0.283  0.00  0.00    -0.329 N 
ATOM     16  H   LIG    1       11.145  -0.252  -1.170  0.00  0.00    +0.145 HD
ATOM     17  H   LIG    1       11.048   1.018  -0.094  0.00  0.00    +0.145 HD
ENDBRANCH   8  15
BRANCH   1  18
ATOM     18  C   LIG    1        3.176  -0.045   1.361  0.00  0.00    +0.164 C 
BRANCH  18  20
ATOM     19  C   LIG    1        3.038   1.324  -0.851  0.00  0.00    +0.040 C 
ATOM     20  C   LIG    1        2.709   1.238   0.634  0.00  0.00    +0.142 C 
BRANCH  20  21
ATOM     21  O   LIG    1        1.277   1.304   0.746  0.00  0.00    -0.389 OA
ATOM     22  H   LIG    1        0.951   0.402   0.555  0.00  0.00    +0.210 HD
ENDBRANCH  20  21
ENDBRANCH  18  20
BRANCH  18  23
ATOM     23  O   LIG    1        2.552  -1.186   0.737  0.00  0.00    -0.387 OA
ATOM     24  H   LIG    1        2.986  -1.305  -0.128  0.00  0.00    +0.210 HD
ENDBRANCH  18  23
ENDBRANCH   1  18
TORSDOF 5
