REMARK  Name = *****
REMARK                            x       y       z     vdW  Elec       q    Type
REMARK                         _______ _______ _______ _____ _____    ______ ____
ROOT
ATOM      1  C   LIG    1        4.121  -3.766  -0.083  0.00  0.00    +0.117 C 
ENDROOT
BRANCH   1   6
ATOM      2  F   LIG    1        3.599  -9.375   1.266  0.00  0.00    -0.205 F 
ATOM      3  C   LIG    1        3.722  -8.077   0.969  0.00  0.00    +0.123 A 
ATOM      4  C   LIG    1        4.946  -7.454   1.083  0.00  0.00    +0.039 A 
ATOM      5  C   LIG    1        5.057  -6.083   0.796  0.00  0.00    +0.008 A 
ATOM      6  C   LIG    1        3.976  -5.283   0.364  0.00  0.00    -0.026 A 
ATOM      7  C   LIG    1        2.765  -5.995   0.222  0.00  0.00    +0.008 A 
ATOM      8  C   LIG    1        2.629  -7.357   0.538  0.00  0.00    +0.039 A 
ENDBRANCH   1   6
BRANCH   1   9
ATOM      9  C   LIG    1        2.814  -2.881   0.071  0.00  0.00    -0.026 A 
ATOM     10  C   LIG    1        2.740  -1.706   0.833  0.00  0.00    +0.008 A 
ATOM     11  C   LIG    1        1.571  -1.038   1.152  0.00  0.00    +0.039 A 
ATOM     12  C   LIG    1        0.408  -1.479   0.570  0.00  0.00    +0.123 A 
ATOM     13  F   LIG    1       -0.746  -0.819   0.825  0.00  0.00    -0.205 F 
ATOM     14  C   LIG    1        0.416  -2.531  -0.318  0.00  0.00    +0.039 A 
ATOM     15  C   LIG    1        1.611  -3.199  -0.600  0.00  0.00    +0.008 A 
ENDBRANCH   1   9
BRANCH   1  16
ATOM     16  N   LIG    1        5.361  -3.044   0.389  0.00  0.00    -0.289 NA
ATOM     17  C   LIG    1        5.462  -2.747   1.831  0.00  0.00    +0.100 C 
ATOM     18  C   LIG    1        6.733  -1.951   2.234  0.00  0.00    +0.100 C 
ATOM     19  N   LIG    1        8.004  -2.455   1.695  0.00  0.00    -0.296 NA
ATOM     20  C   LIG    1        7.746  -3.709   0.966  0.00  0.00    +0.100 C 
ATOM     21  C   LIG    1        6.648  -3.567  -0.138  0.00  0.00    +0.100 C 
BRANCH  19  22
ATOM     22  C   LIG    1        8.637  -1.444   0.837  0.00  0.00    +0.112 C 
BRANCH  22  23
ATOM     23  C   LIG    1       10.027  -1.865   0.502  0.00  0.00    -0.011 C 
ATOM     24  C   LIG    1       10.461  -2.177  -0.743  0.00  0.00    +0.005 C 
BRANCH  24  25
ATOM     25  C   LIG    1       11.832  -2.602  -1.001  0.00  0.00    -0.025 A 
ATOM     26  C   LIG    1       12.596  -3.297  -0.038  0.00  0.00    +0.008 A 
ATOM     27  C   LIG    1       13.919  -3.646  -0.323  0.00  0.00    +0.001 A 
ATOM     28  C   LIG    1       14.488  -3.340  -1.564  0.00  0.00    +0.000 A 
ATOM     29  C   LIG    1       13.721  -2.685  -2.526  0.00  0.00    +0.001 A 
ATOM     30  C   LIG    1       12.402  -2.325  -2.255  0.00  0.00    +0.008 A 
ENDBRANCH  24  25
ENDBRANCH  22  23
ENDBRANCH  19  22
ENDBRANCH   1  16
TORSDOF 6
