REMARK  Name = *****
REMARK                            x       y       z     vdW  Elec       q    Type
REMARK                         _______ _______ _______ _____ _____    ______ ____
ROOT
ATOM      1  N   LIG    1        6.451   0.101   2.697  0.00  0.00    -0.310 N 
ATOM      2  H   LIG    1        7.110   0.631   2.139  0.00  0.00    +0.149 HD
ATOM      3  C   LIG    1        5.963   0.656   3.861  0.00  0.00    +0.244 C 
ATOM      4  O   LIG    1        5.007   0.203   4.491  0.00  0.00    -0.270 OA
ENDROOT
BRANCH   3   5
ATOM      5  C   LIG    1        6.646   1.899   4.318  0.00  0.00    +0.037 A 
ATOM      6  C   LIG    1        5.911   2.886   4.980  0.00  0.00    +0.015 A 
ATOM      7  C   LIG    1        6.526   4.090   5.347  0.00  0.00    +0.023 A 
ATOM      8  C   LIG    1        7.888   4.300   5.111  0.00  0.00    +0.025 A 
ATOM      9  C   LIG    1        8.612   3.312   4.439  0.00  0.00    +0.023 A 
ATOM     10  C   LIG    1        8.008   2.108   4.067  0.00  0.00    +0.015 A 
BRANCH   8  11
ATOM     11  N   LIG    1        8.460   5.558   5.325  0.00  0.00    -0.358 N 
ATOM     12  H   LIG    1        8.009   6.101   6.055  0.00  0.00    +0.142 HD
ATOM     13  H   LIG    1        9.470   5.541   5.426  0.00  0.00    +0.142 HD
ENDBRANCH   8  11
ENDBRANCH   3   5
BRANCH   1  14
ATOM     14  C   LIG    1        5.875  -1.095   2.100  0.00  0.00    +0.120 C 
BRANCH  14  15
ATOM     15  C   LIG    1        4.753  -0.761   1.093  0.00  0.00    +0.103 C 
BRANCH  15  16
ATOM     16  N   LIG    1        4.170  -1.912   0.362  0.00  0.00    -0.301 NA
BRANCH  16  18
ATOM     17  C   LIG    1        2.303  -2.505   2.020  0.00  0.00    +0.020 C 
ATOM     18  C   LIG    1        3.555  -2.918   1.247  0.00  0.00    +0.081 C 
ENDBRANCH  16  18
BRANCH  16  19
ATOM     19  C   LIG    1        3.259  -1.422  -0.691  0.00  0.00    +0.081 C 
ATOM     20  C   LIG    1        2.814  -2.484  -1.694  0.00  0.00    +0.020 C 
ENDBRANCH  16  19
ENDBRANCH  15  16
ENDBRANCH  14  15
ENDBRANCH   1  14
TORSDOF 7
