REMARK  Name = *****
REMARK                            x       y       z     vdW  Elec       q    Type
REMARK                         _______ _______ _______ _____ _____    ______ ____
ROOT
ATOM      1  C   LIG    1        2.846  -0.270  -1.301  0.00  0.00    +0.072 C 
ATOM      2  C   LIG    1        3.330  -1.731  -1.470  0.00  0.00    +0.230 C 
ATOM      3  O   LIG    1        4.486  -2.097  -1.253  0.00  0.00    -0.274 OA
ATOM      4  N   LIG    1        2.386  -2.666  -1.825  0.00  0.00    -0.256 N 
ATOM      5  H   LIG    1        2.717  -3.618  -1.887  0.00  0.00    +0.158 HD
ATOM      6  C   LIG    1        1.100  -2.457  -2.250  0.00  0.00    +0.219 C 
ATOM      7  O   LIG    1        0.392  -3.394  -2.605  0.00  0.00    -0.275 OA
ATOM      8  C   LIG    1        0.602  -1.036  -2.224  0.00  0.00    +0.097 C 
ATOM      9  C   LIG    1        1.756  -0.052  -2.382  0.00  0.00    +0.030 C 
ENDROOT
BRANCH   1  10
ATOM     10  C   LIG    1        2.341  -0.024   0.144  0.00  0.00    -0.032 A 
ATOM     11  C   LIG    1        1.355   0.939   0.432  0.00  0.00    +0.005 A 
ATOM     12  C   LIG    1        0.905   1.150   1.740  0.00  0.00    +0.000 A 
ATOM     13  C   LIG    1        1.446   0.422   2.793  0.00  0.00    +0.000 A 
ATOM     14  C   LIG    1        2.449  -0.507   2.541  0.00  0.00    +0.000 A 
ATOM     15  C   LIG    1        2.897  -0.721   1.234  0.00  0.00    +0.005 A 
ENDBRANCH   1  10
BRANCH   1  17
ATOM     16  C   LIG    1        4.679   0.654  -2.916  0.00  0.00    +0.005 C 
ATOM     17  C   LIG    1        4.043   0.703  -1.527  0.00  0.00    +0.017 C 
ENDBRANCH   1  17
TORSDOF 2
