REMARK  Name = *****
REMARK                            x       y       z     vdW  Elec       q    Type
REMARK                         _______ _______ _______ _____ _____    ______ ____
ROOT
ATOM      1  C   LIG    1       -2.342  -0.374  -1.024  0.00  0.00    +0.242 C 
ATOM      2  C   LIG    1       -1.284  -0.846  -2.096  0.00  0.00    +0.199 C 
ATOM      3  N   LIG    1       -1.690   0.278  -2.918  0.00  0.00    -0.244 N 
ATOM      4  C   LIG    1       -1.257   0.489  -4.201  0.00  0.00    +0.125 C 
ATOM      5  C   LIG    1       -0.646  -0.511  -4.893  0.00  0.00    +0.006 C 
ATOM      6  C   LIG    1       -0.462  -1.927  -4.351  0.00  0.00    +0.107 C 
ATOM      7  S   LIG    1       -1.635  -2.365  -3.020  0.00  0.00    -0.128 S 
ATOM      8  C   LIG    1       -2.379   0.929  -1.947  0.00  0.00    +0.275 C 
ATOM      9  O   LIG    1       -2.911   2.027  -1.896  0.00  0.00    -0.270 OA
ENDROOT
BRANCH   1  10
ATOM     10  N   LIG    1       -3.650  -1.110  -1.018  0.00  0.00    -0.278 N 
ATOM     11  H   LIG    1       -3.724  -1.967  -1.556  0.00  0.00    +0.152 HD
ATOM     12  C   LIG    1       -4.815  -0.513  -0.576  0.00  0.00    +0.220 C 
ATOM     13  O   LIG    1       -4.860   0.627  -0.124  0.00  0.00    -0.275 OA
BRANCH  12  14
ATOM     14  C   LIG    1       -6.035  -1.411  -0.615  0.00  0.00    +0.138 C 
BRANCH  14  15
ATOM     15  C   LIG    1       -6.794  -1.315  -1.905  0.00  0.00    -0.002 A 
ATOM     16  S   LIG    1       -8.499  -1.546  -1.872  0.00  0.00    -0.101 S 
ATOM     17  C   LIG    1       -8.634  -1.340  -3.561  0.00  0.00    +0.045 A 
ATOM     18  C   LIG    1       -7.412  -1.116  -4.150  0.00  0.00    +0.008 A 
ATOM     19  C   LIG    1       -6.348  -1.111  -3.198  0.00  0.00    +0.012 A 
ENDBRANCH  14  15
ENDBRANCH  12  14
ENDBRANCH   1  10
BRANCH   1  21
ATOM     20  C   LIG    1       -1.719  -1.246   1.177  0.00  0.00    +0.197 C 
ATOM     21  O   LIG    1       -1.772  -0.140   0.293  0.00  0.00    -0.349 OA
ENDBRANCH   1  21
BRANCH   4  22
ATOM     22  C   LIG    1       -1.493   1.854  -4.798  0.00  0.00    +0.351 C 
ATOM     23  O   LIG    1       -1.625   2.135  -5.976  0.00  0.00    -0.244 OA
BRANCH  22  24
ATOM     24  O   LIG    1       -1.545   2.804  -3.856  0.00  0.00    -0.476 OA
ATOM     25  H   LIG    1       -1.959   3.601  -4.241  0.00  0.00    +0.295 HD
ENDBRANCH  22  24
ENDBRANCH   4  22
BRANCH   5  26
ATOM     26  C   LIG    1       -0.082  -0.374  -6.301  0.00  0.00    +0.268 C 
BRANCH  26  27
ATOM     27  O   LIG    1        1.308  -0.008  -6.240  0.00  0.00    -0.446 OA
BRANCH  27  28
ATOM     28  C   LIG    1        2.184  -0.837  -6.849  0.00  0.00    +0.398 C 
ATOM     29  O   LIG    1        1.967  -1.976  -7.224  0.00  0.00    -0.227 OA
ATOM     30  N   LIG    1        3.373  -0.212  -7.025  0.00  0.00    -0.295 N 
ATOM     31  H   LIG    1        4.098  -0.687  -7.545  0.00  0.00    +0.148 HD
ATOM     32  H   LIG    1        3.467   0.769  -6.813  0.00  0.00    +0.148 HD
ENDBRANCH  27  28
ENDBRANCH  26  27
ENDBRANCH   5  26
TORSDOF 9
