REMARK  Name = *****
REMARK                            x       y       z     vdW  Elec       q    Type
REMARK                         _______ _______ _______ _____ _____    ______ ____
ROOT
ATOM      1  C   LIG    1        1.003   2.248   0.842  0.00  0.00    +0.241 A 
ATOM      2  C   LIG    1        0.195   1.295   1.430  0.00  0.00    +0.119 A 
ATOM      3 BR   LIG    1        0.845   0.037   2.684  0.00  0.00    -0.041 Br
ATOM      4  C   LIG    1       -1.141   1.365   1.081  0.00  0.00    +0.139 A 
ATOM      5  N   LIG    1       -1.609   2.242   0.181  0.00  0.00    -0.198 NA
ATOM      6  C   LIG    1       -0.743   3.091  -0.388  0.00  0.00    +0.224 A 
ATOM      7  N   LIG    1        0.566   3.117  -0.098  0.00  0.00    -0.178 NA
ENDROOT
BRANCH   4   8
ATOM      8  N   LIG    1       -2.130   0.610   1.713  0.00  0.00    -0.342 N 
ATOM      9  H   LIG    1       -1.939  -0.385   1.701  0.00  0.00    +0.144 HD
ATOM     10  H   LIG    1       -3.027   0.846   1.295  0.00  0.00    +0.144 HD
ENDBRANCH   4   8
BRANCH   6  11
ATOM     11  N   LIG    1       -1.210   4.114  -1.210  0.00  0.00    -0.283 N 
ATOM     12  H   LIG    1       -0.458   4.758  -1.413  0.00  0.00    +0.155 HD
BRANCH  11  13
ATOM     13  C   LIG    1       -2.315   4.182  -2.069  0.00  0.00    +0.034 A 
ATOM     14  C   LIG    1       -3.037   3.055  -2.476  0.00  0.00    +0.024 A 
ATOM     15  C   LIG    1       -4.089   3.164  -3.394  0.00  0.00    +0.021 A 
ATOM     16  C   LIG    1       -4.476   4.416  -3.876  0.00  0.00    +0.052 A 
ATOM     17  C   LIG    1       -3.826   5.560  -3.408  0.00  0.00    +0.021 A 
ATOM     18  C   LIG    1       -2.752   5.439  -2.516  0.00  0.00    +0.024 A 
BRANCH  16  19
ATOM     19  C   LIG    1       -5.520   4.517  -4.851  0.00  0.00    +0.099 C 
ATOM     20  N   LIG    1       -6.357   4.585  -5.656  0.00  0.00    -0.191 NA
ENDBRANCH  16  19
ENDBRANCH  11  13
ENDBRANCH   6  11
BRANCH   1  21
ATOM     21  O   LIG    1        2.312   2.367   1.325  0.00  0.00    -0.436 OA
BRANCH  21  24
ATOM     22  C   LIG    1        0.944   4.923   2.293  0.00  0.00    +0.048 C 
ATOM     23  C   LIG    1        2.295   4.819   1.639  0.00  0.00    -0.007 A 
ATOM     24  C   LIG    1        2.932   3.604   1.312  0.00  0.00    +0.136 A 
ATOM     25  C   LIG    1        4.322   3.613   1.064  0.00  0.00    -0.007 A 
ATOM     26  C   LIG    1        5.152   2.357   0.995  0.00  0.00    +0.048 C 
ATOM     27  C   LIG    1        4.995   4.841   0.907  0.00  0.00    +0.025 A 
ATOM     28  C   LIG    1        4.310   6.048   1.035  0.00  0.00    +0.052 A 
ATOM     29  C   LIG    1        2.970   6.031   1.412  0.00  0.00    +0.025 A 
BRANCH  28  30
ATOM     30  C   LIG    1        4.980   7.298   0.860  0.00  0.00    +0.099 C 
ATOM     31  N   LIG    1        5.508   8.330   0.729  0.00  0.00    -0.191 NA
ENDBRANCH  28  30
ENDBRANCH  21  24
ENDBRANCH   1  21
TORSDOF 7
