REMARK  Name = *****
REMARK                            x       y       z     vdW  Elec       q    Type
REMARK                         _______ _______ _______ _____ _____    ______ ____
ROOT
ATOM      1  O   LIG    1        6.117  -3.713  -2.485  0.00  0.00    -0.489 OA
ENDROOT
BRANCH   1   2
ATOM      2  C   LIG    1        7.359  -3.873  -3.063  0.00  0.00    +0.130 C 
ATOM      3  C   LIG    1        7.433  -4.133  -4.454  0.00  0.00    +0.041 C 
ATOM      4  C   LIG    1        8.695  -4.272  -5.051  0.00  0.00    +0.050 C 
ATOM      5  N   LIG    1        8.491  -4.512  -6.390  0.00  0.00    -0.360 NA
ATOM      6  H   LIG    1        9.238  -4.661  -7.065  0.00  0.00    +0.165 HD
ATOM      7  C   LIG    1        7.159  -4.507  -6.684  0.00  0.00    +0.083 C 
ATOM      8  C   LIG    1        9.889  -4.163  -4.337  0.00  0.00    +0.026 C 
ATOM      9  C   LIG    1        9.802  -3.917  -2.970  0.00  0.00    +0.006 C 
ATOM     10  C   LIG    1        6.480  -4.283  -5.504  0.00  0.00    +0.031 C 
ATOM     11  C   LIG    1        8.563  -3.792  -2.339  0.00  0.00    +0.046 C 
ENDBRANCH   1   2
BRANCH   1  12
ATOM     12  C   LIG    1        6.110  -2.906  -1.291  0.00  0.00    +0.261 C 
BRANCH  12  13
ATOM     13  C   LIG    1        4.713  -2.312  -1.093  0.00  0.00    +0.166 C 
BRANCH  13  14
ATOM     14  O   LIG    1        4.371  -1.522  -2.247  0.00  0.00    -0.387 OA
ATOM     15  H   LIG    1        4.659  -2.041  -3.023  0.00  0.00    +0.210 HD
ENDBRANCH  13  14
BRANCH  13  16
ATOM     16  C   LIG    1        4.644  -1.393   0.145  0.00  0.00    +0.115 C 
BRANCH  16  17
ATOM     17  N   LIG    1        4.970  -2.039   1.429  0.00  0.00    -0.311 NA
ATOM     18  H   LIG    1        4.338  -2.825   1.585  0.00  0.00    +0.122 HD
BRANCH  17  20
ATOM     19  C   LIG    1        3.448  -0.579   2.773  0.00  0.00    +0.024 C 
ATOM     20  C   LIG    1        4.873  -1.103   2.567  0.00  0.00    +0.048 C 
ATOM     21  C   LIG    1        5.352  -1.788   3.854  0.00  0.00    +0.024 C 
ENDBRANCH  17  20
ENDBRANCH  16  17
ENDBRANCH  13  16
ENDBRANCH  12  13
ENDBRANCH   1  12
TORSDOF 7
