REMARK  Name = *****
REMARK                            x       y       z     vdW  Elec       q    Type
REMARK                         _______ _______ _______ _____ _____    ______ ____
ROOT
ATOM      1  C   LIG    1        7.181  -3.520   2.104  0.00  0.00    +0.087 C 
ATOM      2  N   LIG    1        6.425  -4.460   2.599  0.00  0.00    -0.089 NA
ENDROOT
BRANCH   1   3
ATOM      3  C   LIG    1        8.660  -3.752   2.091  0.00  0.00    -0.001 A 
ATOM      4  C   LIG    1        9.581  -2.701   2.137  0.00  0.00    +0.010 A 
ATOM      5  C   LIG    1       10.955  -2.973   2.180  0.00  0.00    +0.013 A 
ATOM      6  C   LIG    1       11.426  -4.295   2.174  0.00  0.00    +0.055 A 
ATOM      7  C   LIG    1       10.497  -5.343   2.113  0.00  0.00    +0.013 A 
ATOM      8  C   LIG    1        9.128  -5.073   2.075  0.00  0.00    +0.010 A 
BRANCH   6   9
ATOM      9  C   LIG    1       12.907  -4.579   2.249  0.00  0.00    +0.417 C 
ATOM     10  F   LIG    1       13.478  -4.071   3.377  0.00  0.00    -0.166 F 
ATOM     11  F   LIG    1       13.595  -4.038   1.206  0.00  0.00    -0.166 F 
ATOM     12  F   LIG    1       13.208  -5.908   2.246  0.00  0.00    -0.166 F 
ENDBRANCH   6   9
ENDBRANCH   1   3
BRANCH   1  13
ATOM     13  C   LIG    1        6.637  -2.209   1.554  0.00  0.00    +0.059 C 
BRANCH  13  14
ATOM     14  C   LIG    1        6.322  -1.229   2.682  0.00  0.00    +0.009 C 
BRANCH  14  15
ATOM     15  C   LIG    1        5.729   0.071   2.134  0.00  0.00    +0.028 C 
BRANCH  15  16
ATOM     16  C   LIG    1        5.418   1.067   3.246  0.00  0.00    +0.159 C 
BRANCH  16  18
ATOM     17  C   LIG    1        6.404   2.298   4.997  0.00  0.00    +0.193 C 
ATOM     18  O   LIG    1        6.628   1.389   3.929  0.00  0.00    -0.383 OA
ENDBRANCH  16  18
ENDBRANCH  15  16
ENDBRANCH  14  15
ENDBRANCH  13  14
ENDBRANCH   1  13
BRANCH   2  19
ATOM     19  O   LIG    1        5.065  -4.132   2.558  0.00  0.00    -0.392 OA
BRANCH  19  20
ATOM     20  C   LIG    1        4.339  -5.107   3.313  0.00  0.00    +0.277 C 
BRANCH  20  21
ATOM     21  C   LIG    1        4.285  -4.686   4.785  0.00  0.00    +0.121 C 
BRANCH  21  22
ATOM     22  N   LIG    1        3.548  -5.637   5.620  0.00  0.00    -0.327 NA
ATOM     23  H   LIG    1        3.502  -5.275   6.572  0.00  0.00    +0.118 HD
ATOM     24  H   LIG    1        2.587  -5.713   5.293  0.00  0.00    +0.118 HD
ENDBRANCH  21  22
ENDBRANCH  20  21
ENDBRANCH  19  20
ENDBRANCH   2  19
TORSDOF 11
