REMARK  Name = *****
REMARK                            x       y       z     vdW  Elec       q    Type
REMARK                         _______ _______ _______ _____ _____    ______ ____
ROOT
ATOM      1 SI   LIG    1        2.792  -0.602   1.666  0.00  0.00    +0.000 Si
ATOM      2  C   LIG    1        2.031  -2.311   1.847  0.00  0.00    +0.000 C 
ATOM      3  C   LIG    1        2.036   0.488   2.997  0.00  0.00    +0.000 C 
ENDROOT
BRANCH   1   5
ATOM      4  C   LIG    1        2.894  -0.664  -1.000  0.00  0.00    +0.000 C 
ATOM      5  O   LIG    1        2.461   0.036   0.155  0.00  0.00    +0.000 OA
ENDBRANCH   1   5
BRANCH   1   6
ATOM      6  O   LIG    1        4.450  -0.687   1.844  0.00  0.00    +0.000 OA
BRANCH   6   7
ATOM      7 SI   LIG    1        5.801   0.300   1.858  0.00  0.00    +0.000 Si
ATOM      8  C   LIG    1        7.352  -0.731   2.127  0.00  0.00    +0.000 C 
ATOM      9  C   LIG    1        5.698   1.573   3.236  0.00  0.00    +0.000 C 
ATOM     10  C   LIG    1        5.985   1.210   0.222  0.00  0.00    +0.000 C 
ENDBRANCH   6   7
ENDBRANCH   1   6
TORSDOF 3
