REMARK  Name = *****
REMARK                            x       y       z     vdW  Elec       q    Type
REMARK                         _______ _______ _______ _____ _____    ______ ____
ROOT
ATOM      1  C   LIG    1       14.972  -9.003  15.595  0.00  0.00    +0.150 C 
ATOM      2  C   LIG    1       15.935 -10.246  15.549  0.00  0.00    +0.060 C 
ATOM      3  C   LIG    1       15.198 -11.515  15.079  0.00  0.00    +0.014 C 
ATOM      4  C   LIG    1       16.803 -10.644  16.823  0.00  0.00    +0.187 C 
ATOM      5  C   LIG    1       18.173 -11.374  16.387  0.00  0.00    +0.056 C 
ATOM      6  C   LIG    1       18.753 -12.209  17.523  0.00  0.00    +0.014 C 
ATOM      7  C   LIG    1       19.141 -10.344  15.724  0.00  0.00    +0.126 C 
ATOM      8  C   LIG    1       20.711 -10.316  15.736  0.00  0.00    +0.044 C 
ATOM      9  C   LIG    1       21.447 -10.702  17.015  0.00  0.00    +0.013 C 
ATOM     10  C   LIG    1       21.078  -8.845  15.314  0.00  0.00    +0.126 C 
ATOM     11  C   LIG    1       22.452  -8.519  14.662  0.00  0.00    +0.037 C 
ATOM     12  C   LIG    1       23.055  -9.702  13.899  0.00  0.00    +0.014 C 
ATOM     13  C   LIG    1       22.371  -7.322  13.696  0.00  0.00    -0.021 C 
ATOM     14  C   LIG    1       21.350  -6.458  13.540  0.00  0.00    -0.003 C 
ATOM     15  C   LIG    1       21.287  -5.459  12.499  0.00  0.00    +0.008 C 
ATOM     16  C   LIG    1       20.709  -5.620  11.293  0.00  0.00    +0.011 C 
ATOM     17  C   LIG    1       20.708  -4.553  10.241  0.00  0.00    +0.049 C 
ATOM     18  C   LIG    1       20.170  -6.932  10.856  0.00  0.00    +0.244 C 
ATOM     19  O   LIG    1       20.920  -7.907  10.766  0.00  0.00    -0.270 OA
ATOM     20  N   LIG    1       18.915  -7.045  10.340  0.00  0.00    -0.277 N 
ATOM     21  H   LIG    1       18.872  -7.895   9.787  0.00  0.00    +0.155 HD
ATOM     22  C   LIG    1       17.701  -6.397  10.466  0.00  0.00    +0.105 C 
ATOM     23  C   LIG    1       16.716  -6.763   9.632  0.00  0.00    +0.080 C 
ATOM     24  C   LIG    1       15.333  -6.274   9.745  0.00  0.00    +0.092 C 
ATOM     25  C   LIG    1       14.938  -5.660  10.992  0.00  0.00    +0.030 A 
ATOM     26  C   LIG    1       15.927  -5.032  11.750  0.00  0.00    +0.075 A 
ATOM     27  C   LIG    1       15.549  -4.292  12.892  0.00  0.00    +0.135 A 
ATOM     28  C   LIG    1       14.233  -4.334  13.383  0.00  0.00    +0.034 A 
ATOM     29  C   LIG    1       13.381  -5.256  12.790  0.00  0.00    +0.143 A 
ATOM     30  O   LIG    1       12.234  -5.726  13.391  0.00  0.00    -0.444 OA
ATOM     31  C   LIG    1       11.826  -6.884  12.614  0.00  0.00    +0.314 C 
ATOM     32  C   LIG    1       12.598  -6.762  11.298  0.00  0.00    +0.250 C 
ATOM     33  O   LIG    1       12.405  -7.358  10.281  0.00  0.00    -0.284 OA
ATOM     34  C   LIG    1       10.322  -6.834  12.398  0.00  0.00    +0.114 C 
ATOM     35  O   LIG    1       12.174  -8.197  13.119  0.00  0.00    -0.453 OA
ATOM     36  C   LIG    1       12.863  -8.270  14.302  0.00  0.00    +0.190 C 
ATOM     37  C   LIG    1       13.794  -3.512  14.555  0.00  0.00    +0.051 C 
ATOM     38  C   LIG    1       13.694  -5.836  11.576  0.00  0.00    +0.077 A 
ATOM     39  N   LIG    1       14.568  -6.496   8.712  0.00  0.00    -0.256 NA
ATOM     40  C   LIG    1       15.359  -7.484   7.904  0.00  0.00    +0.128 C 
ATOM     41  C   LIG    1       14.640  -8.834   8.062  0.00  0.00    +0.065 C 
ATOM     42  C   LIG    1       13.569  -9.023   6.993  0.00  0.00    +0.088 C 
ATOM     43  N   LIG    1       14.116  -8.908   5.620  0.00  0.00    -0.302 NA
ATOM     44  C   LIG    1       14.502  -7.503   5.444  0.00  0.00    +0.088 C 
ATOM     45  C   LIG    1       15.535  -6.991   6.453  0.00  0.00    +0.065 C 
ATOM     46  N   LIG    1       16.705  -7.564   8.520  0.00  0.00    -0.317 N 
ATOM     47  H   LIG    1       17.067  -8.503   8.649  0.00  0.00    +0.148 HD
ATOM     48  C   LIG    1       17.366  -5.329  11.475  0.00  0.00    +0.213 C 
ATOM     49  O   LIG    1       18.203  -4.751  12.160  0.00  0.00    -0.285 OA
ATOM     50  C   LIG    1       14.063  -8.865  14.370  0.00  0.00    +0.042 C 
ENDROOT
BRANCH   1  52
ATOM     51  C   LIG    1       16.483  -7.382  14.599  0.00  0.00    +0.194 C 
ATOM     52  O   LIG    1       15.703  -7.770  15.726  0.00  0.00    -0.375 OA
ENDBRANCH   1  52
BRANCH   7  53
ATOM     53  O   LIG    1       18.812 -10.393  14.306  0.00  0.00    -0.391 OA
ATOM     54  H   LIG    1       19.150 -11.239  13.960  0.00  0.00    +0.210 HD
ENDBRANCH   7  53
BRANCH  10  55
ATOM     55  O   LIG    1       20.915  -8.005  16.476  0.00  0.00    -0.391 OA
ATOM     56  H   LIG    1       21.174  -7.101  16.226  0.00  0.00    +0.210 HD
ENDBRANCH  10  55
BRANCH  27  57
ATOM     57  O   LIG    1       16.459  -3.564  13.615  0.00  0.00    -0.506 OA
ATOM     58  H   LIG    1       17.364  -3.750  13.275  0.00  0.00    +0.292 HD
ENDBRANCH  27  57
BRANCH   4  59
ATOM     59  O   LIG    1       17.168  -9.548  17.692  0.00  0.00    -0.461 OA
BRANCH  59  60
ATOM     60  C   LIG    1       17.254  -9.864  19.020  0.00  0.00    +0.304 C 
ATOM     61  O   LIG    1       16.455 -10.565  19.628  0.00  0.00    -0.251 OA
ATOM     62  C   LIG    1       18.552  -9.384  19.616  0.00  0.00    +0.136 C 
ENDBRANCH  59  60
ENDBRANCH   4  59
BRANCH  43  63
ATOM     63  C   LIG    1       15.211  -9.868   5.360  0.00  0.00    +0.087 C 
BRANCH  63  64
ATOM     64  C   LIG    1       15.827  -9.924   3.935  0.00  0.00    -0.003 C 
ATOM     65  C   LIG    1       14.852 -10.243   2.802  0.00  0.00    +0.008 C 
ATOM     66  C   LIG    1       16.948 -10.975   3.916  0.00  0.00    +0.008 C 
ENDBRANCH  63  64
ENDBRANCH  43  63
TORSDOF 8
