REMARK  Name = *****
REMARK                            x       y       z     vdW  Elec       q    Type
REMARK                         _______ _______ _______ _____ _____    ______ ____
ROOT
ATOM      1  C   LIG    1        4.191  -0.876   2.062  0.00  0.00    +0.065 C 
ATOM      2  C   LIG    1        4.786   0.131   1.068  0.00  0.00    +0.102 C 
ATOM      3  C   LIG    1        6.287   0.380   1.295  0.00  0.00    +0.065 C 
ATOM      4  C   LIG    1        6.847   0.074   2.488  0.00  0.00    +0.016 C 
ATOM      5  C   LIG    1        8.254   0.417   2.908  0.00  0.00    +0.061 C 
ATOM      6  N   LIG    1        6.102  -0.608   3.430  0.00  0.00    -0.321 N 
ATOM      7  H   LIG    1        6.529  -0.760   4.340  0.00  0.00    +0.152 HD
ATOM      8  C   LIG    1        4.855  -1.171   3.203  0.00  0.00    +0.016 C 
ATOM      9  C   LIG    1        4.308  -1.997   4.339  0.00  0.00    +0.061 C 
ENDROOT
BRANCH   2  10
ATOM     10  C   LIG    1        3.993   1.459   1.010  0.00  0.00    +0.042 A 
ATOM     11  C   LIG    1        3.473   2.181   2.106  0.00  0.00    +0.277 A 
ATOM     12  C   LIG    1        2.805   3.410   1.955  0.00  0.00    +0.084 A 
ATOM     13  C   LIG    1        2.644   3.956   0.689  0.00  0.00    +0.007 A 
ATOM     14  C   LIG    1        3.112   3.258  -0.419  0.00  0.00    +0.001 A 
ATOM     15  C   LIG    1        3.761   2.026  -0.263  0.00  0.00    +0.011 A 
BRANCH  11  16
ATOM     16  N   LIG    1        3.535   1.704   3.473  0.00  0.00    +0.080 N 
ATOM     17  O   LIG    1        2.499   1.201   3.932  0.00  0.00    -0.576 OA
ATOM     18  O   LIG    1        4.576   1.924   4.104  0.00  0.00    +0.042 OA
ENDBRANCH  11  16
ENDBRANCH   2  10
BRANCH   1  19
ATOM     19  C   LIG    1        2.881  -1.530   1.732  0.00  0.00    +0.337 C 
ATOM     20  O   LIG    1        2.459  -2.546   2.231  0.00  0.00    -0.245 OA
BRANCH  19  22
ATOM     21  C   LIG    1        0.979  -1.277   0.343  0.00  0.00    +0.280 C 
ATOM     22  O   LIG    1        2.260  -0.800   0.758  0.00  0.00    -0.465 OA
ENDBRANCH  19  22
ENDBRANCH   1  19
BRANCH   3  23
ATOM     23  C   LIG    1        7.094   0.801   0.107  0.00  0.00    +0.338 C 
ATOM     24  O   LIG    1        6.631   1.344  -0.878  0.00  0.00    -0.245 OA
BRANCH  23  25
ATOM     25  O   LIG    1        8.360   0.310   0.210  0.00  0.00    -0.461 OA
BRANCH  25  26
ATOM     26  C   LIG    1        9.184   0.268  -0.964  0.00  0.00    +0.235 C 
BRANCH  26  27
ATOM     27  C   LIG    1       10.395   1.210  -0.872  0.00  0.00    +0.021 C 
ATOM     28  C   LIG    1       11.320   0.885   0.303  0.00  0.00    +0.010 C 
ATOM     29  C   LIG    1        9.957   2.670  -0.801  0.00  0.00    +0.010 C 
ENDBRANCH  26  27
ENDBRANCH  25  26
ENDBRANCH  23  25
ENDBRANCH   3  23
TORSDOF 8
