REMARK  Name = *****
REMARK                            x       y       z     vdW  Elec       q    Type
REMARK                         _______ _______ _______ _____ _____    ______ ____
ROOT
ATOM      1  C   UNK A  1        5.081  -1.154   0.619  0.00  0.00    +0.216 C 
ATOM      2  N   UNK A  1        4.210  -2.139   1.056  0.00  0.00    -0.302 N 
ATOM      3  H   UNK A  1        4.521  -2.825   1.743  0.00  0.00    +0.149 HD
ATOM      4  O   UNK A  1        4.790  -0.358  -0.257  0.00  0.00    -0.276 OA
ENDROOT
BRANCH   1   5
ATOM      5  C   UNK A  1        6.439  -1.115   1.308  0.00  0.00    +0.129 C 
BRANCH   5   6
ATOM      6  C   UNK A  1        7.569  -0.607   0.377  0.00  0.00    +0.190 C 
BRANCH   6   9
ATOM      7  C   UNK A  0        8.974  -2.108  -2.854  0.00  0.00    +0.109 C 
ATOM      8  C   UNK A  0        8.751  -1.111  -1.748  0.00  0.00    +0.211 C 
ATOM      9  N   UNK A  1        7.870  -1.523  -0.757  0.00  0.00    -0.302 N 
ATOM     10  H   UNK A  1        7.158  -2.193  -1.028  0.00  0.00    +0.149 HD
ATOM     11  O   UNK A  0        9.428  -0.089  -1.663  0.00  0.00    -0.276 OA
ENDBRANCH   6   9
BRANCH   6  12
ATOM     12  C   UNK A  1        8.861  -0.513   1.218  0.00  0.00    +0.326 C 
ATOM     13  O   UNK A  1        9.097   0.356   2.044  0.00  0.00    -0.249 OA
BRANCH  12  14
ATOM     14  O   UNK A  1        9.671  -1.599   1.066  0.00  0.00    -0.479 OA
ATOM     15  H   UNK A  1        9.326  -2.148   0.331  0.00  0.00    +0.295 HD
ENDBRANCH  12  14
ENDBRANCH   6  12
ENDBRANCH   5   6
ENDBRANCH   1   5
BRANCH   2  16
ATOM     16  C   UNK A  1        2.834  -2.262   0.543  0.00  0.00    +0.182 C 
BRANCH  16  17
ATOM     17  C   UNK A  1        1.706  -1.746   1.459  0.00  0.00    +0.325 C 
ATOM     18  O   UNK A  1        0.521  -1.732   1.178  0.00  0.00    -0.249 OA
BRANCH  17  19
ATOM     19  O   UNK A  1        2.113  -1.339   2.679  0.00  0.00    -0.479 OA
ATOM     20  H   UNK A  1        1.286  -1.047   3.121  0.00  0.00    +0.295 HD
ENDBRANCH  17  19
ENDBRANCH  16  17
BRANCH  16  21
ATOM     21  C   UNK A  1        2.511  -3.674  -0.006  0.00  0.00    +0.045 C 
BRANCH  21  22
ATOM     22  C   UNK A  1        2.291  -4.859   0.948  0.00  0.00    +0.123 C 
BRANCH  22  23
ATOM     23  C   UNK A  1        3.472  -5.303   1.778  0.00  0.00    +0.305 C 
ATOM     24  O   UNK A  1        4.510  -4.693   1.907  0.00  0.00    -0.251 OA
BRANCH  23  25
ATOM     25  O   UNK A  1        3.233  -6.485   2.409  0.00  0.00    -0.481 OA
ATOM     26  H   UNK A  1        2.352  -6.864   2.243  0.00  0.00    +0.295 HD
ENDBRANCH  23  25
ENDBRANCH  22  23
ENDBRANCH  21  22
ENDBRANCH  16  21
ENDBRANCH   2  16
TORSDOF 12
