REMARK  Name = *****
REMARK                            x       y       z     vdW  Elec       q    Type
REMARK                         _______ _______ _______ _____ _____    ______ ____
ROOT
ATOM      1  C   LIG    1        4.407   0.681  -1.726  0.00  0.00    +0.169 C 
ATOM      2  C   LIG    1        4.509   2.066  -2.453  0.00  0.00    +0.084 C 
ATOM      3  C   LIG    1        3.932   3.276  -1.706  0.00  0.00    +0.042 C 
ATOM      4  C   LIG    1        4.475   3.275  -0.292  0.00  0.00    +0.084 C 
ATOM      5  C   LIG    1        3.883   2.073   0.442  0.00  0.00    +0.163 C 
ATOM      6  C   LIG    1        4.306   0.720  -0.163  0.00  0.00    +0.182 C 
ENDROOT
BRANCH   2   7
ATOM      7  N   LIG    1        3.897   2.024  -3.800  0.00  0.00    -0.325 NA
ATOM      8  H   LIG    1        4.131   2.885  -4.311  0.00  0.00    +0.118 HD
ATOM      9  H   LIG    1        2.882   1.999  -3.736  0.00  0.00    +0.118 HD
ENDBRANCH   2   7
BRANCH   4  10
ATOM     10  N   LIG    1        4.128   4.508   0.438  0.00  0.00    -0.325 NA
ATOM     11  H   LIG    1        4.539   5.312  -0.040  0.00  0.00    +0.118 HD
ATOM     12  H   LIG    1        3.120   4.658   0.418  0.00  0.00    +0.118 HD
ENDBRANCH   4  10
BRANCH   5  13
ATOM     13  O   LIG    1        4.324   2.162   1.808  0.00  0.00    -0.388 OA
ATOM     14  H   LIG    1        4.370   3.123   1.999  0.00  0.00    +0.210 HD
ENDBRANCH   5  13
BRANCH   6  15
ATOM     15  O   LIG    1        3.353  -0.330   0.200  0.00  0.00    -0.340 OA
BRANCH  15  16
ATOM     16  C   LIG    1        3.118  -0.473   1.606  0.00  0.00    +0.282 C 
ATOM     17  C   LIG    1        2.079  -1.588   1.856  0.00  0.00    +0.201 C 
ATOM     18  C   LIG    1        2.661  -2.311   3.059  0.00  0.00    +0.179 C 
ATOM     19  C   LIG    1        4.162  -2.118   2.894  0.00  0.00    +0.178 C 
ATOM     20  O   LIG    1        4.337  -0.844   2.253  0.00  0.00    -0.341 OA
BRANCH  18  21
ATOM     21  O   LIG    1        2.220  -1.683   4.275  0.00  0.00    -0.386 OA
ATOM     22  H   LIG    1        1.535  -1.030   4.025  0.00  0.00    +0.210 HD
ENDBRANCH  18  21
BRANCH  17  23
ATOM     23  O   LIG    1        0.773  -1.082   2.167  0.00  0.00    -0.384 OA
ATOM     24  H   LIG    1        0.188  -1.856   2.243  0.00  0.00    +0.210 HD
ENDBRANCH  17  23
BRANCH  19  25
ATOM     25  C   LIG    1        4.829  -3.180   2.011  0.00  0.00    +0.190 C 
BRANCH  25  26
ATOM     26  O   LIG    1        4.219  -3.276   0.730  0.00  0.00    -0.392 OA
ATOM     27  H   LIG    1        4.212  -2.390   0.322  0.00  0.00    +0.209 HD
ENDBRANCH  25  26
ENDBRANCH  19  25
ENDBRANCH  15  16
ENDBRANCH   6  15
BRANCH   1  28
ATOM     28  O   LIG    1        5.599  -0.053  -2.168  0.00  0.00    -0.342 OA
BRANCH  28  33
ATOM     29  C   LIG    1        4.464  -2.255  -3.644  0.00  0.00    +0.166 C 
ATOM     30  C   LIG    1        5.725  -2.829  -4.315  0.00  0.00    +0.175 C 
ATOM     31  C   LIG    1        6.983  -2.118  -3.796  0.00  0.00    +0.167 C 
ATOM     32  C   LIG    1        6.995  -2.103  -2.256  0.00  0.00    +0.139 C 
ATOM     33  C   LIG    1        5.684  -1.421  -1.759  0.00  0.00    +0.270 C 
ATOM     34  O   LIG    1        4.580  -2.196  -2.212  0.00  0.00    -0.343 OA
BRANCH  32  35
ATOM     35  N   LIG    1        8.251  -1.529  -1.726  0.00  0.00    -0.321 NA
ATOM     36  H   LIG    1        9.025  -1.900  -2.284  0.00  0.00    +0.119 HD
ATOM     37  H   LIG    1        8.251  -0.524  -1.909  0.00  0.00    +0.119 HD
ENDBRANCH  32  35
BRANCH  31  38
ATOM     38  O   LIG    1        8.150  -2.797  -4.313  0.00  0.00    -0.387 OA
ATOM     39  H   LIG    1        8.159  -3.696  -3.946  0.00  0.00    +0.210 HD
ENDBRANCH  31  38
BRANCH  30  40
ATOM     40  O   LIG    1        5.654  -2.689  -5.739  0.00  0.00    -0.387 OA
ATOM     41  H   LIG    1        6.577  -2.673  -6.065  0.00  0.00    +0.210 HD
ENDBRANCH  30  40
BRANCH  29  42
ATOM     42  C   LIG    1        3.183  -3.062  -3.960  0.00  0.00    +0.112 C 
BRANCH  42  43
ATOM     43  N   LIG    1        3.167  -4.449  -3.475  0.00  0.00    -0.328 NA
ATOM     44  H   LIG    1        3.966  -4.616  -2.865  0.00  0.00    +0.118 HD
ATOM     45  H   LIG    1        3.231  -5.094  -4.259  0.00  0.00    +0.118 HD
ENDBRANCH  42  43
ENDBRANCH  29  42
ENDBRANCH  28  33
ENDBRANCH   1  28
TORSDOF 16
