REMARK  Name = *****
REMARK                            x       y       z     vdW  Elec       q    Type
REMARK                         _______ _______ _______ _____ _____    ______ ____
ROOT
ATOM      1  C   LIG    1       10.445   6.873  12.885  0.00  0.00    +0.077 C 
ENDROOT
BRANCH   1   3
ATOM      2  C   LIG    1        9.924   6.794  10.144  0.00  0.00    +0.234 C 
ATOM      3  N   LIG    1       10.392   6.358  11.384  0.00  0.00    -0.311 N 
ATOM      4  H   LIG    1       10.072   5.390  11.369  0.00  0.00    +0.149 HD
ATOM      5  O   LIG    1        9.257   5.929   9.531  0.00  0.00    -0.274 OA
BRANCH   2   6
ATOM      6  C   LIG    1       10.320   8.071   9.247  0.00  0.00    +0.161 C 
BRANCH   6   9
ATOM      7  N   LIG    1       10.345   8.606   6.203  0.00  0.00    -0.283 N 
ATOM      8  C   LIG    1       11.396   8.129   6.949  0.00  0.00    +0.303 C 
ATOM      9  N   LIG    1       11.296   7.636   8.237  0.00  0.00    -0.288 N 
ATOM     10  H   LIG    1       12.209   7.509   8.688  0.00  0.00    +0.151 HD
ATOM     11  O   LIG    1       12.545   8.408   6.553  0.00  0.00    -0.253 OA
ATOM     12  C   LIG    1        8.924   8.181   6.222  0.00  0.00    +0.134 C 
BRANCH   7  13
ATOM     13  C   LIG    1       10.736   9.361   4.976  0.00  0.00    +0.165 C 
BRANCH  13  17
ATOM     14  C   LIG    1       11.339   6.581   3.119  0.00  0.00    +0.081 A 
ATOM     15  S   LIG    1       13.046   6.944   2.990  0.00  0.00    -0.080 S 
ATOM     16  C   LIG    1       12.764   8.163   4.090  0.00  0.00    +0.071 A 
ATOM     17  C   LIG    1       11.380   8.390   4.167  0.00  0.00    +0.066 A 
ATOM     18  N   LIG    1       10.573   7.568   3.467  0.00  0.00    -0.247 NA
BRANCH  14  20
ATOM     19  C   LIG    1       10.305   5.456   1.205  0.00  0.00    +0.014 C 
ATOM     20  C   LIG    1       10.823   5.303   2.623  0.00  0.00    +0.038 C 
ATOM     21  C   LIG    1       11.888   4.226   2.782  0.00  0.00    +0.014 C 
ENDBRANCH  14  20
ENDBRANCH  13  17
ENDBRANCH   7  13
ENDBRANCH   6   9
BRANCH   6  22
ATOM     22  C   LIG    1       10.396   9.509   9.973  0.00  0.00    +0.047 C 
BRANCH  22  23
ATOM     23  C   LIG    1       10.805  11.320   9.469  0.00  0.00    +0.087 C 
BRANCH  23  24
ATOM     24  N   LIG    1       11.756  11.964   8.515  0.00  0.00    -0.298 NA
ATOM     25  C   LIG    1       12.461  11.099   7.607  0.00  0.00    +0.112 C 
ATOM     26  C   LIG    1       12.654   9.815   8.390  0.00  0.00    +0.175 C 
ATOM     27  O   LIG    1       13.020   9.948   9.887  0.00  0.00    -0.377 OA
ATOM     28  C   LIG    1       13.800  11.130   9.754  0.00  0.00    +0.175 C 
ATOM     29  C   LIG    1       12.858  12.361   9.428  0.00  0.00    +0.112 C 
ENDBRANCH  23  24
ENDBRANCH  22  23
ENDBRANCH   6  22
ENDBRANCH   2   6
ENDBRANCH   1   3
BRANCH   1  30
ATOM     30  C   LIG    1       11.199   8.172  13.062  0.00  0.00    +0.024 C 
BRANCH  30  31
ATOM     31  C   LIG    1       12.621   8.411  12.510  0.00  0.00    +0.024 C 
BRANCH  31  32
ATOM     32  C   LIG    1       13.280   9.556  13.271  0.00  0.00    +0.081 C 
BRANCH  32  33
ATOM     33  N   LIG    1       12.224  10.618  13.339  0.00  0.00    -0.278 N 
ATOM     34  H   LIG    1       12.415  11.455  13.839  0.00  0.00    +0.152 HD
ATOM     35  C   LIG    1       11.866  11.330  12.151  0.00  0.00    +0.401 C 
ATOM     36  O   LIG    1       12.626  12.124  11.892  0.00  0.00    -0.227 OA
BRANCH  35  37
ATOM     37  O   LIG    1       10.526  11.087  11.815  0.00  0.00    -0.445 OA
BRANCH  37  38
ATOM     38  C   LIG    1        8.877  11.394  11.077  0.00  0.00    +0.278 C 
BRANCH  38  39
ATOM     39  C   LIG    1        8.394  11.608   9.201  0.00  0.00    +0.046 A 
ATOM     40  S   LIG    1        8.420  10.483   7.924  0.00  0.00    -0.077 S 
ATOM     41  C   LIG    1        9.366  11.438   6.785  0.00  0.00    +0.156 A 
ATOM     42  N   LIG    1        9.180  12.675   7.030  0.00  0.00    -0.255 NA
ATOM     43  C   LIG    1        8.720  12.828   8.348  0.00  0.00    +0.125 A 
ENDBRANCH  38  39
ENDBRANCH  37  38
ENDBRANCH  35  37
ENDBRANCH  32  33
BRANCH  32  44
ATOM     44  C   LIG    1       13.858   9.063  14.763  0.00  0.00    +0.057 C 
BRANCH  44  45
ATOM     45  C   LIG    1       14.445   7.558  14.958  0.00  0.00    -0.046 A 
ATOM     46  C   LIG    1       15.319   7.013  15.912  0.00  0.00    +0.003 A 
ATOM     47  C   LIG    1       15.609   5.577  15.970  0.00  0.00    +0.000 A 
ATOM     48  C   LIG    1       15.163   4.653  15.018  0.00  0.00    +0.000 A 
ATOM     49  C   LIG    1       14.313   5.139  14.075  0.00  0.00    +0.000 A 
ATOM     50  C   LIG    1       13.950   6.501  14.181  0.00  0.00    +0.003 A 
ENDBRANCH  44  45
ENDBRANCH  32  44
ENDBRANCH  31  32
ENDBRANCH  30  31
ENDBRANCH   1  30
BRANCH   1  51
ATOM     51  C   LIG    1       10.979   5.822  14.095  0.00  0.00    +0.057 C 
BRANCH  51  52
ATOM     52  C   LIG    1       11.399   6.316  15.715  0.00  0.00    -0.046 A 
ATOM     53  C   LIG    1       10.910   7.430  16.442  0.00  0.00    +0.003 A 
ATOM     54  C   LIG    1       11.204   7.674  17.850  0.00  0.00    +0.000 A 
ATOM     55  C   LIG    1       12.189   6.987  18.539  0.00  0.00    +0.000 A 
ATOM     56  C   LIG    1       12.926   6.118  17.790  0.00  0.00    +0.000 A 
ATOM     57  C   LIG    1       12.422   5.685  16.504  0.00  0.00    +0.003 A 
ENDBRANCH  51  52
ENDBRANCH   1  51
TORSDOF 20
