REMARK  Name = *****
REMARK                            x       y       z     vdW  Elec       q    Type
REMARK                         _______ _______ _______ _____ _____    ______ ____
ROOT
ATOM      1  C   LIG    1        5.347   5.922   2.245  0.00  0.00    -0.045 A 
ATOM      2  C   LIG    1        4.537   7.014   1.937  0.00  0.00    +0.007 A 
ATOM      3  C   LIG    1        3.178   6.820   1.622  0.00  0.00    +0.046 A 
ATOM      4  C   LIG    1        2.646   5.542   1.485  0.00  0.00    +0.120 A 
ATOM      5  C   LIG    1        3.546   4.472   1.448  0.00  0.00    +0.046 A 
ATOM      6  C   LIG    1        4.872   4.656   1.866  0.00  0.00    +0.007 A 
ENDROOT
BRANCH   1   7
ATOM      7  C   LIG    1        6.689   6.006   2.961  0.00  0.00    +0.067 C 
BRANCH   7   8
ATOM      8  C   LIG    1        6.997   7.135   3.994  0.00  0.00    +0.189 C 
BRANCH   8   9
ATOM      9  N   LIG    1        7.015   8.524   3.393  0.00  0.00    -0.180 NA
ATOM     10  H   LIG    1        6.860   9.255   4.097  0.00  0.00    +0.148 HD
BRANCH   9  11
ATOM     11  S   LIG    1        8.117   8.995   2.216  0.00  0.00    +0.030 S 
ATOM     12  O   LIG    1        9.412   8.934   2.778  0.00  0.00    -0.158 OA
ATOM     13  O   LIG    1        7.735   8.245   1.013  0.00  0.00    -0.158 OA
BRANCH  11  14
ATOM     14  C   LIG    1        7.608  10.708   1.982  0.00  0.00    +0.185 C 
BRANCH  14  15
ATOM     15  C   LIG    1        8.274  11.410   0.796  0.00  0.00    +0.024 C 
BRANCH  15  17
ATOM     16  C   LIG    1        8.394  13.492  -0.649  0.00  0.00    +0.004 C 
ATOM     17  C   LIG    1        7.723  12.825   0.548  0.00  0.00    -0.002 C 
ENDBRANCH  15  17
ENDBRANCH  14  15
ENDBRANCH  11  14
ENDBRANCH   9  11
ENDBRANCH   8   9
BRANCH   8  18
ATOM     18  C   LIG    1        8.125   6.795   4.927  0.00  0.00    +0.324 C 
ATOM     19  O   LIG    1        9.146   7.410   5.143  0.00  0.00    -0.249 OA
BRANCH  18  20
ATOM     20  O   LIG    1        7.797   5.691   5.718  0.00  0.00    -0.479 OA
ATOM     21  H   LIG    1        6.908   5.227   5.568  0.00  0.00    +0.295 HD
ENDBRANCH  18  20
ENDBRANCH   8  18
ENDBRANCH   7   8
ENDBRANCH   1   7
BRANCH   4  22
ATOM     22  O   LIG    1        1.319   5.230   1.357  0.00  0.00    -0.492 OA
BRANCH  22  23
ATOM     23  C   LIG    1        0.307   6.233   1.588  0.00  0.00    +0.229 C 
BRANCH  23  24
ATOM     24  C   LIG    1       -0.132   6.323   3.058  0.00  0.00    +0.041 C 
BRANCH  24  25
ATOM     25  C   LIG    1       -1.255   7.340   3.375  0.00  0.00    +0.003 C 
BRANCH  25  26
ATOM     26  C   LIG    1       -0.911   8.854   3.329  0.00  0.00    +0.004 C 
BRANCH  26  27
ATOM     27  C   LIG    1       -2.155   9.751   3.670  0.00  0.00    -0.008 C 
ATOM     28  C   LIG    1       -2.864   9.443   5.006  0.00  0.00    +0.018 C 
ATOM     29  C   LIG    1       -2.225  10.080   6.245  0.00  0.00    +0.081 C 
ATOM     30  N   LIG    1       -2.058  11.523   6.101  0.00  0.00    -0.316 NA
ATOM     31  H   LIG    1       -2.981  11.958   6.075  0.00  0.00    +0.122 HD
ATOM     32  C   LIG    1       -1.314  11.859   4.887  0.00  0.00    +0.081 C 
ATOM     33  C   LIG    1       -1.944  11.281   3.616  0.00  0.00    +0.018 C 
ENDBRANCH  26  27
ENDBRANCH  25  26
ENDBRANCH  24  25
ENDBRANCH  23  24
ENDBRANCH  22  23
ENDBRANCH   4  22
TORSDOF 15
