REMARK  Name = *****
REMARK                            x       y       z     vdW  Elec       q    Type
REMARK                         _______ _______ _______ _____ _____    ______ ____
ROOT
ATOM      1  N   UNK A  0        5.701   0.601  -4.531  0.00  0.00    -0.342 N 
ATOM      2  H   UNK A  0        6.468   0.145  -4.045  0.00  0.00    +0.146 HD
ENDROOT
BRANCH   1   3
ATOM      3  C   UNK A  0        5.839   0.395  -5.907  0.00  0.00    +0.027 A 
ATOM      4  C   UNK A  0        5.513   1.330  -6.893  0.00  0.00    +0.024 A 
ATOM      5  C   UNK A  0        5.532   0.983  -8.255  0.00  0.00    +0.015 A 
ATOM      6  C   UNK A  0        5.861  -0.319  -8.655  0.00  0.00    +0.037 A 
ATOM      7  C   UNK A  0        6.256  -1.240  -7.681  0.00  0.00    +0.015 A 
ATOM      8  C   UNK A  0        6.217  -0.888  -6.327  0.00  0.00    +0.024 A 
BRANCH   6   9
ATOM      9  C   UNK A  0        5.747  -0.700 -10.097  0.00  0.00    +0.245 C 
ATOM     10  N   GLU A  1        5.461  -2.027 -10.370  0.00  0.00    -0.298 N 
ATOM     11  H   GLU A  1        5.316  -2.673  -9.598  0.00  0.00    +0.150 HD
ATOM     12  O   UNK A  0        5.896   0.143 -10.985  0.00  0.00    -0.270 OA
BRANCH  10  13
ATOM     13  CA  GLU A  1        5.191  -2.533 -11.743  0.00  0.00    +0.182 C 
BRANCH  13  14
ATOM     14  C   GLU A  1        6.487  -3.131 -12.331  0.00  0.00    +0.325 C 
ATOM     15  O   GLU A  1        6.583  -3.621 -13.448  0.00  0.00    -0.249 OA
BRANCH  14  16
ATOM     16  OXT GLU A  1        7.524  -3.149 -11.461  0.00  0.00    -0.479 OA
ATOM     17  HXT GLU A  1        7.289  -2.621 -10.672  0.00  0.00    +0.295 HD
ENDBRANCH  14  16
ENDBRANCH  13  14
BRANCH  13  18
ATOM     18  CB  GLU A  1        4.067  -3.593 -11.715  0.00  0.00    +0.045 C 
BRANCH  18  19
ATOM     19  CG  GLU A  1        3.668  -4.103 -13.104  0.00  0.00    +0.123 C 
BRANCH  19  20
ATOM     20  CD  GLU A  1        2.578  -5.141 -13.020  0.00  0.00    +0.305 C 
ATOM     21  OE1 GLU A  1        1.391  -4.883 -13.055  0.00  0.00    -0.251 OA
BRANCH  20  22
ATOM     22  OE2 GLU A  1        3.050  -6.400 -12.864  0.00  0.00    -0.481 OA
ATOM     23  HE2 GLU A  1        4.022  -6.473 -12.887  0.00  0.00    +0.295 HD
ENDBRANCH  20  22
ENDBRANCH  19  20
ENDBRANCH  18  19
ENDBRANCH  13  18
ENDBRANCH  10  13
ENDBRANCH   6   9
ENDBRANCH   1   3
BRANCH   1  24
ATOM     24  C   UNK A  0        5.377   1.928  -4.002  0.00  0.00    +0.126 C 
BRANCH  24  32
ATOM     25  C   UNK A  0        8.031   5.963  -1.381  0.00  0.00    +0.195 C 
ATOM     26  N   UNK A  0        6.786   6.484  -1.460  0.00  0.00    -0.294 N 
ATOM     27  H   UNK A  0        6.635   7.474  -1.366  0.00  0.00    +0.172 HD
ATOM     28  C   UNK A  0        5.681   5.720  -1.681  0.00  0.00    +0.276 C 
ATOM     29  O   UNK A  0        4.590   6.263  -1.823  0.00  0.00    -0.266 OA
ATOM     30  C   UNK A  0        5.910   4.244  -1.794  0.00  0.00    +0.142 C 
ATOM     31  N   UNK A  0        4.867   3.316  -2.006  0.00  0.00    -0.261 N 
ATOM     32  C   UNK A  0        5.245   1.943  -2.452  0.00  0.00    +0.115 C 
ATOM     33  C   UNK A  0        6.525   1.478  -1.733  0.00  0.00    +0.127 C 
ATOM     34  N   UNK A  0        7.542   2.504  -1.851  0.00  0.00    -0.326 N 
ATOM     35  H   UNK A  0        8.441   2.315  -1.416  0.00  0.00    +0.148 HD
ATOM     36  C   UNK A  0        3.510   3.595  -1.944  0.00  0.00    +0.333 C 
ATOM     37  O   UNK A  0        2.620   2.778  -2.168  0.00  0.00    -0.279 OA
ATOM     38  C   UNK A  0        7.212   3.847  -1.714  0.00  0.00    +0.149 C 
ATOM     39  N   UNK A  0        8.262   4.700  -1.492  0.00  0.00    -0.199 NA
BRANCH  25  40
ATOM     40  N   UNK A  0        9.048   6.836  -1.187  0.00  0.00    -0.329 N 
ATOM     41  H   UNK A  0        8.971   7.729  -1.656  0.00  0.00    +0.145 HD
ATOM     42  H   UNK A  0        9.952   6.398  -1.339  0.00  0.00    +0.145 HD
ENDBRANCH  25  40
ENDBRANCH  24  32
ENDBRANCH   1  24
TORSDOF 12
