REMARK  Name = *****
REMARK                            x       y       z     vdW  Elec       q    Type
REMARK                         _______ _______ _______ _____ _____    ______ ____
ROOT
ATOM      1  C   LIG    1        2.210   1.296   0.038  0.00  0.00    +0.056 A 
ATOM      2  C   LIG    1        1.716   2.206   0.998  0.00  0.00    +0.043 A 
ATOM      3  C   LIG    1        2.428   3.431   0.950  0.00  0.00    +0.129 A 
ATOM      4  N   LIG    1        3.441   3.719   0.120  0.00  0.00    -0.200 NA
ATOM      5  C   LIG    1        3.840   2.767  -0.711  0.00  0.00    +0.214 A 
ATOM      6  N   LIG    1        3.251   1.580  -0.792  0.00  0.00    -0.219 NA
ENDROOT
BRANCH   2   7
ATOM      7  C   LIG    1        0.572   1.954   1.951  0.00  0.00    -0.013 A 
ATOM      8  C   LIG    1        0.302   0.696   2.524  0.00  0.00    +0.010 A 
ATOM      9  C   LIG    1       -0.775   0.461   3.396  0.00  0.00    +0.020 A 
ATOM     10  C   LIG    1       -1.595   1.508   3.781  0.00  0.00    +0.041 A 
ATOM     11 CL   LIG    1       -2.881   1.234   4.888  0.00  0.00    -0.084 Cl
ATOM     12  C   LIG    1       -1.355   2.777   3.278  0.00  0.00    +0.020 A 
ATOM     13  C   LIG    1       -0.303   2.988   2.366  0.00  0.00    +0.010 A 
ENDBRANCH   2   7
BRANCH   3  14
ATOM     14  N   LIG    1        2.164   4.514   1.799  0.00  0.00    -0.343 N 
ATOM     15  H   LIG    1        2.323   4.259   2.766  0.00  0.00    +0.144 HD
ATOM     16  H   LIG    1        2.823   5.241   1.511  0.00  0.00    +0.144 HD
ENDBRANCH   3  14
BRANCH   5  17
ATOM     17  N   LIG    1        4.883   3.031  -1.558  0.00  0.00    -0.327 N 
ATOM     18  H   LIG    1        4.949   4.026  -1.719  0.00  0.00    +0.145 HD
ATOM     19  H   LIG    1        4.814   2.436  -2.373  0.00  0.00    +0.145 HD
ENDBRANCH   5  17
BRANCH   1  21
ATOM     20  C   LIG    1        0.628  -0.070  -1.382  0.00  0.00    +0.010 C 
ATOM     21  C   LIG    1        1.667  -0.076  -0.275  0.00  0.00    +0.053 C 
ENDBRANCH   1  21
TORSDOF 4
