REMARK  Name = *****
REMARK                            x       y       z     vdW  Elec       q    Type
REMARK                         _______ _______ _______ _____ _____    ______ ____
ROOT
ATOM      1  C   LIG    1        0.689  -0.391   0.018  0.00  0.00    +0.027 C 
ATOM      2  C   LIG    1        2.217  -0.196  -0.029  0.00  0.00    +0.086 C 
ATOM      3  N   LIG    1        2.969  -1.420  -0.425  0.00  0.00    -0.298 NA
ATOM      4  C   LIG    1        2.708  -2.577   0.422  0.00  0.00    +0.105 C 
ATOM      5  C   LIG    1        2.751  -1.733  -1.850  0.00  0.00    +0.112 C 
ATOM      6  C   LIG    1        3.056  -0.523  -2.748  0.00  0.00    +0.176 C 
ATOM      7  O   LIG    1        2.313   0.636  -2.352  0.00  0.00    -0.369 OA
ATOM      8  C   LIG    1        2.624   0.978  -0.984  0.00  0.00    +0.165 C 
ENDROOT
BRANCH   8   9
ATOM      9  C   LIG    1        2.004   2.315  -0.610  0.00  0.00    -0.017 A 
ATOM     10  C   LIG    1        0.950   2.878  -1.346  0.00  0.00    +0.006 A 
ATOM     11  C   LIG    1        0.390   4.100  -0.970  0.00  0.00    +0.000 A 
ATOM     12  C   LIG    1        0.875   4.778   0.146  0.00  0.00    +0.000 A 
ATOM     13  C   LIG    1        1.921   4.234   0.887  0.00  0.00    +0.000 A 
ATOM     14  C   LIG    1        2.482   3.012   0.513  0.00  0.00    +0.006 A 
ENDBRANCH   8   9
TORSDOF 1
