REMARK  Name = *****
REMARK                            x       y       z     vdW  Elec       q    Type
REMARK                         _______ _______ _______ _____ _____    ______ ____
ROOT
ATOM      1  C   LIG    1        5.253   4.213  -2.157  0.00  0.00    +0.117 C 
ENDROOT
BRANCH   1   2
ATOM      2  N   LIG    1        4.361   4.571  -1.041  0.00  0.00    -0.310 NA
ATOM      3  H   LIG    1        4.905   4.631  -0.178  0.00  0.00    +0.122 HD
BRANCH   2   5
ATOM      4  C   LIG    1        3.745   2.209  -0.513  0.00  0.00    +0.024 C 
ATOM      5  C   LIG    1        3.242   3.617  -0.867  0.00  0.00    +0.055 C 
BRANCH   5   6
ATOM      6  C   LIG    1        2.279   4.162   0.225  0.00  0.00    +0.053 C 
BRANCH   6   7
ATOM      7  C   LIG    1        1.016   3.342   0.411  0.00  0.00    -0.046 A 
ATOM      8  C   LIG    1        0.062   3.249  -0.613  0.00  0.00    +0.007 A 
ATOM      9  C   LIG    1       -1.065   2.438  -0.463  0.00  0.00    +0.045 A 
ATOM     10  C   LIG    1       -1.261   1.740   0.723  0.00  0.00    +0.117 A 
ATOM     11  C   LIG    1       -0.350   1.847   1.767  0.00  0.00    +0.045 A 
ATOM     12  C   LIG    1        0.788   2.645   1.609  0.00  0.00    +0.007 A 
BRANCH  10  13
ATOM     13  O   LIG    1       -2.372   0.956   0.823  0.00  0.00    -0.507 OA
ATOM     14  H   LIG    1       -2.393   0.558   1.709  0.00  0.00    +0.292 HD
ENDBRANCH  10  13
ENDBRANCH   6   7
ENDBRANCH   5   6
ENDBRANCH   2   5
ENDBRANCH   1   2
BRANCH   1  15
ATOM     15  C   LIG    1        6.436   5.188  -2.391  0.00  0.00    +0.158 C 
BRANCH  15  16
ATOM     16  C   LIG    1        7.357   5.324  -1.194  0.00  0.00    -0.011 A 
ATOM     17  C   LIG    1        7.490   6.562  -0.543  0.00  0.00    +0.051 A 
ATOM     18  C   LIG    1        8.322   6.686   0.563  0.00  0.00    +0.121 A 
ATOM     19  C   LIG    1        9.037   5.597   1.050  0.00  0.00    +0.090 A 
ATOM     20  C   LIG    1        8.908   4.370   0.406  0.00  0.00    +0.121 A 
ATOM     21  C   LIG    1        8.087   4.226  -0.708  0.00  0.00    +0.051 A 
BRANCH  18  22
ATOM     22  O   LIG    1        8.407   7.910   1.160  0.00  0.00    -0.507 OA
ATOM     23  H   LIG    1        9.013   7.845   1.916  0.00  0.00    +0.292 HD
ENDBRANCH  18  22
BRANCH  20  24
ATOM     24  O   LIG    1        9.610   3.316   0.912  0.00  0.00    -0.507 OA
ATOM     25  H   LIG    1        9.363   2.513   0.423  0.00  0.00    +0.292 HD
ENDBRANCH  20  24
ENDBRANCH  15  16
BRANCH  15  26
ATOM     26  O   LIG    1        7.194   4.707  -3.510  0.00  0.00    -0.386 OA
ATOM     27  H   LIG    1        8.127   4.933  -3.355  0.00  0.00    +0.210 HD
ENDBRANCH  15  26
ENDBRANCH   1  15
TORSDOF 10
