REMARK  Name = *****
REMARK                            x       y       z     vdW  Elec       q    Type
REMARK                         _______ _______ _______ _____ _____    ______ ____
ROOT
ATOM      1  N   LIG    1        2.108   0.419  -1.440  0.00  0.00    -0.313 NA
ATOM      2  H   LIG    1        2.341   1.406  -1.319  0.00  0.00    +0.122 HD
ENDROOT
BRANCH   1   4
ATOM      3  C   LIG    1        1.027   0.564   0.723  0.00  0.00    +0.024 C 
ATOM      4  C   LIG    1        2.053  -0.216  -0.112  0.00  0.00    +0.051 C 
BRANCH   4   5
ATOM      5  C   LIG    1        1.719  -1.727  -0.121  0.00  0.00    +0.023 C 
BRANCH   5   6
ATOM      6  C   LIG    1        0.352  -2.073  -0.730  0.00  0.00    +0.036 C 
BRANCH   6   7
ATOM      7  C   LIG    1        0.080  -3.561  -0.732  0.00  0.00    -0.047 A 
ATOM      8  C   LIG    1        0.521  -4.364  -1.791  0.00  0.00    +0.007 A 
ATOM      9  C   LIG    1        0.324  -5.746  -1.765  0.00  0.00    +0.045 A 
ATOM     10  C   LIG    1       -0.327  -6.331  -0.682  0.00  0.00    +0.117 A 
ATOM     11  C   LIG    1       -0.802  -5.549   0.363  0.00  0.00    +0.045 A 
ATOM     12  C   LIG    1       -0.602  -4.166   0.338  0.00  0.00    +0.007 A 
BRANCH  10  13
ATOM     13  O   LIG    1       -0.468  -7.686  -0.685  0.00  0.00    -0.507 OA
ATOM     14  H   LIG    1       -0.913  -7.952   0.138  0.00  0.00    +0.292 HD
ENDBRANCH  10  13
ENDBRANCH   6   7
ENDBRANCH   5   6
ENDBRANCH   4   5
ENDBRANCH   1   4
BRANCH   1  15
ATOM     15  C   LIG    1        3.081  -0.184  -2.358  0.00  0.00    +0.086 C 
BRANCH  15  16
ATOM     16  C   LIG    1        3.073   0.557  -3.709  0.00  0.00    +0.050 C 
BRANCH  16  17
ATOM     17  C   LIG    1        4.028  -0.039  -4.722  0.00  0.00    -0.043 A 
ATOM     18  C   LIG    1        5.058   0.744  -5.266  0.00  0.00    +0.052 A 
ATOM     19  C   LIG    1        5.930   0.183  -6.194  0.00  0.00    +0.159 A 
ATOM     20  C   LIG    1        5.788  -1.136  -6.603  0.00  0.00    +0.158 A 
ATOM     21  C   LIG    1        4.765  -1.924  -6.090  0.00  0.00    +0.049 A 
ATOM     22  C   LIG    1        3.885  -1.368  -5.154  0.00  0.00    +0.007 A 
BRANCH  19  23
ATOM     23  O   LIG    1        6.941   0.950  -6.703  0.00  0.00    -0.503 OA
ATOM     24  H   LIG    1        7.426   0.344  -7.300  0.00  0.00    +0.292 HD
ENDBRANCH  19  23
BRANCH  20  25
ATOM     25  O   LIG    1        6.681  -1.621  -7.521  0.00  0.00    -0.503 OA
ATOM     26  H   LIG    1        6.418  -2.528  -7.747  0.00  0.00    +0.292 HD
ENDBRANCH  20  25
ENDBRANCH  16  17
ENDBRANCH  15  16
ENDBRANCH   1  15
TORSDOF 10
