REMARK  Name = *****
REMARK                            x       y       z     vdW  Elec       q    Type
REMARK                         _______ _______ _______ _____ _____    ______ ____
ROOT
ATOM      1  C   LIG    1        0.974   0.040  -0.039  0.00  0.00    +0.105 C 
ATOM      2  N   LIG    1        2.439   0.057  -0.032  0.00  0.00    -0.298 NA
ATOM      3  C   LIG    1        2.988   1.344   0.489  0.00  0.00    +0.092 C 
ATOM      4  C   LIG    1        2.636   2.526  -0.444  0.00  0.00    +0.059 C 
ATOM      5  C   LIG    1        3.215   3.832   0.056  0.00  0.00    -0.034 A 
ATOM      6  C   LIG    1        4.490   3.836   0.675  0.00  0.00    +0.031 A 
ATOM      7  C   LIG    1        5.218   2.540   0.798  0.00  0.00    -0.009 A 
ATOM      8  C   LIG    1        6.612   2.465   0.971  0.00  0.00    +0.009 A 
ATOM      9  C   LIG    1        7.279   1.243   1.083  0.00  0.00    +0.001 A 
ATOM     10  C   LIG    1        6.568   0.055   1.006  0.00  0.00    +0.004 A 
ATOM     11  C   LIG    1        5.184   0.080   0.812  0.00  0.00    -0.041 A 
ATOM     12  C   LIG    1        4.443  -1.220   0.653  0.00  0.00    +0.051 C 
ATOM     13  C   LIG    1        4.958   5.084   1.124  0.00  0.00    +0.166 A 
ATOM     14  C   LIG    1        4.224   6.263   0.924  0.00  0.00    +0.159 A 
ATOM     15  C   LIG    1        2.995   6.244   0.287  0.00  0.00    +0.049 A 
ATOM     16  C   LIG    1        2.490   5.024  -0.146  0.00  0.00    +0.008 A 
ATOM     17  C   LIG    1        4.508   1.314   0.688  0.00  0.00    -0.019 A 
ATOM     18  C   LIG    1        2.931  -1.058   0.793  0.00  0.00    +0.089 C 
ENDROOT
BRANCH  13  19
ATOM     19  O   LIG    1        6.144   5.221   1.803  0.00  0.00    -0.503 OA
ATOM     20  H   LIG    1        6.213   6.178   1.992  0.00  0.00    +0.292 HD
ENDBRANCH  13  19
BRANCH  14  21
ATOM     21  O   LIG    1        4.772   7.432   1.385  0.00  0.00    -0.503 OA
ATOM     22  H   LIG    1        4.173   8.161   1.147  0.00  0.00    +0.292 HD
ENDBRANCH  14  21
TORSDOF 2
