REMARK  Name = *****
REMARK                            x       y       z     vdW  Elec       q    Type
REMARK                         _______ _______ _______ _____ _____    ______ ____
ROOT
ATOM      1  O   LIG    1        6.606   2.973   1.524  0.00  0.00    -0.461 OA
ENDROOT
BRANCH   1  10
ATOM      2  C   LIG    1        8.782   7.070   1.000  0.00  0.00    +0.193 C 
ATOM      3  N   LIG    1        9.384   5.987   1.880  0.00  0.00    +0.247 N 
ATOM      4  C   LIG    1       10.694   6.574   2.433  0.00  0.00    +0.193 C 
ATOM      5  C   LIG    1        8.498   5.458   3.039  0.00  0.00    +0.102 C 
ATOM      6  C   LIG    1        9.205   4.206   3.533  0.00  0.00    +0.201 C 
ATOM      7  C   LIG    1        9.959   3.667   2.343  0.00  0.00    +0.201 C 
ATOM      8  O   LIG    1        8.886   2.949   2.944  0.00  0.00    -0.357 OA
ATOM      9  C   LIG    1        7.098   5.131   2.493  0.00  0.00    +0.102 C 
ATOM     10  C   LIG    1        7.081   4.296   1.184  0.00  0.00    +0.187 C 
ATOM     11  C   LIG    1        8.427   4.200   0.413  0.00  0.00    +0.102 C 
ATOM     12  C   LIG    1        9.667   4.628   1.201  0.00  0.00    +0.102 C 
ENDBRANCH   1  10
BRANCH   1  13
ATOM     13  C   LIG    1        6.339   2.130   0.479  0.00  0.00    +0.317 C 
ATOM     14  O   LIG    1        6.364   2.466  -0.694  0.00  0.00    -0.250 OA
BRANCH  13  15
ATOM     15  C   LIG    1        6.082   0.723   0.989  0.00  0.00    +0.153 C 
BRANCH  15  16
ATOM     16  C   LIG    1        4.606   0.391   1.095  0.00  0.00    -0.032 A 
ATOM     17  C   LIG    1        3.671   0.819   0.141  0.00  0.00    +0.004 A 
ATOM     18  C   LIG    1        2.318   0.503   0.284  0.00  0.00    +0.000 A 
ATOM     19  C   LIG    1        1.888  -0.262   1.365  0.00  0.00    +0.000 A 
ATOM     20  C   LIG    1        2.809  -0.717   2.305  0.00  0.00    +0.000 A 
ATOM     21  C   LIG    1        4.159  -0.394   2.171  0.00  0.00    +0.004 A 
ENDBRANCH  15  16
BRANCH  15  22
ATOM     22  C   LIG    1        6.857  -0.261   0.103  0.00  0.00    +0.175 C 
BRANCH  22  23
ATOM     23  O   LIG    1        6.827  -1.582   0.640  0.00  0.00    -0.394 OA
ATOM     24  H   LIG    1        5.921  -1.922   0.508  0.00  0.00    +0.209 HD
ENDBRANCH  22  23
ENDBRANCH  15  22
ENDBRANCH  13  15
ENDBRANCH   1  13
TORSDOF 6
