REMARK  Name = *****
REMARK                            x       y       z     vdW  Elec       q    Type
REMARK                         _______ _______ _______ _____ _____    ______ ____
ROOT
ATOM      1  C   LIG    1        2.541  -0.015   0.076  0.00  0.00    +0.193 C 
ATOM      2  N   LIG    1        3.173  -1.240   0.036  0.00  0.00    -0.320 N 
ATOM      3  H   LIG    1        2.628  -2.083   0.078  0.00  0.00    +0.169 HD
ATOM      4  C   LIG    1        4.539  -1.365   0.004  0.00  0.00    +0.114 C 
ATOM      5  S   LIG    1        5.329  -2.823  -0.010  0.00  0.00    -0.030 S 
ATOM      6  C   LIG    1        5.213  -0.122  -0.008  0.00  0.00    +0.116 A 
ATOM      7  C   LIG    1        4.538   1.070   0.003  0.00  0.00    +0.183 A 
ATOM      8  N   LIG    1        5.400   2.127  -0.004  0.00  0.00    -0.216 NA
ATOM      9  C   LIG    1        6.599   1.585  -0.011  0.00  0.00    +0.199 A 
ATOM     10  N   LIG    1        6.537   0.217  -0.015  0.00  0.00    -0.341 N 
ATOM     11  H   LIG    1        7.321  -0.422  -0.012  0.00  0.00    +0.167 HD
ATOM     12  N   LIG    1        3.141   1.137   0.045  0.00  0.00    -0.195 NA
ENDROOT
BRANCH   1  13
ATOM     13  N   LIG    1        1.185  -0.059   0.163  0.00  0.00    -0.329 N 
ATOM     14  H   LIG    1        0.680  -0.869  -0.162  0.00  0.00    +0.145 HD
ATOM     15  H   LIG    1        0.739   0.833  -0.025  0.00  0.00    +0.145 HD
ENDBRANCH   1  13
TORSDOF 1
