REMARK  Name = *****
REMARK                            x       y       z     vdW  Elec       q    Type
REMARK                         _______ _______ _______ _____ _____    ______ ____
ROOT
ATOM      1  C   LIG    1       -1.894  10.206  -1.988  0.00  0.00    +0.167 C 
ATOM      2  N   LIG    1       -1.771  10.223  -0.525  0.00  0.00    -0.233 N 
ATOM      3  C   LIG    1       -1.157  11.314   0.166  0.00  0.00    +0.269 C 
ATOM      4  O   LIG    1       -0.166  10.710   0.969  0.00  0.00    -0.298 OA
ATOM      5  C   LIG    1       -0.654   9.423   1.402  0.00  0.00    +0.220 C 
ATOM      6  C   LIG    1       -0.591  12.403  -0.766  0.00  0.00    +0.156 C 
ATOM      7  N   LIG    1       -0.036  11.873  -1.999  0.00  0.00    -0.290 N 
ATOM      8  C   LIG    1        1.071  12.683  -2.481  0.00  0.00    +0.108 C 
ATOM      9  C   LIG    1        1.114  13.867  -1.511  0.00  0.00    +0.021 C 
ATOM     10  C   LIG    1        0.537  13.283  -0.220  0.00  0.00    +0.031 C 
ATOM     11  C   LIG    1       -1.482   9.057   0.159  0.00  0.00    +0.271 C 
ATOM     12  O   LIG    1       -1.874   7.934  -0.161  0.00  0.00    -0.270 OA
ATOM     13  C   LIG    1       -0.591  10.786  -2.645  0.00  0.00    +0.237 C 
ATOM     14  O   LIG    1       -0.166  10.384  -3.726  0.00  0.00    -0.274 OA
ENDROOT
BRANCH   5  15
ATOM     15  N   LIG    1       -1.501   9.564   2.585  0.00  0.00    -0.279 N 
ATOM     16  H   LIG    1       -2.298   8.943   2.646  0.00  0.00    +0.152 HD
ATOM     17  C   LIG    1       -1.335  10.555   3.531  0.00  0.00    +0.224 C 
ATOM     18  O   LIG    1       -0.458  11.415   3.444  0.00  0.00    -0.275 OA
BRANCH  17  19
ATOM     19  C   LIG    1       -2.402  10.606   4.638  0.00  0.00    +0.112 C 
ATOM     20  C   LIG    1       -1.727  11.060   5.966  0.00  0.00    +0.101 C 
ATOM     21  N   LIG    1       -2.377  12.161   6.709  0.00  0.00    -0.297 NA
ATOM     22  C   LIG    1       -3.542  11.685   7.460  0.00  0.00    +0.105 C 
ATOM     23  C   LIG    1       -2.700  13.262   5.755  0.00  0.00    +0.091 C 
ATOM     24  C   LIG    1       -3.667  12.780   4.643  0.00  0.00    -0.025 C 
ATOM     25  C   LIG    1       -4.660  13.729   4.090  0.00  0.00    -0.011 C 
ATOM     26  C   LIG    1       -4.585  15.030   4.611  0.00  0.00    +0.011 C 
ATOM     27  C   LIG    1       -5.368  16.062   4.111  0.00  0.00    +0.048 C 
ATOM     28  N   LIG    1       -4.996  17.198   4.796  0.00  0.00    -0.349 NA
ATOM     29  H   LIG    1       -5.374  18.121   4.643  0.00  0.00    +0.166 HD
ATOM     30  C   LIG    1       -4.058  16.886   5.745  0.00  0.00    +0.087 C 
ATOM     31 BR   LIG    1       -3.313  18.112   6.930  0.00  0.00    -0.030 Br
ATOM     32  C   LIG    1       -6.313  15.849   3.106  0.00  0.00    +0.026 C 
ATOM     33  C   LIG    1       -6.433  14.540   2.621  0.00  0.00    +0.003 C 
ATOM     34  C   LIG    1       -3.804  15.538   5.676  0.00  0.00    -0.006 C 
ATOM     35  C   LIG    1       -5.618  13.501   3.093  0.00  0.00    +0.009 C 
ATOM     36  C   LIG    1       -2.982  14.614   6.499  0.00  0.00    +0.062 C 
ATOM     37  C   LIG    1       -3.501  11.535   4.146  0.00  0.00    -0.007 C 
ENDBRANCH  17  19
ENDBRANCH   5  15
BRANCH   5  38
ATOM     38  C   LIG    1        0.558   8.474   1.590  0.00  0.00    +0.043 C 
ATOM     39  C   LIG    1        1.582   9.029   2.587  0.00  0.00    +0.012 C 
ATOM     40  C   LIG    1        0.187   7.040   1.982  0.00  0.00    +0.012 C 
ENDBRANCH   5  38
BRANCH   3  41
ATOM     41  O   LIG    1       -2.155  11.895   0.980  0.00  0.00    -0.348 OA
ATOM     42  H   LIG    1       -1.653  12.446   1.611  0.00  0.00    +0.214 HD
ENDBRANCH   3  41
BRANCH   1  43
ATOM     43  C   LIG    1       -3.135  10.966  -2.497  0.00  0.00    +0.035 C 
BRANCH  43  45
ATOM     44  C   LIG    1       -5.619  11.394  -2.563  0.00  0.00    +0.007 C 
ATOM     45  C   LIG    1       -4.516  10.518  -1.952  0.00  0.00    -0.015 C 
ATOM     46  C   LIG    1       -4.873   9.057  -2.238  0.00  0.00    +0.007 C 
ENDBRANCH  43  45
ENDBRANCH   1  43
TORSDOF 6
