REMARK  Name = *****
REMARK                            x       y       z     vdW  Elec       q    Type
REMARK                         _______ _______ _______ _____ _____    ______ ____
ROOT
ATOM      1  N   LIG    1        3.300  -0.257   0.888  0.00  0.00    -0.155 NA
ATOM      2  C   LIG    1        4.569  -0.356   1.029  0.00  0.00    +0.184 C 
ATOM      3  N   LIG    1        5.727  -0.042   0.337  0.00  0.00    -0.244 N 
ATOM      4  C   LIG    1        5.805   0.555  -0.983  0.00  0.00    +0.175 C 
ATOM      5  N   LIG    1        6.939  -0.376   0.909  0.00  0.00    -0.141 NA
ATOM      6  C   LIG    1        6.716  -0.927   2.071  0.00  0.00    +0.254 C 
ATOM      7  S   LIG    1        5.050  -1.092   2.574  0.00  0.00    -0.011 S 
ENDROOT
BRANCH   1   9
ATOM      8  C   LIG    1        1.458   0.999   0.026  0.00  0.00    +0.111 C 
ATOM      9  C   LIG    1        2.731   0.242  -0.245  0.00  0.00    +0.235 C 
ATOM     10  O   LIG    1        3.121   0.043  -1.390  0.00  0.00    -0.274 OA
ENDBRANCH   1   9
BRANCH   6  11
ATOM     11  S   LIG    1        8.088  -1.467   3.068  0.00  0.00    +0.081 S 
ATOM     12  O   LIG    1        7.995  -2.907   3.154  0.00  0.00    -0.151 OA
ATOM     13  O   LIG    1        8.112  -0.608   4.232  0.00  0.00    -0.151 OA
BRANCH  11  14
ATOM     14  N   LIG    1        9.500  -1.129   2.189  0.00  0.00    -0.202 NA
ATOM     15  H   LIG    1        9.569  -1.719   1.359  0.00  0.00    +0.144 HD
ATOM     16  H   LIG    1        9.589  -0.132   1.991  0.00  0.00    +0.144 HD
ENDBRANCH  11  14
ENDBRANCH   6  11
TORSDOF 3
