REMARK  Name = *****
REMARK                            x       y       z     vdW  Elec       q    Type
REMARK                         _______ _______ _______ _____ _____    ______ ____
ROOT
ATOM      1  C   LIG    1       14.273  21.202 -10.929  0.00  0.00    +0.150 C 
ATOM      2  C   LIG    1       13.398  20.913 -12.236  0.00  0.00    +0.060 C 
ATOM      3  C   LIG    1       13.185  19.395 -12.306  0.00  0.00    +0.014 C 
ATOM      4  C   LIG    1       14.003  21.499 -13.598  0.00  0.00    +0.187 C 
ATOM      5  C   LIG    1       13.447  20.935 -14.998  0.00  0.00    +0.056 C 
ATOM      6  C   LIG    1       14.710  20.728 -15.908  0.00  0.00    +0.014 C 
ATOM      7  C   LIG    1       12.396  21.644 -15.981  0.00  0.00    +0.126 C 
ATOM      8  C   LIG    1       10.943  22.150 -15.681  0.00  0.00    +0.044 C 
ATOM      9  C   LIG    1       10.721  23.631 -16.049  0.00  0.00    +0.013 C 
ATOM     10  C   LIG    1       10.432  21.778 -14.297  0.00  0.00    +0.126 C 
ATOM     11  C   LIG    1        8.902  21.464 -14.157  0.00  0.00    +0.037 C 
ATOM     12  C   LIG    1        8.262  20.704 -15.322  0.00  0.00    +0.014 C 
ATOM     13  C   LIG    1        8.769  20.704 -12.843  0.00  0.00    -0.021 C 
ATOM     14  C   LIG    1        9.105  19.407 -12.702  0.00  0.00    -0.003 C 
ATOM     15  C   LIG    1        9.503  18.903 -11.413  0.00  0.00    +0.008 C 
ATOM     16  C   LIG    1       10.157  17.769 -11.070  0.00  0.00    +0.011 C 
ATOM     17  C   LIG    1       10.775  17.869  -9.707  0.00  0.00    +0.049 C 
ATOM     18  C   LIG    1       10.437  16.622 -12.036  0.00  0.00    +0.244 C 
ATOM     19  O   LIG    1       10.254  16.788 -13.246  0.00  0.00    -0.270 OA
ATOM     20  N   LIG    1       10.896  15.355 -11.700  0.00  0.00    -0.278 N 
ATOM     21  H   LIG    1       11.290  14.955 -12.558  0.00  0.00    +0.155 HD
ATOM     22  C   LIG    1       11.603  14.976 -10.536  0.00  0.00    +0.089 A 
ATOM     23  C   LIG    1       10.937  14.934  -9.307  0.00  0.00    +0.150 A 
ATOM     24  C   LIG    1       11.616  15.253  -8.113  0.00  0.00    +0.071 A 
ATOM     25  C   LIG    1       13.014  15.467  -8.220  0.00  0.00    +0.046 A 
ATOM     26  C   LIG    1       13.702  15.057  -9.391  0.00  0.00    +0.136 A 
ATOM     27  C   LIG    1       13.553  16.310  -7.245  0.00  0.00    +0.079 A 
ATOM     28  C   LIG    1       14.741  17.136  -7.335  0.00  0.00    +0.251 C 
ATOM     29  C   LIG    1       14.379  18.468  -6.692  0.00  0.00    +0.314 C 
ATOM     30  O   LIG    1       13.402  18.014  -5.683  0.00  0.00    -0.444 OA
ATOM     31  C   LIG    1       15.539  19.120  -5.965  0.00  0.00    +0.114 C 
ATOM     32  O   LIG    1       13.724  19.370  -7.604  0.00  0.00    -0.453 OA
ATOM     33  C   LIG    1       14.369  19.783  -8.748  0.00  0.00    +0.190 C 
ATOM     34  O   LIG    1       15.771  16.789  -7.860  0.00  0.00    -0.284 OA
ATOM     35  C   LIG    1       12.808  16.897  -6.237  0.00  0.00    +0.143 A 
ATOM     36  C   LIG    1       11.518  16.488  -5.963  0.00  0.00    +0.034 A 
ATOM     37  C   LIG    1       10.710  17.109  -4.864  0.00  0.00    +0.051 C 
ATOM     38  C   LIG    1       10.930  15.645  -6.919  0.00  0.00    +0.135 A 
ATOM     39  C   LIG    1       12.992  14.829 -10.567  0.00  0.00    +0.061 A 
ATOM     40  C   LIG    1       13.737  20.573  -9.633  0.00  0.00    +0.042 C 
ENDROOT
BRANCH   1  42
ATOM     41  C   LIG    1       13.353  23.354 -10.298  0.00  0.00    +0.194 C 
ATOM     42  O   LIG    1       14.493  22.599 -10.689  0.00  0.00    -0.375 OA
ENDBRANCH   1  42
BRANCH   7  43
ATOM     43  O   LIG    1       12.095  20.581 -16.952  0.00  0.00    -0.391 OA
ATOM     44  H   LIG    1       12.748  20.612 -17.668  0.00  0.00    +0.210 HD
ENDBRANCH   7  43
BRANCH  10  45
ATOM     45  O   LIG    1       10.781  22.838 -13.396  0.00  0.00    -0.391 OA
ATOM     46  H   LIG    1       10.439  22.601 -12.520  0.00  0.00    +0.210 HD
ENDBRANCH  10  45
BRANCH  26  47
ATOM     47  O   LIG    1       15.064  14.942  -9.454  0.00  0.00    -0.505 OA
ATOM     48  H   LIG    1       15.509  15.373  -8.695  0.00  0.00    +0.292 HD
ENDBRANCH  26  47
BRANCH  38  49
ATOM     49  O   LIG    1        9.589  15.384  -6.758  0.00  0.00    -0.506 OA
ATOM     50  H   LIG    1        9.263  14.976  -7.587  0.00  0.00    +0.292 HD
ENDBRANCH  38  49
BRANCH  23  51
ATOM     51  O   LIG    1        9.561  14.836  -9.307  0.00  0.00    -0.504 OA
ATOM     52  H   LIG    1        9.293  14.712 -10.242  0.00  0.00    +0.292 HD
ENDBRANCH  23  51
BRANCH  39  53
ATOM     53  C   LIG    1       13.746  14.600 -11.824  0.00  0.00    +0.143 C 
ATOM     54  N   LIG    1       13.232  13.883 -12.774  0.00  0.00    -0.192 NA
BRANCH  54  55
ATOM     55  N   LIG    1       14.036  13.719 -13.876  0.00  0.00    -0.253 N 
ATOM     56  C   LIG    1       15.011  12.593 -13.847  0.00  0.00    +0.141 C 
ATOM     57  C   LIG    1       14.322  11.213 -13.782  0.00  0.00    +0.105 C 
ATOM     58  N   LIG    1       13.385  10.950 -14.900  0.00  0.00    -0.296 NA
ATOM     59  C   LIG    1       12.538  12.141 -15.161  0.00  0.00    +0.105 C 
ATOM     60  C   LIG    1       13.264  13.508 -15.125  0.00  0.00    +0.141 C 
BRANCH  58  61
ATOM     61  C   LIG    1       12.549   9.760 -14.626  0.00  0.00    +0.057 C 
ATOM     62  C   LIG    1       11.606   9.369 -15.772  0.00  0.00    +0.019 C 
ATOM     63  C   LIG    1       11.248   7.922 -15.470  0.00  0.00    +0.002 C 
ATOM     64  C   LIG    1       12.548   7.317 -14.968  0.00  0.00    +0.002 C 
ATOM     65  C   LIG    1       13.340   8.466 -14.345  0.00  0.00    +0.019 C 
ENDBRANCH  58  61
ENDBRANCH  54  55
ENDBRANCH  39  53
BRANCH   4  66
ATOM     66  O   LIG    1       13.898  22.930 -13.624  0.00  0.00    -0.461 OA
BRANCH  66  67
ATOM     67  C   LIG    1       14.902  23.620 -14.233  0.00  0.00    +0.304 C 
ATOM     68  O   LIG    1       16.029  23.212 -14.478  0.00  0.00    -0.251 OA
ATOM     69  C   LIG    1       14.378  24.953 -14.671  0.00  0.00    +0.136 C 
ENDBRANCH  66  67
ENDBRANCH   4  66
TORSDOF 11
