REMARK  Name = *****
REMARK                            x       y       z     vdW  Elec       q    Type
REMARK                         _______ _______ _______ _____ _____    ______ ____
ROOT
ATOM      1  C   LIG    1        1.365   0.604  -1.245  0.00  0.00    +0.044 C 
ATOM      2  C   LIG    1        2.163  -0.207  -0.254  0.00  0.00    -0.050 C 
ATOM      3  C   LIG    1        2.785  -1.331  -0.671  0.00  0.00    +0.003 C 
ENDROOT
BRANCH   3   4
ATOM      4  C   LIG    1        3.594  -2.200   0.144  0.00  0.00    +0.001 C 
ATOM      5  C   LIG    1        4.536  -3.054  -0.305  0.00  0.00    +0.003 C 
BRANCH   5   6
ATOM      6  C   LIG    1        5.019  -3.167  -1.665  0.00  0.00    -0.052 C 
ATOM      7  C   LIG    1        4.918  -4.311  -2.374  0.00  0.00    +0.004 C 
ATOM      8  C   LIG    1        5.675  -1.939  -2.241  0.00  0.00    +0.043 C 
BRANCH   7   9
ATOM      9  C   LIG    1        4.322  -5.600  -1.914  0.00  0.00    +0.183 C 
BRANCH   9  10
ATOM     10  O   LIG    1        2.970  -5.643  -2.339  0.00  0.00    -0.391 OA
ATOM     11  H   LIG    1        2.547  -4.852  -1.959  0.00  0.00    +0.210 HD
ENDBRANCH   9  10
ENDBRANCH   7   9
ENDBRANCH   5   6
ENDBRANCH   3   4
BRANCH   2  12
ATOM     12  C   LIG    1        2.348   0.363   1.071  0.00  0.00    +0.003 C 
ATOM     13  C   LIG    1        1.441   0.582   2.045  0.00  0.00    +0.004 C 
BRANCH  13  14
ATOM     14  C   LIG    1        0.021   0.242   2.023  0.00  0.00    -0.043 C 
ATOM     15  C   LIG    1       -0.987   1.421   2.119  0.00  0.00    -0.010 C 
ATOM     16  C   LIG    1       -0.936   2.127   3.497  0.00  0.00    +0.016 C 
ATOM     17  C   LIG    1       -0.675   2.482   1.042  0.00  0.00    +0.016 C 
ATOM     18  C   LIG    1       -2.463   0.954   1.933  0.00  0.00    +0.011 C 
ATOM     19  C   LIG    1       -2.586  -0.257   1.025  0.00  0.00    +0.005 C 
ATOM     20  C   LIG    1       -1.815  -1.417   1.634  0.00  0.00    +0.031 C 
ATOM     21  C   LIG    1       -0.379  -1.050   1.899  0.00  0.00    -0.069 C 
ATOM     22  C   LIG    1        0.528  -2.252   1.966  0.00  0.00    +0.039 C 
ENDBRANCH  13  14
ENDBRANCH   2  12
TORSDOF 6
