REMARK  Name = *****
REMARK                            x       y       z     vdW  Elec       q    Type
REMARK                         _______ _______ _______ _____ _____    ______ ____
ROOT
ATOM      1  C   LIG    1        5.802  -0.190  -1.197  0.00  0.00    +0.093 A 
ATOM      2  C   LIG    1        6.849   0.660  -1.546  0.00  0.00    +0.060 A 
ATOM      3  N   LIG    1        7.941  -0.185  -1.720  0.00  0.00    -0.302 N 
ATOM      4  C   LIG    1        7.507  -1.473  -1.430  0.00  0.00    +0.139 A 
ATOM      5  C   LIG    1        8.458  -2.527  -1.525  0.00  0.00    +0.047 A 
ATOM      6  C   LIG    1        9.713  -2.265  -1.934  0.00  0.00    +0.008 A 
ATOM      7  C   LIG    1       10.135  -0.913  -2.289  0.00  0.00    -0.034 A 
ATOM      8  C   LIG    1       11.533  -0.735  -2.792  0.00  0.00    +0.045 C 
ATOM      9  C   LIG    1        9.244   0.089  -2.158  0.00  0.00    +0.096 A 
ATOM     10  N   LIG    1        6.228  -1.499  -1.142  0.00  0.00    -0.228 NA
ENDROOT
BRANCH   1  15
ATOM     11  C   LIG    1        0.214   0.987  -0.235  0.00  0.00    +0.044 C 
ATOM     12  C   LIG    1        1.661   0.684  -0.490  0.00  0.00    -0.050 A 
ATOM     13  C   LIG    1        2.642   1.635  -0.197  0.00  0.00    +0.004 A 
ATOM     14  C   LIG    1        3.996   1.352  -0.405  0.00  0.00    +0.010 A 
ATOM     15  C   LIG    1        4.398   0.138  -0.968  0.00  0.00    +0.002 A 
ATOM     16  C   LIG    1        3.406  -0.808  -1.276  0.00  0.00    +0.010 A 
ATOM     17  C   LIG    1        2.051  -0.540  -1.040  0.00  0.00    +0.004 A 
ENDBRANCH   1  15
BRANCH   2  18
ATOM     18  C   LIG    1        6.927   2.133  -1.827  0.00  0.00    +0.152 C 
BRANCH  18  19
ATOM     19  C   LIG    1        7.925   2.864  -0.918  0.00  0.00    +0.221 C 
ATOM     20  N   LIG    1        8.554   3.991  -1.456  0.00  0.00    -0.307 N 
ATOM     21  C   LIG    1        9.745   4.506  -0.797  0.00  0.00    +0.131 C 
ATOM     22  C   LIG    1        8.293   4.495  -2.795  0.00  0.00    +0.131 C 
ATOM     23  O   LIG    1        8.174   2.470   0.228  0.00  0.00    -0.275 OA
ENDBRANCH  18  19
ENDBRANCH   2  18
TORSDOF 3
