REMARK  Name = *****
REMARK                            x       y       z     vdW  Elec       q    Type
REMARK                         _______ _______ _______ _____ _____    ______ ____
ROOT
ATOM      1  C   LIG    1        4.618 -11.793   1.834  0.00  0.00    -0.027 C 
ATOM      2  C   LIG    1        4.018 -11.712   3.039  0.00  0.00    -0.031 C 
ENDROOT
BRANCH   1   3
ATOM      3  C   LIG    1        5.288 -10.783   0.929  0.00  0.00    +0.054 C 
BRANCH   3   5
ATOM      4  C   LIG    1        7.338 -12.021  -0.089  0.00  0.00    -0.027 C 
ATOM      5  C   LIG    1        6.752 -11.071   0.672  0.00  0.00    -0.027 C 
BRANCH   4   6
ATOM      6  C   LIG    1        6.731 -13.114  -0.925  0.00  0.00    +0.054 C 
BRANCH   6   8
ATOM      7  C   LIG    1        7.788 -12.459  -3.267  0.00  0.00    -0.031 C 
ATOM      8  C   LIG    1        7.255 -13.285  -2.345  0.00  0.00    -0.027 C 
BRANCH   7   9
ATOM      9  C   LIG    1        7.891 -10.975  -3.175  0.00  0.00    +0.027 C 
BRANCH   9  10
ATOM     10  C   LIG    1        8.438 -10.241  -4.410  0.00  0.00    +0.004 C 
BRANCH  10  11
ATOM     11  C   LIG    1        8.408  -8.705  -4.303  0.00  0.00    +0.000 C 
BRANCH  11  13
ATOM     12  C   LIG    1        6.245  -8.346  -2.896  0.00  0.00    +0.004 C 
ATOM     13  C   LIG    1        7.017  -8.068  -4.178  0.00  0.00    -0.003 C 
ENDBRANCH  11  13
ENDBRANCH  10  11
ENDBRANCH   9  10
ENDBRANCH   7   9
ENDBRANCH   6   8
ENDBRANCH   4   6
ENDBRANCH   3   5
ENDBRANCH   1   3
BRANCH   2  14
ATOM     14  C   LIG    1        3.846 -10.556   3.982  0.00  0.00    +0.027 C 
BRANCH  14  15
ATOM     15  C   LIG    1        4.896 -10.632   5.094  0.00  0.00    +0.004 C 
BRANCH  15  16
ATOM     16  C   LIG    1        4.901  -9.540   6.170  0.00  0.00    +0.000 C 
BRANCH  16  17
ATOM     17  C   LIG    1        5.286  -8.143   5.673  0.00  0.00    +0.001 C 
BRANCH  17  18
ATOM     18  C   LIG    1        4.272  -7.428   4.776  0.00  0.00    +0.011 C 
BRANCH  18  19
ATOM     19  C   LIG    1        4.735  -6.034   4.313  0.00  0.00    +0.120 C 
BRANCH  19  20
ATOM     20  C   LIG    1        4.803  -5.034   5.415  0.00  0.00    +0.305 C 
ATOM     21  O   LIG    1        5.549  -5.152   6.406  0.00  0.00    -0.251 OA
BRANCH  20  22
ATOM     22  O   LIG    1        4.040  -3.955   5.254  0.00  0.00    -0.481 OA
ATOM     23  H   LIG    1        3.520  -3.949   4.422  0.00  0.00    +0.295 HD
ENDBRANCH  20  22
ENDBRANCH  19  20
ENDBRANCH  18  19
ENDBRANCH  17  18
ENDBRANCH  16  17
ENDBRANCH  15  16
ENDBRANCH  14  15
ENDBRANCH   2  14
TORSDOF 16
