REMARK  Name = *****
REMARK                            x       y       z     vdW  Elec       q    Type
REMARK                         _______ _______ _______ _____ _____    ______ ____
ROOT
ATOM      1  C   LIG    1        2.405  -1.215  -0.646  0.00  0.00    +0.105 C 
ATOM      2  N   LIG    1        3.514  -1.435   0.357  0.00  0.00    -0.302 NA
ATOM      3  C   LIG    1        3.224  -0.355   1.401  0.00  0.00    +0.065 C 
ATOM      4  C   LIG    1        3.702  -1.505   2.078  0.00  0.00    +0.021 C 
ATOM      5  C   LIG    1        5.378  -1.361   1.134  0.00  0.00    +0.049 C 
ATOM      6  C   LIG    1        5.414  -1.660  -0.703  0.00  0.00    +0.250 C 
ATOM      7  O   LIG    1        6.830  -1.378  -0.915  0.00  0.00    -0.476 OA
ATOM      8  C   LIG    1        7.015  -0.243  -0.093  0.00  0.00    +0.167 A 
ATOM      9  C   LIG    1        7.821   0.831  -0.372  0.00  0.00    +0.159 A 
ATOM     10  C   LIG    1        7.487   2.055   0.218  0.00  0.00    +0.049 A 
ATOM     11  C   LIG    1        6.285   2.191   0.966  0.00  0.00    +0.008 A 
ATOM     12  C   LIG    1        5.514   1.065   1.252  0.00  0.00    -0.038 A 
ATOM     13  C   LIG    1        4.261  -3.013  -1.306  0.00  0.00    +0.174 C 
ATOM     14  O   LIG    1        4.441  -3.549  -2.403  0.00  0.00    -0.293 OA
ATOM     15  C   LIG    1        2.893  -3.646  -0.175  0.00  0.00    +0.078 C 
ATOM     16  C   LIG    1        6.082  -0.129   0.930  0.00  0.00    +0.012 A 
ATOM     17  C   LIG    1        5.963  -2.541   1.647  0.00  0.00    +0.031 C 
ATOM     18  C   LIG    1        2.485  -2.909   1.518  0.00  0.00    +0.014 C 
ATOM     19  C   LIG    1        4.069   0.983   1.713  0.00  0.00    +0.054 C 
ATOM     20  C   LIG    1        4.654  -2.942   0.987  0.00  0.00    +0.085 C 
ENDROOT
BRANCH   9  21
ATOM     21  O   LIG    1        8.889   0.737  -1.204  0.00  0.00    -0.503 OA
ATOM     22  H   LIG    1        8.992  -0.213  -1.405  0.00  0.00    +0.292 HD
ENDBRANCH   9  21
TORSDOF 1
