REMARK  Name = *****
REMARK                            x       y       z     vdW  Elec       q    Type
REMARK                         _______ _______ _______ _____ _____    ______ ____
ROOT
ATOM      1  C   LIG    1        2.940  -0.269  -1.111  0.00  0.00    -0.027 A 
ATOM      2  C   LIG    1        3.443   0.757  -1.932  0.00  0.00    +0.010 A 
ATOM      3  C   LIG    1        3.781   0.546  -3.291  0.00  0.00    -0.027 A 
ATOM      4  C   LIG    1        3.702  -0.775  -3.789  0.00  0.00    +0.010 A 
ATOM      5  C   LIG    1        3.232  -1.834  -2.992  0.00  0.00    -0.025 A 
ATOM      6  C   LIG    1        2.807  -1.540  -1.690  0.00  0.00    +0.010 A 
ENDROOT
BRANCH   1   8
ATOM      7  C   LIG    1        1.427   1.039   0.450  0.00  0.00    +0.032 C 
ATOM      8  C   LIG    1        2.538  -0.025   0.363  0.00  0.00    +0.077 C 
ATOM      9  C   LIG    1        3.749   0.455   1.188  0.00  0.00    +0.032 C 
BRANCH   8  10
ATOM     10  C   LIG    1        2.017  -1.248   1.034  0.00  0.00    +0.073 C 
ATOM     11  N   LIG    1        1.597  -2.210   1.539  0.00  0.00    -0.196 NA
ENDBRANCH   8  10
ENDBRANCH   1   8
BRANCH   3  12
ATOM     12  C   LIG    1        4.225   1.725  -4.196  0.00  0.00    +0.077 C 
ATOM     13  C   LIG    1        5.755   1.887  -4.121  0.00  0.00    +0.032 C 
ATOM     14  C   LIG    1        3.567   3.058  -3.763  0.00  0.00    +0.032 C 
BRANCH  12  15
ATOM     15  C   LIG    1        3.847   1.514  -5.619  0.00  0.00    +0.073 C 
ATOM     16  N   LIG    1        3.563   1.354  -6.740  0.00  0.00    -0.196 NA
ENDBRANCH  12  15
ENDBRANCH   3  12
BRANCH   5  17
ATOM     17  C   LIG    1        3.102  -3.243  -3.547  0.00  0.00    +0.180 C 
BRANCH  17  18
ATOM     18  N   LIG    1        3.366  -4.294  -2.565  0.00  0.00    -0.248 N 
ATOM     19  N   LIG    1        4.611  -4.787  -2.395  0.00  0.00    -0.158 NA
ATOM     20  C   LIG    1        4.411  -5.684  -1.425  0.00  0.00    +0.244 A 
ATOM     21  N   LIG    1        3.121  -5.804  -0.999  0.00  0.00    -0.223 NA
ATOM     22  C   LIG    1        2.481  -4.937  -1.749  0.00  0.00    +0.219 A 
ENDBRANCH  17  18
ENDBRANCH   5  17
TORSDOF 6
