REMARK  Name = *****
REMARK                            x       y       z     vdW  Elec       q    Type
REMARK                         _______ _______ _______ _____ _____    ______ ____
ROOT
ATOM      1  C   LIG    1        5.598  -1.615  -0.550  0.00  0.00    +0.120 C 
ENDROOT
BRANCH   1   2
ATOM      2  C   LIG    1        6.151  -2.996  -0.844  0.00  0.00    -0.033 A 
ATOM      3  C   LIG    1        6.817  -3.724   0.154  0.00  0.00    +0.005 A 
ATOM      4  C   LIG    1        7.258  -5.027  -0.090  0.00  0.00    +0.000 A 
ATOM      5  C   LIG    1        7.060  -5.608  -1.341  0.00  0.00    +0.000 A 
ATOM      6  C   LIG    1        6.440  -4.880  -2.355  0.00  0.00    +0.000 A 
ATOM      7  C   LIG    1        5.987  -3.581  -2.109  0.00  0.00    +0.005 A 
ENDBRANCH   1   2
BRANCH   1   8
ATOM      8  N   LIG    1        4.130  -1.521  -0.672  0.00  0.00    -0.290 NA
ATOM      9  C   LIG    1        3.690  -0.130  -0.537  0.00  0.00    +0.106 C 
BRANCH   8  10
ATOM     10  C   LIG    1        3.415  -2.394   0.279  0.00  0.00    +0.173 C 
BRANCH  10  12
ATOM     11  C   LIG    1        3.808  -1.662   2.817  0.00  0.00    +0.005 C 
ATOM     12  C   LIG    1        3.623  -2.031   1.687  0.00  0.00    -0.090 C 
ENDBRANCH  10  12
ENDBRANCH   8  10
ENDBRANCH   1   8
TORSDOF 4
