REMARK  Name = *****
REMARK                            x       y       z     vdW  Elec       q    Type
REMARK                         _______ _______ _______ _____ _____    ______ ____
ROOT
ATOM      1  C   LIG    1        4.567   1.159  -0.289  0.00  0.00    +0.080 C 
ATOM      2  C   LIG    1        5.440  -0.027  -0.729  0.00  0.00    +0.097 C 
ATOM      3  C   LIG    1        6.950   0.321  -0.808  0.00  0.00    +0.065 C 
ATOM      4  C   LIG    1        7.390   1.594  -0.640  0.00  0.00    +0.016 C 
ATOM      5  C   LIG    1        8.815   2.073  -0.789  0.00  0.00    +0.061 C 
ATOM      6  N   LIG    1        6.487   2.576  -0.294  0.00  0.00    -0.309 N 
ATOM      7  H   LIG    1        6.830   3.533  -0.213  0.00  0.00    +0.152 HD
ATOM      8  C   LIG    1        5.137   2.369  -0.111  0.00  0.00    +0.120 C 
ENDROOT
BRANCH   2   9
ATOM      9  C   LIG    1        4.961  -0.610  -2.078  0.00  0.00    -0.029 A 
ATOM     10  C   LIG    1        4.498  -1.939  -2.155  0.00  0.00    +0.088 A 
ATOM     11  C   LIG    1        4.109  -2.482  -3.391  0.00  0.00    +0.273 A 
ATOM     12  C   LIG    1        4.130  -1.699  -4.552  0.00  0.00    +0.084 A 
ATOM     13  C   LIG    1        4.551  -0.372  -4.474  0.00  0.00    +0.007 A 
ATOM     14  C   LIG    1        4.971   0.165  -3.253  0.00  0.00    +0.005 A 
BRANCH  11  15
ATOM     15  N   LIG    1        3.720  -3.897  -3.484  0.00  0.00    +0.080 N 
ATOM     16  O   LIG    1        3.688  -4.561  -2.437  0.00  0.00    -0.576 OA
ATOM     17  O   LIG    1        3.467  -4.353  -4.609  0.00  0.00    +0.041 OA
ENDBRANCH  11  15
ENDBRANCH   2   9
BRANCH   1  18
ATOM     18  C   LIG    1        3.104   0.929  -0.156  0.00  0.00    +0.338 C 
ATOM     19  O   LIG    1        2.532  -0.069  -0.596  0.00  0.00    -0.245 OA
BRANCH  18  21
ATOM     20  C   LIG    1        1.083   1.848   0.693  0.00  0.00    +0.280 C 
ATOM     21  O   LIG    1        2.506   1.894   0.552  0.00  0.00    -0.465 OA
ENDBRANCH  18  21
ENDBRANCH   1  18
BRANCH   3  22
ATOM     22  C   LIG    1        7.850  -0.845  -1.015  0.00  0.00    +0.338 C 
ATOM     23  O   LIG    1        7.523  -1.986  -0.711  0.00  0.00    -0.245 OA
BRANCH  22  24
ATOM     24  O   LIG    1        9.022  -0.490  -1.590  0.00  0.00    -0.459 OA
BRANCH  24  25
ATOM     25  C   LIG    1        9.954  -1.543  -1.903  0.00  0.00    +0.171 C 
ATOM     26  C   LIG    1       11.285  -0.893  -2.281  0.00  0.00    +0.051 C 
ATOM     27  C   LIG    1        9.416  -2.349  -3.079  0.00  0.00    +0.051 C 
ENDBRANCH  24  25
ENDBRANCH  22  24
ENDBRANCH   3  22
BRANCH   8  28
ATOM     28  C   LIG    1        4.415   3.573  -0.024  0.00  0.00    +0.115 C 
ATOM     29  N   LIG    1        3.825   4.558   0.047  0.00  0.00    -0.190 NA
ENDBRANCH   8  28
TORSDOF 8
