REMARK  Name = *****
REMARK                            x       y       z     vdW  Elec       q    Type
REMARK                         _______ _______ _______ _____ _____    ______ ____
ROOT
ATOM      1  C   LIG    1        2.240   1.488  -0.282  0.00  0.00    +0.105 C 
ATOM      2  N   LIG    1        3.386   1.061  -1.165  0.00  0.00    -0.302 NA
ATOM      3  C   LIG    1        3.119  -0.429  -1.276  0.00  0.00    +0.065 C 
ATOM      4  C   LIG    1        3.969  -1.621  -0.707  0.00  0.00    +0.054 C 
ATOM      5  C   LIG    1        5.394  -1.399  -0.253  0.00  0.00    -0.042 A 
ATOM      6  C   LIG    1        6.054  -0.253  -0.657  0.00  0.00    -0.034 A 
ATOM      7  C   LIG    1        5.306   0.696  -1.512  0.00  0.00    +0.002 C 
ATOM      8  C   LIG    1        5.139   2.277  -0.476  0.00  0.00    +0.012 C 
ATOM      9  C   LIG    1        3.999   3.525  -1.001  0.00  0.00    +0.001 C 
ATOM     10  C   LIG    1        2.720   3.198  -2.240  0.00  0.00    +0.000 C 
ATOM     11  C   LIG    1        2.393   1.515  -2.984  0.00  0.00    +0.006 C 
ATOM     12  C   LIG    1        5.896   1.167  -2.713  0.00  0.00    +0.027 C 
ATOM     13  C   LIG    1        7.309   0.083  -0.130  0.00  0.00    +0.049 A 
ATOM     14  C   LIG    1        7.960  -0.787   0.724  0.00  0.00    +0.117 A 
ATOM     15  C   LIG    1        7.373  -2.001   1.051  0.00  0.00    +0.045 A 
ATOM     16  C   LIG    1        6.089  -2.304   0.567  0.00  0.00    +0.007 A 
ATOM     17  C   LIG    1        3.661   0.100  -2.460  0.00  0.00    +0.017 C 
ATOM     18  C   LIG    1        4.535   1.837  -2.578  0.00  0.00    +0.085 C 
ENDROOT
BRANCH  14  19
ATOM     19  O   LIG    1        9.172  -0.400   1.213  0.00  0.00    -0.507 OA
ATOM     20  H   LIG    1        9.536  -1.119   1.752  0.00  0.00    +0.292 HD
ENDBRANCH  14  19
TORSDOF 1
