REMARK  Name = *****
REMARK                            x       y       z     vdW  Elec       q    Type
REMARK                         _______ _______ _______ _____ _____    ______ ____
ROOT
ATOM      1  C   LIG    1        4.305   0.435  -1.065  0.00  0.00    +0.065 C 
ATOM      2  C   LIG    1        5.224   0.099   0.118  0.00  0.00    +0.098 C 
ATOM      3  C   LIG    1        6.717   0.137  -0.233  0.00  0.00    +0.065 C 
ATOM      4  C   LIG    1        7.103   0.089  -1.538  0.00  0.00    +0.016 C 
ATOM      5  C   LIG    1        8.525  -0.024  -2.021  0.00  0.00    +0.061 C 
ATOM      6  N   LIG    1        6.143   0.143  -2.530  0.00  0.00    -0.321 N 
ATOM      7  H   LIG    1        6.472   0.120  -3.492  0.00  0.00    +0.152 HD
ATOM      8  C   LIG    1        4.799   0.415  -2.327  0.00  0.00    +0.016 C 
ATOM      9  C   LIG    1        4.008   0.665  -3.587  0.00  0.00    +0.061 C 
ENDROOT
BRANCH   2  10
ATOM     10  C   LIG    1        4.869  -1.261   0.725  0.00  0.00    -0.004 A 
ATOM     11  C   LIG    1        4.967  -2.518   0.070  0.00  0.00    +0.138 A 
ATOM     12  C   LIG    1        4.667  -3.782   0.737  0.00  0.00    +0.135 A 
ATOM     13  N   LIG    1        4.869  -4.780  -0.132  0.00  0.00    -0.049 NA
ATOM     14  O   LIG    1        5.268  -4.177  -1.310  0.00  0.00    -0.242 OA
ATOM     15  C   LIG    1        4.247  -3.856   2.075  0.00  0.00    +0.033 A 
ATOM     16  C   LIG    1        4.121  -2.611   2.712  0.00  0.00    +0.003 A 
ATOM     17  N   LIG    1        5.332  -2.804  -1.187  0.00  0.00    -0.049 NA
ATOM     18  C   LIG    1        4.418  -1.377   2.070  0.00  0.00    +0.007 A 
ENDBRANCH   2  10
BRANCH   1  19
ATOM     19  C   LIG    1        2.892   0.844  -0.771  0.00  0.00    +0.337 C 
ATOM     20  O   LIG    1        2.056   1.177  -1.601  0.00  0.00    -0.245 OA
BRANCH  19  22
ATOM     21  C   LIG    1        1.411   1.258   1.045  0.00  0.00    +0.280 C 
ATOM     22  O   LIG    1        2.690   0.825   0.576  0.00  0.00    -0.465 OA
ENDBRANCH  19  22
ENDBRANCH   1  19
BRANCH   3  23
ATOM     23  C   LIG    1        7.639   0.236   0.940  0.00  0.00    +0.338 C 
ATOM     24  O   LIG    1        7.288   0.608   2.055  0.00  0.00    -0.245 OA
BRANCH  23  25
ATOM     25  O   LIG    1        8.881  -0.153   0.592  0.00  0.00    -0.459 OA
BRANCH  25  26
ATOM     26  C   LIG    1        9.910  -0.238   1.593  0.00  0.00    +0.171 C 
ATOM     27  C   LIG    1       11.241  -0.270   0.845  0.00  0.00    +0.051 C 
ATOM     28  C   LIG    1        9.715  -1.526   2.381  0.00  0.00    +0.051 C 
ENDBRANCH  25  26
ENDBRANCH  23  25
ENDBRANCH   3  23
TORSDOF 6
