REMARK  Name = *****
REMARK                            x       y       z     vdW  Elec       q    Type
REMARK                         _______ _______ _______ _____ _____    ______ ____
ROOT
ATOM      1  C   LIG    1        4.985   2.298  -0.700  0.00  0.00    +0.092 A 
ATOM      2  C   LIG    1        4.774   3.679  -0.438  0.00  0.00    +0.044 A 
ATOM      3  I   LIG    1        3.424   4.184   1.177  0.00  0.00    -0.041 I 
ATOM      4  C   LIG    1        5.419   4.701  -1.188  0.00  0.00    -0.018 A 
ATOM      5  C   LIG    1        6.349   4.287  -2.166  0.00  0.00    +0.019 A 
ATOM      6  I   LIG    1        7.423   5.619  -3.405  0.00  0.00    -0.043 I 
ATOM      7  C   LIG    1        6.614   2.929  -2.390  0.00  0.00    +0.031 A 
ATOM      8  C   LIG    1        5.934   1.946  -1.670  0.00  0.00    +0.041 A 
ATOM      9  I   LIG    1        6.387  -0.058  -2.122  0.00  0.00    -0.042 I 
ENDROOT
BRANCH   1  11
ATOM     10  C   LIG    1        3.150   0.937  -0.586  0.00  0.00    +0.184 C 
ATOM     11  N   LIG    1        4.242   1.317  -0.006  0.00  0.00    -0.238 NA
BRANCH  10  13
ATOM     12  C   LIG    1        0.817   0.229  -0.507  0.00  0.00    +0.130 C 
ATOM     13  N   LIG    1        2.197   0.094  -0.058  0.00  0.00    -0.327 N 
ATOM     14  C   LIG    1        2.367  -0.381   1.310  0.00  0.00    +0.130 C 
ENDBRANCH  10  13
ENDBRANCH   1  11
BRANCH   4  15
ATOM     15  C   LIG    1        5.038   6.163  -1.020  0.00  0.00    +0.048 C 
BRANCH  15  16
ATOM     16  C   LIG    1        3.808   6.494  -1.864  0.00  0.00    +0.125 C 
BRANCH  16  17
ATOM     17  C   LIG    1        3.350   7.904  -1.628  0.00  0.00    +0.305 C 
ATOM     18  O   LIG    1        3.767   8.870  -2.258  0.00  0.00    -0.251 OA
BRANCH  17  19
ATOM     19  O   LIG    1        2.441   8.025  -0.638  0.00  0.00    -0.481 OA
ATOM     20  H   LIG    1        2.192   7.183  -0.208  0.00  0.00    +0.295 HD
ENDBRANCH  17  19
ENDBRANCH  16  17
ENDBRANCH  15  16
ENDBRANCH   4  15
TORSDOF 6
