REMARK  Name = *****
REMARK                            x       y       z     vdW  Elec       q    Type
REMARK                         _______ _______ _______ _____ _____    ______ ____
ROOT
ATOM      1  C   LIG    1        5.418   2.881   0.300  0.00  0.00    +0.186 A 
ATOM      2  C   LIG    1        6.727   2.701   0.719  0.00  0.00    +0.171 A 
ATOM      3  N   LIG    1        7.319   3.930   1.015  0.00  0.00    -0.229 NA
ATOM      4  C   LIG    1        6.395   4.826   0.764  0.00  0.00    +0.199 A 
ATOM      5  N   LIG    1        5.245   4.246   0.319  0.00  0.00    -0.328 N 
ATOM      6  H   LIG    1        4.390   4.713   0.055  0.00  0.00    +0.168 HD
ENDROOT
BRANCH   2   7
ATOM      7  C   LIG    1        7.441   1.436   0.862  0.00  0.00    +0.264 C 
ATOM      8  O   LIG    1        6.987   0.330   0.597  0.00  0.00    -0.269 OA
ATOM      9  N   LIG    1        8.716   1.590   1.333  0.00  0.00    -0.324 N 
ATOM     10  H   LIG    1        9.306   0.781   1.445  0.00  0.00    +0.145 HD
ATOM     11  H   LIG    1        9.062   2.523   1.522  0.00  0.00    +0.145 HD
ENDBRANCH   2   7
BRANCH   1  13
ATOM     12  N   LIG    1        3.272   2.447   0.070  0.00  0.00    -0.077 NA
ATOM     13  N   LIG    1        4.437   2.030  -0.090  0.00  0.00    -0.113 NA
BRANCH  12  15
ATOM     14  C   LIG    1        0.958   1.943   0.051  0.00  0.00    +0.153 C 
ATOM     15  N   LIG    1        2.306   1.552  -0.322  0.00  0.00    -0.243 N 
ATOM     16  C   LIG    1        2.596   0.122  -0.326  0.00  0.00    +0.153 C 
ENDBRANCH  12  15
ENDBRANCH   1  13
TORSDOF 3
