REMARK  Name = *****
REMARK                            x       y       z     vdW  Elec       q    Type
REMARK                         _______ _______ _______ _____ _____    ______ ____
ROOT
ATOM      1  C   LIG    1        1.149   0.632   3.391  0.00  0.00    +0.078 C 
ATOM      2  C   LIG    1        2.883   0.997   3.590  0.00  0.00    +0.142 C 
ATOM      3  O   LIG    1        3.457   0.452   4.558  0.00  0.00    -0.297 OA
ATOM      4  C   LIG    1        3.813   1.850   2.676  0.00  0.00    +0.106 C 
ATOM      5  C   LIG    1        3.787   1.823   1.134  0.00  0.00    +0.128 C 
ATOM      6  C   LIG    1        3.341   3.158   0.473  0.00  0.00    +0.060 C 
ATOM      7  C   LIG    1        4.498   4.136   0.240  0.00  0.00    +0.014 C 
ATOM      8  C   LIG    1        2.414   2.970  -0.796  0.00  0.00    +0.207 C 
ATOM      9  O   LIG    1        1.238   2.176  -0.431  0.00  0.00    -0.455 OA
ATOM     10  C   LIG    1        0.447   2.763   0.535  0.00  0.00    +0.328 C 
ATOM     11  O   LIG    1        0.326   3.979   0.618  0.00  0.00    -0.249 OA
ATOM     12  C   LIG    1        0.355   1.814   1.776  0.00  0.00    +0.185 C 
ATOM     13  N   LIG    1       -0.489   0.155   2.070  0.00  0.00    -0.281 N 
ATOM     14  C   LIG    1       -0.626  -0.657   3.744  0.00  0.00    +0.109 C 
ATOM     15  C   LIG    1       -0.127   0.338   5.309  0.00  0.00    +0.019 C 
ATOM     16  C   LIG    1        0.933   1.908   5.098  0.00  0.00    +0.004 C 
ATOM     17  C   LIG    1       -1.644  -0.149   1.373  0.00  0.00    +0.288 C 
ATOM     18  O   LIG    1       -2.220  -1.223   1.347  0.00  0.00    -0.267 OA
ATOM     19  C   LIG    1       -2.361   1.095   1.043  0.00  0.00    +0.276 C 
ATOM     20  O   LIG    1       -2.340   1.511  -0.112  0.00  0.00    -0.281 OA
ATOM     21  C   LIG    1       -3.029   1.793   2.243  0.00  0.00    +0.240 C 
ATOM     22  C   LIG    1       -3.390   1.139   4.069  0.00  0.00    +0.056 C 
ATOM     23  C   LIG    1       -4.607   0.185   4.057  0.00  0.00    +0.013 C 
ATOM     24  C   LIG    1       -3.554   2.463   5.507  0.00  0.00    +0.043 C 
ATOM     25  C   LIG    1       -3.158   4.338   5.179  0.00  0.00    +0.150 C 
ATOM     26  C   LIG    1       -2.538   4.803   3.341  0.00  0.00    +0.179 C 
ATOM     27  C   LIG    1       -3.452   5.849   2.635  0.00  0.00    +0.149 C 
ATOM     28  C   LIG    1       -4.904   5.660   3.048  0.00  0.00    +0.038 C 
ATOM     29  C   LIG    1       -5.143   4.282   3.681  0.00  0.00    -0.008 C 
ATOM     30  C   LIG    1       -6.382   3.658   2.963  0.00  0.00    +0.008 C 
ATOM     31  C   LIG    1       -3.738   3.205   3.569  0.00  0.00    +0.033 C 
ATOM     32  C   LIG    1       -1.734   2.803   4.073  0.00  0.00    -0.076 C 
ATOM     33  C   LIG    1       -0.847   3.842   5.087  0.00  0.00    +0.038 C 
ATOM     34  O   LIG    1       -2.245   3.442   2.112  0.00  0.00    -0.334 OA
ATOM     35  C   LIG    1        1.036   2.772   3.329  0.00  0.00    +0.034 C 
ATOM     36  C   LIG    1       -0.687   1.642   3.643  0.00  0.00    -0.017 C 
ENDROOT
BRANCH   8  37
ATOM     37  C   LIG    1        3.067   2.344  -2.037  0.00  0.00    -0.036 C 
ATOM     38  C   LIG    1        3.658   3.120  -2.978  0.00  0.00    -0.021 C 
ATOM     39  C   LIG    1        2.929   0.851  -2.189  0.00  0.00    +0.042 C 
BRANCH  38  40
ATOM     40  C   LIG    1        4.302   2.680  -4.290  0.00  0.00    +0.014 C 
ATOM     41  C   LIG    1        3.382   1.907  -5.279  0.00  0.00    +0.040 C 
ATOM     42  C   LIG    1        2.393   2.805  -6.044  0.00  0.00    +0.136 C 
ATOM     43  C   LIG    1        3.247   3.814  -6.833  0.00  0.00    +0.109 C 
ATOM     44 CL   LIG    1        2.322   4.762  -8.031  0.00  0.00    -0.119 Cl
ATOM     45  C   LIG    1        4.019   4.716  -5.874  0.00  0.00    +0.022 C 
ATOM     46  C   LIG    1        4.976   3.874  -5.019  0.00  0.00    +0.009 C 
BRANCH  42  47
ATOM     47  O   LIG    1        1.520   3.351  -5.050  0.00  0.00    -0.378 OA
ATOM     48  C   LIG    1        0.521   4.240  -5.513  0.00  0.00    +0.194 C 
ENDBRANCH  42  47
ENDBRANCH  38  40
ENDBRANCH   8  37
BRANCH   1  50
ATOM     49  C   LIG    1        3.027  -1.340   2.174  0.00  0.00    +0.005 C 
ATOM     50  C   LIG    1        1.632  -0.705   2.160  0.00  0.00    +0.011 C 
ENDBRANCH   1  50
BRANCH   5  51
ATOM     51  O   LIG    1        5.092   1.455   0.670  0.00  0.00    -0.391 OA
ATOM     52  H   LIG    1        5.749   2.058   1.062  0.00  0.00    +0.210 HD
ENDBRANCH   5  51
BRANCH  27  53
ATOM     53  O   LIG    1       -3.394   5.782   1.199  0.00  0.00    -0.377 OA
ATOM     54  C   LIG    1       -2.106   6.029   0.648  0.00  0.00    +0.194 C 
ENDBRANCH  27  53
BRANCH  25  55
ATOM     55  O   LIG    1       -4.099   5.309   5.726  0.00  0.00    -0.377 OA
ATOM     56  C   LIG    1       -4.240   5.262   7.145  0.00  0.00    +0.194 C 
ENDBRANCH  25  55
BRANCH  21  57
ATOM     57  O   LIG    1       -4.357   1.802   1.549  0.00  0.00    -0.358 OA
ATOM     58  H   LIG    1       -4.193   2.189   0.662  0.00  0.00    +0.213 HD
ENDBRANCH  21  57
TORSDOF 8
