REMARK  Name = *****
REMARK                            x       y       z     vdW  Elec       q    Type
REMARK                         _______ _______ _______ _____ _____    ______ ____
ROOT
ATOM      1  C   LIG    1        9.401   3.460   2.478  0.00  0.00    +0.170 C 
ENDROOT
BRANCH   1   2
ATOM      2  C   LIG    1       10.826   3.101   2.068  0.00  0.00    +0.001 A 
ATOM      3  C   LIG    1       11.210   2.876   0.734  0.00  0.00    +0.048 A 
ATOM      4 CL   LIG    1       10.093   3.014  -0.576  0.00  0.00    -0.083 Cl
ATOM      5  C   LIG    1       12.533   2.547   0.415  0.00  0.00    +0.040 A 
ATOM      6  C   LIG    1       13.487   2.452   1.424  0.00  0.00    +0.042 A 
ATOM      7 CL   LIG    1       15.118   2.071   1.034  0.00  0.00    -0.084 Cl
ATOM      8  C   LIG    1       13.133   2.673   2.749  0.00  0.00    +0.020 A 
ATOM      9  C   LIG    1       11.813   2.987   3.066  0.00  0.00    +0.009 A 
ENDBRANCH   1   2
BRANCH   1  10
ATOM     10  O   LIG    1        9.382   4.438   3.555  0.00  0.00    -0.365 OA
BRANCH  10  11
ATOM     11  C   LIG    1        9.793   5.738   3.083  0.00  0.00    +0.197 C 
BRANCH  11  17
ATOM     12 CL   LIG    1       10.832   9.975   7.262  0.00  0.00    -0.084 Cl
ATOM     13  C   LIG    1       10.426   8.780   6.092  0.00  0.00    +0.042 A 
ATOM     14  C   LIG    1       10.128   9.161   4.789  0.00  0.00    +0.040 A 
ATOM     15  C   LIG    1        9.858   8.179   3.828  0.00  0.00    +0.048 A 
ATOM     16 CL   LIG    1        9.536   8.729   2.219  0.00  0.00    -0.083 Cl
ATOM     17  C   LIG    1        9.878   6.806   4.157  0.00  0.00    -0.004 A 
ATOM     18  C   LIG    1       10.152   6.454   5.487  0.00  0.00    +0.009 A 
ATOM     19  C   LIG    1       10.424   7.434   6.448  0.00  0.00    +0.020 A 
ENDBRANCH  11  17
ENDBRANCH  10  11
ENDBRANCH   1  10
BRANCH   1  20
ATOM     20  C   LIG    1        8.564   2.209   2.841  0.00  0.00    +0.159 C 
BRANCH  20  21
ATOM     21  N   LIG    1        9.108   1.349   3.877  0.00  0.00    -0.334 N 
ATOM     22  C   LIG    1        9.332   1.700   5.177  0.00  0.00    +0.199 A 
ATOM     23  N   LIG    1        9.816   0.683   5.868  0.00  0.00    -0.244 NA
ATOM     24  C   LIG    1        9.883  -0.357   4.983  0.00  0.00    +0.130 A 
ATOM     25  C   LIG    1        9.451   0.033   3.733  0.00  0.00    +0.107 A 
ENDBRANCH  20  21
ENDBRANCH   1  20
TORSDOF 6
