REMARK  Name = *****
REMARK                            x       y       z     vdW  Elec       q    Type
REMARK                         _______ _______ _______ _____ _____    ______ ____
ROOT
ATOM      1  C   LIG    1        4.677  -0.900   0.640  0.00  0.00    +0.218 C 
ATOM      2  C   LIG    1        3.167  -0.839   0.404  0.00  0.00    +0.058 C 
ENDROOT
BRANCH   1   3
ATOM      3  O   LIG    1        5.188   0.441   0.819  0.00  0.00    -0.456 OA
BRANCH   3   5
ATOM      4  C   LIG    1        5.400   2.550   1.809  0.00  0.00    +0.136 C 
ATOM      5  C   LIG    1        4.889   1.144   1.947  0.00  0.00    +0.304 C 
ATOM      6  O   LIG    1        4.376   0.668   2.943  0.00  0.00    -0.251 OA
ENDBRANCH   3   5
ENDBRANCH   1   3
BRANCH   1   7
ATOM      7  C   LIG    1        5.053  -1.938   1.734  0.00  0.00    +0.177 C 
BRANCH   7   8
ATOM      8  N   LIG    1        6.576  -2.232   1.887  0.00  0.00    +0.239 N 
ATOM      9  C   LIG    1        7.343  -1.003   2.350  0.00  0.00    +0.192 C 
ATOM     10  C   LIG    1        7.188  -2.759   0.597  0.00  0.00    +0.192 C 
ATOM     11  C   LIG    1        6.742  -3.308   2.967  0.00  0.00    +0.192 C 
ENDBRANCH   7   8
ENDBRANCH   1   7
TORSDOF 4
