REMARK  Name = *****
REMARK                            x       y       z     vdW  Elec       q    Type
REMARK                         _______ _______ _______ _____ _____    ______ ____
ROOT
ATOM      1  N   LIG    1        2.899   2.030   0.631  0.00  0.00    -0.179 NA
ATOM      2  C   LIG    1        1.739   2.229   1.191  0.00  0.00    +0.177 C 
ENDROOT
BRANCH   1   5
ATOM      3  O   LIG    1        1.420   0.254  -1.148  0.00  0.00    -0.224 OA
ATOM      4  C   LIG    1        2.547   0.035  -0.719  0.00  0.00    +0.423 C 
ATOM      5  N   LIG    1        3.247   0.758   0.257  0.00  0.00    -0.155 N 
ATOM      6  C   LIG    1        4.627   0.429   0.118  0.00  0.00    +0.179 C 
ATOM      7  C   LIG    1        4.552  -0.970  -0.432  0.00  0.00    +0.255 C 
ATOM      8  O   LIG    1        3.338  -0.985  -1.191  0.00  0.00    -0.448 OA
ENDBRANCH   1   5
BRANCH   2   9
ATOM      9  C   LIG    1        0.777   1.262   1.655  0.00  0.00    +0.154 A 
ATOM     10  O   LIG    1        1.199   0.024   2.067  0.00  0.00    -0.399 OA
ATOM     11  C   LIG    1        0.081  -0.673   2.392  0.00  0.00    +0.438 A 
ATOM     12  C   LIG    1       -1.053   0.088   2.247  0.00  0.00    +0.132 A 
ATOM     13  C   LIG    1       -0.598   1.354   1.797  0.00  0.00    +0.058 A 
BRANCH  11  14
ATOM     14  N   LIG    1        0.273  -2.033   2.785  0.00  0.00    +0.119 N 
ATOM     15  O   LIG    1        1.435  -2.441   2.909  0.00  0.00    -0.574 OA
ATOM     16  O   LIG    1       -0.754  -2.696   2.983  0.00  0.00    +0.045 OA
ENDBRANCH  11  14
ENDBRANCH   2   9
TORSDOF 3
