REMARK  Name = *****
REMARK                            x       y       z     vdW  Elec       q    Type
REMARK                         _______ _______ _______ _____ _____    ______ ____
ROOT
ATOM      1  C   LIG    1        5.452   4.058  -2.168  0.00  0.00    +0.132 A 
ATOM      2  C   LIG    1        5.201   3.959  -3.531  0.00  0.00    +0.048 A 
ATOM      3  C   LIG    1        5.314   5.089  -4.349  0.00  0.00    +0.027 A 
ATOM      4  C   LIG    1        5.718   6.317  -3.812  0.00  0.00    +0.034 A 
ATOM      5  C   LIG    1        6.062   6.374  -2.458  0.00  0.00    +0.027 A 
ATOM      6  C   LIG    1        5.932   5.252  -1.633  0.00  0.00    +0.048 A 
ENDROOT
BRANCH   4   7
ATOM      7  N   LIG    1        5.731   7.443  -4.665  0.00  0.00    -0.286 N 
ATOM      8  H   LIG    1        5.421   7.289  -5.617  0.00  0.00    +0.155 HD
ATOM      9  C   LIG    1        6.060   8.740  -4.304  0.00  0.00    +0.214 C 
ATOM     10  O   LIG    1        6.414   9.129  -3.198  0.00  0.00    -0.276 OA
ATOM     11  C   LIG    1        5.972   9.713  -5.449  0.00  0.00    +0.109 C 
ENDBRANCH   4   7
BRANCH   1  12
ATOM     12  O   LIG    1        5.256   2.998  -1.259  0.00  0.00    -0.425 OA
BRANCH  12  13
ATOM     13  C   LIG    1        4.261   2.026  -1.482  0.00  0.00    +0.327 C 
ATOM     14  O   LIG    1        3.516   1.957  -2.439  0.00  0.00    -0.249 OA
BRANCH  13  15
ATOM     15  C   LIG    1        4.234   1.047  -0.315  0.00  0.00    +0.206 C 
BRANCH  15  16
ATOM     16  N   LIG    1        3.224   1.341   0.724  0.00  0.00    -0.293 NA
BRANCH  16  18
ATOM     17  C   LIG    1        4.846   2.757   2.076  0.00  0.00    +0.020 C 
ATOM     18  C   LIG    1        3.458   2.592   1.466  0.00  0.00    +0.081 C 
ENDBRANCH  16  18
BRANCH  16  19
ATOM     19  C   LIG    1        1.826   1.326   0.246  0.00  0.00    +0.081 C 
ATOM     20  C   LIG    1        1.379   0.051  -0.461  0.00  0.00    +0.020 C 
ENDBRANCH  16  19
ENDBRANCH  15  16
ENDBRANCH  13  15
ENDBRANCH  12  13
ENDBRANCH   1  12
TORSDOF 7
