REMARK  Name = *****
REMARK                            x       y       z     vdW  Elec       q    Type
REMARK                         _______ _______ _______ _____ _____    ______ ____
ROOT
ATOM      1  C   LIG    1        3.126  -1.025   1.369  0.00  0.00    +0.119 A 
ATOM      2  C   LIG    1        3.720  -0.638   2.580  0.00  0.00    +0.059 A 
ATOM      3  C   LIG    1        4.003  -1.644   3.515  0.00  0.00    +0.091 A 
ATOM      4  C   LIG    1        3.686  -2.961   3.213  0.00  0.00    +0.067 A 
ATOM      5  N   LIG    1        4.088  -3.663   4.318  0.00  0.00    -0.338 N 
ATOM      6  H   LIG    1        4.002  -4.659   4.434  0.00  0.00    +0.167 HD
ATOM      7  C   LIG    1        4.613  -2.789   5.244  0.00  0.00    +0.139 A 
ATOM      8  C   LIG    1        3.090  -3.367   2.018  0.00  0.00    +0.029 A 
ATOM      9  N   LIG    1        4.572  -1.556   4.763  0.00  0.00    -0.228 NA
ATOM     10  C   LIG    1        2.808  -2.361   1.092  0.00  0.00    +0.031 A 
ENDROOT
BRANCH   7  11
ATOM     11  C   LIG    1        5.127  -3.201   6.559  0.00  0.00    +0.017 A 
ATOM     12  C   LIG    1        5.127  -4.543   6.977  0.00  0.00    +0.011 A 
ATOM     13  C   LIG    1        5.620  -4.904   8.234  0.00  0.00    +0.001 A 
ATOM     14  C   LIG    1        6.121  -3.931   9.094  0.00  0.00    +0.000 A 
ATOM     15  C   LIG    1        6.128  -2.596   8.697  0.00  0.00    +0.001 A 
ATOM     16  C   LIG    1        5.635  -2.235   7.439  0.00  0.00    +0.011 A 
ENDBRANCH   7  11
BRANCH   1  18
ATOM     17  O   LIG    1        1.569  -0.226  -0.575  0.00  0.00    -0.142 OA
ATOM     18  S   LIG    1        2.736   0.210   0.165  0.00  0.00    +0.110 S 
ATOM     19  O   LIG    1        3.960   0.576  -0.508  0.00  0.00    -0.142 OA
BRANCH  18  20
ATOM     20  O   LIG    1        2.252   1.497   1.009  0.00  0.00    -0.250 OA
ATOM     21  H   LIG    1        1.793   2.103   0.392  0.00  0.00    +0.245 HD
ENDBRANCH  18  20
ENDBRANCH   1  18
TORSDOF 3
