REMARK  Name = *****
REMARK                            x       y       z     vdW  Elec       q    Type
REMARK                         _______ _______ _______ _____ _____    ______ ____
ROOT
ATOM      1  C   LIG    1        0.560  -0.235  -5.886  0.00  0.00    +0.190 C 
ENDROOT
BRANCH   1   2
ATOM      2  C   LIG    1       -0.492  -1.304  -5.509  0.00  0.00    -0.005 A 
ATOM      3  C   LIG    1       -1.107  -1.303  -4.239  0.00  0.00    +0.007 A 
ATOM      4  C   LIG    1       -2.027  -2.291  -3.866  0.00  0.00    +0.000 A 
ATOM      5  C   LIG    1       -2.379  -3.292  -4.763  0.00  0.00    +0.000 A 
ATOM      6  C   LIG    1       -1.805  -3.308  -6.030  0.00  0.00    +0.000 A 
ATOM      7  C   LIG    1       -0.873  -2.327  -6.400  0.00  0.00    +0.007 A 
ENDBRANCH   1   2
BRANCH   1   8
ATOM      8  C   LIG    1       -0.029   1.035  -6.573  0.00  0.00    +0.036 C 
ATOM      9  C   LIG    1       -1.043   1.824  -5.715  0.00  0.00    +0.007 C 
ATOM     10  C   LIG    1       -0.836   3.288  -6.079  0.00  0.00    +0.000 C 
ATOM     11  C   LIG    1        0.667   3.386  -6.231  0.00  0.00    +0.000 C 
ATOM     12  C   LIG    1        1.046   2.095  -6.948  0.00  0.00    +0.007 C 
ENDBRANCH   1   8
BRANCH   1  13
ATOM     13  C   LIG    1        1.660  -0.856  -6.826  0.00  0.00    +0.344 C 
ATOM     14  O   LIG    1        1.597  -0.969  -8.038  0.00  0.00    -0.247 OA
BRANCH  13  15
ATOM     15  O   LIG    1        2.734  -1.297  -6.086  0.00  0.00    -0.454 OA
BRANCH  15  19
ATOM     16  C   LIG    1        6.111  -0.932  -4.713  0.00  0.00    +0.192 C 
ATOM     17  N   LIG    1        6.041  -2.006  -5.797  0.00  0.00    +0.242 N 
ATOM     18  C   LIG    1        4.668  -2.696  -5.813  0.00  0.00    +0.178 C 
ATOM     19  C   LIG    1        3.800  -1.925  -6.820  0.00  0.00    +0.226 C 
ATOM     20  C   LIG    1        4.722  -0.889  -7.459  0.00  0.00    +0.101 C 
ATOM     21  C   LIG    1        6.130  -1.385  -7.186  0.00  0.00    +0.136 C 
ATOM     22  C   LIG    1        7.149  -3.015  -5.555  0.00  0.00    +0.192 C 
ENDBRANCH  15  19
ENDBRANCH  13  15
ENDBRANCH   1  13
BRANCH   1  23
ATOM     23  O   LIG    1        1.231   0.203  -4.681  0.00  0.00    -0.373 OA
ATOM     24  H   LIG    1        1.373  -0.593  -4.140  0.00  0.00    +0.211 HD
ENDBRANCH   1  23
TORSDOF 6
