REMARK  Name = *****
REMARK                            x       y       z     vdW  Elec       q    Type
REMARK                         _______ _______ _______ _____ _____    ______ ____
ROOT
ATOM      1  C   LIG    1       -2.477  -1.409  -3.849  0.00  0.00    +0.170 C 
ATOM      2  N   LIG    1       -1.834  -2.501  -3.102  0.00  0.00    -0.233 N 
ATOM      3  C   LIG    1       -1.985  -3.875  -3.455  0.00  0.00    +0.269 C 
ATOM      4  O   LIG    1       -2.202  -4.605  -2.255  0.00  0.00    -0.298 OA
ATOM      5  C   LIG    1       -1.878  -3.779  -1.122  0.00  0.00    +0.220 C 
ATOM      6  C   LIG    1       -3.115  -4.109  -4.493  0.00  0.00    +0.156 C 
ATOM      7  N   LIG    1       -4.177  -3.111  -4.440  0.00  0.00    -0.290 N 
ATOM      8  C   LIG    1       -5.476  -3.671  -4.752  0.00  0.00    +0.108 C 
ATOM      9  C   LIG    1       -5.171  -5.106  -5.169  0.00  0.00    +0.021 C 
ATOM     10  C   LIG    1       -3.882  -5.430  -4.409  0.00  0.00    +0.031 C 
ATOM     11  C   LIG    1       -1.702  -2.384  -1.732  0.00  0.00    +0.271 C 
ATOM     12  O   LIG    1       -1.567  -1.323  -1.129  0.00  0.00    -0.270 OA
ATOM     13  C   LIG    1       -3.932  -1.767  -4.255  0.00  0.00    +0.237 C 
ATOM     14  O   LIG    1       -4.786  -0.910  -4.472  0.00  0.00    -0.274 OA
ENDROOT
BRANCH   5  15
ATOM     15  N   LIG    1       -0.646  -4.311  -0.588  0.00  0.00    -0.280 N 
ATOM     16  H   LIG    1       -0.368  -5.230  -0.920  0.00  0.00    +0.152 HD
ATOM     17  C   LIG    1        0.002  -3.818   0.514  0.00  0.00    +0.220 C 
ATOM     18  O   LIG    1       -0.398  -2.852   1.158  0.00  0.00    -0.275 OA
BRANCH  17  19
ATOM     19  C   LIG    1        1.325  -4.498   0.875  0.00  0.00    +0.090 C 
ATOM     20  C   LIG    1        1.245  -6.022   0.767  0.00  0.00    +0.097 C 
ATOM     21  N   LIG    1        1.188  -6.501  -0.630  0.00  0.00    -0.301 NA
ATOM     22  C   LIG    1        1.196  -7.962  -0.649  0.00  0.00    +0.105 C 
ATOM     23  C   LIG    1        2.183  -5.833  -1.534  0.00  0.00    +0.068 C 
ATOM     24  C   LIG    1        3.260  -4.978  -0.740  0.00  0.00    +0.038 C 
ATOM     25  C   LIG    1        4.320  -4.369  -1.642  0.00  0.00    -0.033 C 
ATOM     26  C   LIG    1        4.489  -4.927  -2.913  0.00  0.00    +0.006 C 
ATOM     27  C   LIG    1        5.450  -4.487  -3.803  0.00  0.00    +0.047 C 
ATOM     28  N   LIG    1        5.301  -5.259  -4.935  0.00  0.00    -0.360 NA
ATOM     29  H   LIG    1        5.867  -5.171  -5.767  0.00  0.00    +0.165 HD
ATOM     30  C   LIG    1        4.301  -6.192  -4.750  0.00  0.00    +0.087 C 
ATOM     31  C   LIG    1        6.337  -3.464  -3.471  0.00  0.00    +0.026 C 
ATOM     32  C   LIG    1        6.204  -2.910  -2.188  0.00  0.00    +0.002 C 
ATOM     33  C   LIG    1        3.792  -6.009  -3.485  0.00  0.00    -0.021 C 
ATOM     34  C   LIG    1        5.219  -3.351  -1.289  0.00  0.00    +0.005 C 
ATOM     35  C   LIG    1        2.766  -6.733  -2.686  0.00  0.00    +0.056 C 
ATOM     36  C   LIG    1        2.509  -3.914   0.088  0.00  0.00    +0.023 C 
ENDBRANCH  17  19
ENDBRANCH   5  15
BRANCH   1  38
ATOM     37  C   LIG    1       -0.220  -0.471  -4.552  0.00  0.00    +0.009 C 
ATOM     38  C   LIG    1       -1.645  -0.807  -5.003  0.00  0.00    +0.013 C 
ATOM     39  C   LIG    1       -1.600  -1.634  -6.285  0.00  0.00    +0.009 C 
ENDBRANCH   1  38
BRANCH   5  40
ATOM     40  C   LIG    1       -3.081  -3.807  -0.135  0.00  0.00    +0.043 C 
ATOM     41  C   LIG    1       -4.346  -3.160  -0.728  0.00  0.00    +0.012 C 
ATOM     42  C   LIG    1       -3.456  -5.227   0.311  0.00  0.00    +0.012 C 
ENDBRANCH   5  40
BRANCH   3  43
ATOM     43  O   LIG    1       -0.740  -4.285  -3.985  0.00  0.00    -0.348 OA
ATOM     44  H   LIG    1       -0.831  -5.231  -4.176  0.00  0.00    +0.214 HD
ENDBRANCH   3  43
TORSDOF 5
