REMARK  Name = *****
REMARK                            x       y       z     vdW  Elec       q    Type
REMARK                         _______ _______ _______ _____ _____    ______ ____
ROOT
ATOM      1  C   LIG    1        2.951  -1.576   0.760  0.00  0.00    +0.003 C 
ATOM      2  C   LIG    1        2.510  -2.951   0.232  0.00  0.00    +0.005 C 
ATOM      3  C   LIG    1        2.287  -2.932  -1.279  0.00  0.00    +0.015 C 
ATOM      4  C   LIG    1        3.533  -2.443  -2.026  0.00  0.00    +0.098 C 
ATOM      5  C   LIG    1        3.989  -1.080  -1.504  0.00  0.00    +0.015 C 
ATOM      6  C   LIG    1        4.205  -1.097   0.008  0.00  0.00    +0.005 C 
ENDROOT
BRANCH   4   7
ATOM      7  C   LIG    1        3.264  -2.356  -3.517  0.00  0.00    +0.308 C 
ATOM      8  O   LIG    1        2.180  -2.094  -4.018  0.00  0.00    -0.251 OA
BRANCH   7   9
ATOM      9  O   LIG    1        4.368  -2.572  -4.269  0.00  0.00    -0.480 OA
ATOM     10  H   LIG    1        5.175  -2.755  -3.750  0.00  0.00    +0.295 HD
ENDBRANCH   7   9
ENDBRANCH   4   7
BRANCH   1  11
ATOM     11  C   LIG    1        3.175  -1.647   2.281  0.00  0.00    +0.081 C 
BRANCH  11  12
ATOM     12  N   LIG    1        3.523  -0.345   2.840  0.00  0.00    -0.330 NA
ATOM     13  H   LIG    1        2.753   0.308   2.693  0.00  0.00    +0.118 HD
ATOM     14  H   LIG    1        3.634  -0.429   3.850  0.00  0.00    +0.118 HD
ENDBRANCH  11  12
ENDBRANCH   1  11
TORSDOF 4
