REMARK  Name = *****
REMARK                            x       y       z     vdW  Elec       q    Type
REMARK                         _______ _______ _______ _____ _____    ______ ____
ROOT
ATOM      1  N   LIG    1       -2.506  -5.438   2.162  0.00  0.00    -0.279 N 
ATOM      2  H   LIG    1       -1.645  -4.981   2.430  0.00  0.00    +0.155 HD
ENDROOT
BRANCH   1   3
ATOM      3  C   LIG    1       -3.630  -4.583   2.127  0.00  0.00    +0.130 A 
ATOM      4  N   LIG    1       -4.873  -5.035   2.300  0.00  0.00    -0.217 NA
ATOM      5  C   LIG    1       -5.881  -4.157   2.177  0.00  0.00    +0.130 A 
ATOM      6  C   LIG    1       -7.261  -4.714   2.342  0.00  0.00    +0.088 C 
ATOM      7  N   LIG    1       -5.741  -2.850   1.884  0.00  0.00    -0.217 NA
ATOM      8  C   LIG    1       -4.494  -2.383   1.710  0.00  0.00    +0.127 A 
ATOM      9  C   LIG    1       -3.415  -3.254   1.827  0.00  0.00    +0.087 A 
BRANCH   8  10
ATOM     10  N   LIG    1       -4.295  -1.024   1.381  0.00  0.00    -0.313 N 
ATOM     11  C   LIG    1       -2.912  -0.535   1.513  0.00  0.00    +0.122 C 
ATOM     12  C   LIG    1       -2.756   0.958   1.206  0.00  0.00    +0.103 C 
ATOM     13  N   LIG    1       -3.682   1.832   1.951  0.00  0.00    -0.297 NA
ATOM     14  C   LIG    1       -5.053   1.381   1.589  0.00  0.00    +0.103 C 
ATOM     15  C   LIG    1       -5.368  -0.120   1.859  0.00  0.00    +0.122 C 
BRANCH  13  16
ATOM     16  C   LIG    1       -3.486   1.769   3.419  0.00  0.00    +0.112 C 
BRANCH  16  17
ATOM     17  C   LIG    1       -2.103   2.261   3.880  0.00  0.00    +0.171 C 
BRANCH  17  18
ATOM     18  O   LIG    1       -1.876   3.604   3.471  0.00  0.00    -0.394 OA
ATOM     19  H   LIG    1       -2.123   3.638   2.527  0.00  0.00    +0.209 HD
ENDBRANCH  17  18
ENDBRANCH  16  17
ENDBRANCH  13  16
ENDBRANCH   8  10
ENDBRANCH   1   3
BRANCH   1  22
ATOM     20  C   LIG    1       -2.899  -9.180   2.271  0.00  0.00    +0.095 A 
ATOM     21  S   LIG    1       -3.807  -7.803   1.887  0.00  0.00    -0.048 S 
ATOM     22  C   LIG    1       -2.510  -6.777   2.355  0.00  0.00    +0.164 A 
ATOM     23  N   LIG    1       -1.472  -7.417   2.853  0.00  0.00    -0.232 NA
ATOM     24  C   LIG    1       -1.690  -8.790   2.829  0.00  0.00    +0.133 A 
BRANCH  20  27
ATOM     25  N   LIG    1       -4.775 -10.588   1.961  0.00  0.00    -0.280 N 
ATOM     26  H   LIG    1       -5.249  -9.706   1.837  0.00  0.00    +0.155 HD
ATOM     27  C   LIG    1       -3.379 -10.511   1.987  0.00  0.00    +0.257 C 
ATOM     28  O   LIG    1       -2.635 -11.430   1.721  0.00  0.00    -0.269 OA
BRANCH  25  31
ATOM     29  C   LIG    1       -6.682 -10.447  -0.230  0.00  0.00    +0.045 C 
ATOM     30  C   LIG    1       -6.395 -11.705   0.544  0.00  0.00    -0.028 A 
ATOM     31  C   LIG    1       -5.459 -11.765   1.601  0.00  0.00    +0.055 A 
ATOM     32  C   LIG    1       -5.269 -12.969   2.305  0.00  0.00    +0.062 A 
ATOM     33 CL   LIG    1       -4.308 -13.065   3.745  0.00  0.00    -0.082 Cl
ATOM     34  C   LIG    1       -5.968 -14.116   1.934  0.00  0.00    +0.022 A 
ATOM     35  C   LIG    1       -6.865 -14.074   0.870  0.00  0.00    +0.002 A 
ATOM     36  C   LIG    1       -7.085 -12.876   0.189  0.00  0.00    +0.005 A 
ENDBRANCH  25  31
ENDBRANCH  20  27
ENDBRANCH   1  22
TORSDOF 8
