REMARK  Name = *****
REMARK                            x       y       z     vdW  Elec       q    Type
REMARK                         _______ _______ _______ _____ _____    ______ ____
ROOT
ATOM      1  N   LIG    1        2.099   3.649  -2.920  0.00  0.00    -0.310 N 
ATOM      2  H   LIG    1        1.183   3.431  -3.291  0.00  0.00    +0.149 HD
ATOM      3  C   LIG    1        2.928   4.533  -3.609  0.00  0.00    +0.251 C 
ATOM      4  O   LIG    1        4.008   4.873  -3.180  0.00  0.00    -0.270 OA
ENDROOT
BRANCH   3   5
ATOM      5  C   LIG    1        2.379   5.045  -4.925  0.00  0.00    +0.121 A 
ATOM      6  C   LIG    1        0.989   5.157  -5.145  0.00  0.00    +0.150 A 
ATOM      7  C   LIG    1        0.517   5.293  -6.466  0.00  0.00    +0.060 A 
ATOM      8 BR   LIG    1       -1.337   5.234  -6.886  0.00  0.00    -0.046 Br
ATOM      9  C   LIG    1        1.400   5.459  -7.533  0.00  0.00    +0.022 A 
ATOM     10  C   LIG    1        2.765   5.533  -7.287  0.00  0.00    +0.048 A 
ATOM     11  C   LIG    1        3.267   5.346  -5.989  0.00  0.00    +0.136 A 
BRANCH   6  12
ATOM     12  O   LIG    1        0.029   5.103  -4.156  0.00  0.00    -0.493 OA
ATOM     13  C   LIG    1        0.305   5.830  -2.949  0.00  0.00    +0.277 C 
ENDBRANCH   6  12
BRANCH  11  14
ATOM     14  O   LIG    1        4.619   5.397  -5.753  0.00  0.00    -0.494 OA
ATOM     15  C   LIG    1        5.357   6.317  -6.560  0.00  0.00    +0.277 C 
ENDBRANCH  11  14
ENDBRANCH   3   5
BRANCH   1  16
ATOM     16  C   LIG    1        2.435   3.057  -1.632  0.00  0.00    +0.123 C 
BRANCH  16  18
ATOM     17  N   LIG    1        2.234   0.619  -2.424  0.00  0.00    -0.298 NA
ATOM     18  C   LIG    1        3.056   1.649  -1.733  0.00  0.00    +0.074 C 
ATOM     19  C   LIG    1        4.340   1.656  -2.559  0.00  0.00    +0.021 C 
ATOM     20  C   LIG    1        4.576   0.188  -2.809  0.00  0.00    +0.017 C 
ATOM     21  C   LIG    1        3.178  -0.379  -2.968  0.00  0.00    +0.085 C 
BRANCH  17  23
ATOM     22  C   LIG    1        0.383  -1.047  -2.309  0.00  0.00    +0.020 C 
ATOM     23  C   LIG    1        1.234  -0.019  -1.556  0.00  0.00    +0.081 C 
ENDBRANCH  17  23
ENDBRANCH  16  18
ENDBRANCH   1  16
TORSDOF 6
