REMARK  Name = *****
REMARK                            x       y       z     vdW  Elec       q    Type
REMARK                         _______ _______ _______ _____ _____    ______ ____
ROOT
ATOM      1  C   LIG    1        6.286  -7.673   5.230  0.00  0.00    +0.158 C 
ENDROOT
BRANCH   1   2
ATOM      2  C   LIG    1        5.791  -9.098   5.458  0.00  0.00    -0.016 A 
ATOM      3  C   LIG    1        4.946  -9.760   4.541  0.00  0.00    +0.033 A 
ATOM      4  C   LIG    1        4.530 -11.092   4.729  0.00  0.00    +0.075 A 
ATOM      5  C   LIG    1        4.995 -11.775   5.856  0.00  0.00    +0.138 A 
ATOM      6  C   LIG    1        5.843 -11.146   6.769  0.00  0.00    +0.048 A 
ATOM      7  C   LIG    1        6.241  -9.825   6.567  0.00  0.00    +0.010 A 
BRANCH   4   8
ATOM      8  N   LIG    1        3.668 -11.621   3.740  0.00  0.00    -0.285 N 
ATOM      9  H   LIG    1        3.399 -11.026   2.967  0.00  0.00    +0.155 HD
ATOM     10  C   LIG    1        3.120 -12.863   3.666  0.00  0.00    +0.330 C 
ATOM     11  O   LIG    1        2.382 -13.191   2.733  0.00  0.00    -0.279 OA
ENDBRANCH   4   8
BRANCH   5  12
ATOM     12  O   LIG    1        4.650 -13.073   6.098  0.00  0.00    -0.505 OA
ATOM     13  H   LIG    1        5.058 -13.367   6.928  0.00  0.00    +0.292 HD
ENDBRANCH   5  12
ENDBRANCH   1   2
BRANCH   1  14
ATOM     14  O   LIG    1        6.635  -7.065   6.485  0.00  0.00    -0.386 OA
ATOM     15  H   LIG    1        5.806  -6.809   6.920  0.00  0.00    +0.210 HD
ENDBRANCH   1  14
BRANCH   1  16
ATOM     16  C   LIG    1        5.269  -6.759   4.495  0.00  0.00    +0.117 C 
BRANCH  16  17
ATOM     17  N   LIG    1        5.809  -5.420   4.223  0.00  0.00    -0.310 NA
ATOM     18  H   LIG    1        6.096  -4.995   5.108  0.00  0.00    +0.122 HD
BRANCH  17  19
ATOM     19  C   LIG    1        4.869  -4.535   3.508  0.00  0.00    +0.055 C 
ATOM     20  C   LIG    1        4.444  -5.116   2.150  0.00  0.00    +0.024 C 
BRANCH  19  21
ATOM     21  C   LIG    1        5.548  -3.157   3.294  0.00  0.00    +0.053 C 
BRANCH  21  25
ATOM     22  C   LIG    1        2.926  -0.344   1.314  0.00  0.00    +0.120 A 
ATOM     23  C   LIG    1        4.138  -0.712   0.732  0.00  0.00    +0.046 A 
ATOM     24  C   LIG    1        4.990  -1.604   1.387  0.00  0.00    +0.007 A 
ATOM     25  C   LIG    1        4.644  -2.139   2.634  0.00  0.00    -0.046 A 
ATOM     26  C   LIG    1        3.439  -1.743   3.227  0.00  0.00    +0.007 A 
ATOM     27  C   LIG    1        2.589  -0.850   2.570  0.00  0.00    +0.046 A 
BRANCH  22  29
ATOM     28  C   LIG    1        2.038   0.603  -0.658  0.00  0.00    +0.277 C 
ATOM     29  O   LIG    1        2.024   0.526   0.764  0.00  0.00    -0.495 OA
ENDBRANCH  22  29
ENDBRANCH  21  25
ENDBRANCH  19  21
ENDBRANCH  17  19
ENDBRANCH  16  17
ENDBRANCH   1  16
TORSDOF 10
