REMARK  Name = *****
REMARK                            x       y       z     vdW  Elec       q    Type
REMARK                         _______ _______ _______ _____ _____    ______ ____
ROOT
ATOM      1  C   LIG    1        5.019   0.825  -0.901  0.00  0.00    +0.001 A 
ATOM      2  C   LIG    1        4.353   1.129   0.284  0.00  0.00    +0.017 A 
ATOM      3  C   LIG    1        3.080   0.596   0.547  0.00  0.00    +0.034 A 
ATOM      4  S   LIG    1        2.327   1.023   2.108  0.00  0.00    -0.086 S 
ATOM      5  C   LIG    1        0.618   0.635   1.779  0.00  0.00    +0.034 A 
ATOM      6  C   LIG    1        0.227  -0.230   0.740  0.00  0.00    +0.048 A 
ATOM      7  N   LIG    1        1.175  -0.817  -0.140  0.00  0.00    -0.298 N 
ATOM      8  C   LIG    1       -1.153  -0.435   0.545  0.00  0.00    +0.024 A 
ATOM      9  C   LIG    1       -2.107   0.165   1.374  0.00  0.00    +0.002 A 
ATOM     10  C   LIG    1       -1.701   0.982   2.420  0.00  0.00    +0.001 A 
ATOM     11  C   LIG    1       -0.343   1.216   2.624  0.00  0.00    +0.017 A 
ATOM     12  C   LIG    1        2.466  -0.278  -0.372  0.00  0.00    +0.048 A 
ATOM     13  C   LIG    1        3.152  -0.548  -1.572  0.00  0.00    +0.024 A 
ATOM     14  C   LIG    1        4.416  -0.010  -1.831  0.00  0.00    +0.002 A 
ENDROOT
BRANCH   7  15
ATOM     15  C   LIG    1        1.016  -2.275  -0.382  0.00  0.00    +0.116 C 
BRANCH  15  16
ATOM     16  C   LIG    1        1.313  -3.148   0.862  0.00  0.00    +0.024 C 
ATOM     17  C   LIG    1        2.776  -3.114   1.372  0.00  0.00    -0.003 C 
ATOM     18  C   LIG    1        3.702  -3.808   0.362  0.00  0.00    +0.019 C 
ATOM     19  C   LIG    1        3.232  -5.254   0.144  0.00  0.00    +0.085 C 
ATOM     20  N   LIG    1        2.030  -5.565   0.949  0.00  0.00    -0.302 NA
ATOM     21  C   LIG    1        2.355  -5.376   2.379  0.00  0.00    +0.085 C 
ATOM     22  C   LIG    1        2.826  -3.944   2.669  0.00  0.00    +0.019 C 
ATOM     23  C   LIG    1        0.949  -4.627   0.568  0.00  0.00    +0.089 C 
ENDBRANCH  15  16
ENDBRANCH   7  15
TORSDOF 2
