REMARK  Name = *****
REMARK                            x       y       z     vdW  Elec       q    Type
REMARK                         _______ _______ _______ _____ _____    ______ ____
ROOT
ATOM      1  C   LIG    1        0.679   1.237  -0.235  0.00  0.00    +0.096 C 
ATOM      2  N   LIG    1       -0.726   1.278   0.210  0.00  0.00    -0.314 NA
ATOM      3  H   LIG    1       -0.733   1.282   1.229  0.00  0.00    +0.122 HD
ATOM      4  C   LIG    1       -1.398   0.046  -0.244  0.00  0.00    +0.096 C 
ATOM      5  C   LIG    1       -0.676  -1.236   0.226  0.00  0.00    +0.096 C 
ATOM      6  N   LIG    1        0.735  -1.274  -0.183  0.00  0.00    -0.314 NA
ATOM      7  H   LIG    1        1.194  -2.078   0.244  0.00  0.00    +0.122 HD
ATOM      8  C   LIG    1        1.419  -0.039   0.222  0.00  0.00    +0.096 C 
ENDROOT
TORSDOF 0
