REMARK  Name = *****
REMARK                            x       y       z     vdW  Elec       q    Type
REMARK                         _______ _______ _______ _____ _____    ______ ____
ROOT
ATOM      1  C   LIG    1       -9.097   2.166   3.422  0.00  0.00    +0.133 C 
ATOM      2  C   LIG    1      -10.319   2.181   2.444  0.00  0.00    +0.009 C 
ATOM      3  C   LIG    1       -9.882   2.495   0.985  0.00  0.00    +0.015 C 
ATOM      4  C   LIG    1      -11.172   3.389   2.963  0.00  0.00    +0.002 C 
ATOM      5  C   LIG    1      -12.322   3.058   3.950  0.00  0.00    -0.001 C 
ATOM      6  C   LIG    1      -13.152   1.807   3.581  0.00  0.00    +0.031 C 
ATOM      7  C   LIG    1      -12.159   0.632   3.449  0.00  0.00    +0.119 C 
ATOM      8  C   LIG    1      -14.282   2.006   2.487  0.00  0.00    -0.005 C 
ATOM      9  C   LIG    1      -15.271   0.806   2.590  0.00  0.00    +0.016 C 
ATOM     10  C   LIG    1      -15.025   3.339   2.713  0.00  0.00    -0.060 C 
ATOM     11  C   LIG    1      -16.165   3.603   2.040  0.00  0.00    +0.046 C 
ATOM     12  C   LIG    1      -15.891   3.549   0.555  0.00  0.00    +0.156 C 
ATOM     13  O   LIG    1      -16.559   4.251  -0.202  0.00  0.00    -0.293 OA
ATOM     14  C   LIG    1      -14.909   2.507   0.032  0.00  0.00    +0.080 C 
ATOM     15  C   LIG    1      -14.177   4.544   3.058  0.00  0.00    +0.032 C 
ATOM     16  C   LIG    1      -13.802   2.104   1.020  0.00  0.00    +0.019 C 
ATOM     17  C   LIG    1      -13.241   4.260   4.218  0.00  0.00    +0.008 C 
ATOM     18  C   LIG    1      -10.154   4.347   3.635  0.00  0.00    +0.007 C 
ATOM     19  C   LIG    1      -11.078   0.840   2.397  0.00  0.00    +0.042 C 
ATOM     20  C   LIG    1       -8.789   3.666   3.580  0.00  0.00    +0.043 C 
ENDROOT
BRANCH   1  21
ATOM     21  C   LIG    1       -7.825   1.439   2.882  0.00  0.00    +0.202 C 
ATOM     22  O   LIG    1       -7.083   1.969   2.046  0.00  0.00    -0.291 OA
BRANCH  21  23
ATOM     23  C   LIG    1       -7.595  -0.025   3.257  0.00  0.00    +0.309 C 
BRANCH  23  24
ATOM     24  O   LIG    1       -7.971  -0.388   4.585  0.00  0.00    -0.456 OA
BRANCH  24  25
ATOM     25  C   LIG    1       -7.050  -0.129   5.549  0.00  0.00    +0.322 C 
ATOM     26  O   LIG    1       -5.939   0.351   5.327  0.00  0.00    -0.249 OA
BRANCH  25  27
ATOM     27  C   LIG    1       -7.543  -0.550   6.927  0.00  0.00    +0.205 C 
BRANCH  27  28
ATOM     28  N   LIG    1       -8.163   0.553   7.706  0.00  0.00    -0.293 NA
BRANCH  28  30
ATOM     29  C   LIG    1       -9.642  -1.091   8.973  0.00  0.00    +0.020 C 
ATOM     30  C   LIG    1       -8.632   0.055   9.020  0.00  0.00    +0.081 C 
ENDBRANCH  28  30
BRANCH  28  31
ATOM     31  C   LIG    1       -7.187   1.656   7.901  0.00  0.00    +0.081 C 
ATOM     32  C   LIG    1       -7.715   2.879   8.653  0.00  0.00    +0.020 C 
ENDBRANCH  28  31
ENDBRANCH  27  28
ENDBRANCH  25  27
ENDBRANCH  24  25
ENDBRANCH  23  24
ENDBRANCH  21  23
ENDBRANCH   1  21
BRANCH   1  33
ATOM     33  O   LIG    1       -9.518   1.733   4.710  0.00  0.00    -0.380 OA
ATOM     34  H   LIG    1       -9.574   0.760   4.731  0.00  0.00    +0.211 HD
ENDBRANCH   1  33
BRANCH   7  35
ATOM     35  O   LIG    1      -12.815  -0.602   3.195  0.00  0.00    -0.392 OA
ATOM     36  H   LIG    1      -12.152  -1.313   3.236  0.00  0.00    +0.210 HD
ENDBRANCH   7  35
TORSDOF 10
