REMARK  Name = *****
REMARK                            x       y       z     vdW  Elec       q    Type
REMARK                         _______ _______ _______ _____ _____    ______ ____
ROOT
ATOM      1  C   LIG    1        2.686  -0.979  -0.331  0.00  0.00    +0.124 A 
ATOM      2  C   LIG    1        3.153  -2.268  -0.570  0.00  0.00    +0.069 A 
ATOM      3 CL   LIG    1        3.483  -3.424   0.671  0.00  0.00    -0.082 Cl
ATOM      4  C   LIG    1        3.384  -2.683  -1.890  0.00  0.00    +0.045 A 
ATOM      5  C   LIG    1        3.148  -1.845  -2.998  0.00  0.00    +0.043 A 
ATOM      6  C   LIG    1        2.700  -0.527  -2.734  0.00  0.00    +0.082 A 
ATOM      7  C   LIG    1        2.463  -0.112  -1.408  0.00  0.00    +0.046 A 
ENDROOT
BRANCH   1   8
ATOM      8  S   LIG    1        2.397  -0.384   1.304  0.00  0.00    +0.057 S 
ATOM      9  O   LIG    1        3.581  -0.592   2.105  0.00  0.00    -0.153 OA
ATOM     10  O   LIG    1        1.747   0.904   1.228  0.00  0.00    -0.153 OA
BRANCH   8  11
ATOM     11  N   LIG    1        1.213  -1.422   1.884  0.00  0.00    -0.203 NA
ATOM     12  H   LIG    1        1.580  -1.956   2.674  0.00  0.00    +0.144 HD
ATOM     13  H   LIG    1        0.362  -0.900   2.095  0.00  0.00    +0.144 HD
ENDBRANCH   8  11
ENDBRANCH   1   8
BRANCH   5  14
ATOM     14  N   LIG    1        3.487  -2.271  -4.293  0.00  0.00    -0.336 N 
ATOM     15  H   LIG    1        3.088  -1.639  -4.999  0.00  0.00    +0.146 HD
BRANCH  14  16
ATOM     16  C   LIG    1        3.307  -3.676  -4.668  0.00  0.00    +0.176 C 
BRANCH  16  17
ATOM     17  C   LIG    1        3.047  -3.888  -6.123  0.00  0.00    +0.122 A 
ATOM     18  O   LIG    1        1.737  -3.873  -6.509  0.00  0.00    -0.466 OA
ATOM     19  C   LIG    1        1.712  -4.091  -7.848  0.00  0.00    +0.195 A 
ATOM     20  C   LIG    1        2.989  -4.240  -8.335  0.00  0.00    +0.041 A 
ATOM     21  C   LIG    1        3.855  -4.112  -7.220  0.00  0.00    +0.046 A 
ENDBRANCH  16  17
ENDBRANCH  14  16
ENDBRANCH   5  14
BRANCH   6  22
ATOM     22  C   LIG    1        2.429   0.501  -3.782  0.00  0.00    +0.339 C 
ATOM     23  O   LIG    1        2.070   1.645  -3.566  0.00  0.00    -0.245 OA
BRANCH  22  24
ATOM     24  O   LIG    1        2.595   0.073  -5.047  0.00  0.00    -0.477 OA
ATOM     25  H   LIG    1        2.407   0.873  -5.584  0.00  0.00    +0.295 HD
ENDBRANCH  22  24
ENDBRANCH   6  22
TORSDOF 7
