REMARK  Name = *****
REMARK                            x       y       z     vdW  Elec       q    Type
REMARK                         _______ _______ _______ _____ _____    ______ ____
ROOT
ATOM      1  C   LIG    1        5.015   1.738  -1.546  0.00  0.00    +0.186 A 
ATOM      2  C   LIG    1        5.925   1.400  -2.535  0.00  0.00    +0.171 A 
ATOM      3  N   LIG    1        6.324   2.536  -3.245  0.00  0.00    -0.229 NA
ATOM      4  C   LIG    1        5.648   3.527  -2.711  0.00  0.00    +0.199 A 
ATOM      5  N   LIG    1        4.845   3.095  -1.699  0.00  0.00    -0.328 N 
ATOM      6  H   LIG    1        4.226   3.654  -1.131  0.00  0.00    +0.168 HD
ENDROOT
BRANCH   2   7
ATOM      7  C   LIG    1        6.435   0.067  -2.838  0.00  0.00    +0.264 C 
ATOM      8  O   LIG    1        6.099  -0.962  -2.261  0.00  0.00    -0.269 OA
ATOM      9  N   LIG    1        7.356   0.038  -3.846  0.00  0.00    -0.324 N 
ATOM     10  H   LIG    1        7.770  -0.845  -4.107  0.00  0.00    +0.145 HD
ATOM     11  H   LIG    1        7.637   0.901  -4.295  0.00  0.00    +0.145 HD
ENDBRANCH   2   7
BRANCH   1  13
ATOM     12  N   LIG    1        3.887   1.691   0.345  0.00  0.00    -0.077 NA
ATOM     13  N   LIG    1        4.352   1.025  -0.602  0.00  0.00    -0.113 NA
BRANCH  12  15
ATOM     14  C   LIG    1        3.547  -0.467   1.460  0.00  0.00    +0.153 C 
ATOM     15  N   LIG    1        3.211   0.940   1.274  0.00  0.00    -0.243 N 
ATOM     16  C   LIG    1        2.817   1.684   2.457  0.00  0.00    +0.153 C 
ENDBRANCH  12  15
ENDBRANCH   1  13
TORSDOF 3
