REMARK  Name = *****
REMARK                            x       y       z     vdW  Elec       q    Type
REMARK                         _______ _______ _______ _____ _____    ______ ____
ROOT
ATOM      1  C   LIG    1        0.768   1.164  -3.010  0.00  0.00    +0.044 C 
ATOM      2  C   LIG    1        1.935   0.215  -2.888  0.00  0.00    -0.050 C 
ATOM      3  C   LIG    1        1.846  -1.110  -3.129  0.00  0.00    +0.003 C 
ENDROOT
BRANCH   3   4
ATOM      4  C   LIG    1        0.639  -1.863  -3.424  0.00  0.00    +0.001 C 
ATOM      5  C   LIG    1        0.557  -3.183  -3.656  0.00  0.00    +0.003 C 
BRANCH   5   6
ATOM      6  C   LIG    1        1.659  -4.127  -3.680  0.00  0.00    -0.044 C 
ATOM      7  C   LIG    1        1.982  -4.913  -4.722  0.00  0.00    +0.094 C 
ATOM      8  C   LIG    1        2.445  -4.266  -2.397  0.00  0.00    +0.044 C 
BRANCH   7   9
ATOM      9  C   LIG    1        1.402  -5.067  -6.071  0.00  0.00    +0.330 C 
ATOM     10  O   LIG    1        1.617  -6.080  -6.736  0.00  0.00    -0.246 OA
BRANCH   9  11
ATOM     11  O   LIG    1        0.677  -4.041  -6.532  0.00  0.00    -0.477 OA
ATOM     12  H   LIG    1        0.707  -3.249  -5.975  0.00  0.00    +0.295 HD
ENDBRANCH   9  11
ENDBRANCH   7   9
ENDBRANCH   5   6
ENDBRANCH   3   4
BRANCH   2  13
ATOM     13  C   LIG    1        3.224   0.761  -2.436  0.00  0.00    +0.003 C 
ATOM     14  C   LIG    1        3.494   2.046  -2.143  0.00  0.00    +0.004 C 
BRANCH  14  15
ATOM     15  C   LIG    1        4.764   2.546  -1.603  0.00  0.00    -0.043 C 
ATOM     16  C   LIG    1        4.660   3.260  -0.222  0.00  0.00    -0.010 C 
ATOM     17  C   LIG    1        3.469   4.242  -0.099  0.00  0.00    +0.016 C 
ATOM     18  C   LIG    1        4.507   2.182   0.876  0.00  0.00    +0.016 C 
ATOM     19  C   LIG    1        5.924   4.112   0.073  0.00  0.00    +0.011 C 
ATOM     20  C   LIG    1        7.205   3.365  -0.236  0.00  0.00    +0.005 C 
ATOM     21  C   LIG    1        7.244   3.001  -1.710  0.00  0.00    +0.031 C 
ATOM     22  C   LIG    1        5.947   2.439  -2.264  0.00  0.00    -0.069 C 
ATOM     23  C   LIG    1        6.165   1.803  -3.619  0.00  0.00    +0.039 C 
ENDBRANCH  14  15
ENDBRANCH   2  13
TORSDOF 6
