REMARK  Name = *****
REMARK                            x       y       z     vdW  Elec       q    Type
REMARK                         _______ _______ _______ _____ _____    ______ ____
ROOT
ATOM      1  C   LIG    1        2.894   0.874  -1.488  0.00  0.00    +0.008 A 
ATOM      2  C   LIG    1        3.268   1.998  -2.383  0.00  0.00    -0.002 A 
ATOM      3  C   LIG    1        4.703   2.240  -2.587  0.00  0.00    +0.004 A 
ATOM      4  C   LIG    1        5.615   1.264  -2.088  0.00  0.00    +0.052 A 
ATOM      5  N   LIG    1        5.199   0.212  -1.334  0.00  0.00    -0.255 NA
ATOM      6  C   LIG    1        3.911  -0.000  -1.012  0.00  0.00    +0.050 A 
ENDROOT
BRANCH   2   7
ATOM      7  C   LIG    1        2.187   2.910  -3.058  0.00  0.00    -0.017 A 
ATOM      8  C   LIG    1        2.295   4.324  -3.059  0.00  0.00    +0.011 A 
ATOM      9  C   LIG    1        1.218   5.193  -3.350  0.00  0.00    +0.039 A 
ATOM     10  C   LIG    1       -0.010   4.674  -3.704  0.00  0.00    +0.123 A 
ATOM     11  F   LIG    1       -1.062   5.489  -3.860  0.00  0.00    -0.205 F 
ATOM     12  C   LIG    1       -0.158   3.304  -3.826  0.00  0.00    +0.039 A 
ATOM     13  C   LIG    1        0.931   2.438  -3.532  0.00  0.00    +0.011 A 
ENDBRANCH   2   7
BRANCH   4  14
ATOM     14  C   LIG    1        7.134   1.151  -2.262  0.00  0.00    +0.032 C 
ATOM     15  C   LIG    1        7.906   2.228  -3.005  0.00  0.00    +0.014 C 
ATOM     16  C   LIG    1        7.538  -0.214  -2.877  0.00  0.00    +0.014 C 
ENDBRANCH   4  14
BRANCH   6  17
ATOM     17  C   LIG    1        3.740  -1.231  -0.092  0.00  0.00    +0.032 C 
ATOM     18  C   LIG    1        3.726  -0.843   1.395  0.00  0.00    +0.014 C 
ATOM     19  C   LIG    1        4.851  -2.297  -0.277  0.00  0.00    +0.014 C 
ENDBRANCH   6  17
BRANCH   3  20
ATOM     20  C   LIG    1        5.234   3.424  -3.362  0.00  0.00    +0.008 C 
ATOM     21  C   LIG    1        5.648   4.632  -2.895  0.00  0.00    +0.005 C 
BRANCH  21  22
ATOM     22  C   LIG    1        6.218   5.785  -3.740  0.00  0.00    +0.140 C 
BRANCH  22  23
ATOM     23  O   LIG    1        5.389   6.928  -3.554  0.00  0.00    -0.388 OA
ATOM     24  H   LIG    1        4.483   6.687  -3.817  0.00  0.00    +0.210 HD
ENDBRANCH  22  23
BRANCH  22  25
ATOM     25  C   LIG    1        7.650   6.199  -3.327  0.00  0.00    +0.067 C 
BRANCH  25  26
ATOM     26  C   LIG    1        8.285   7.438  -4.023  0.00  0.00    +0.128 C 
BRANCH  26  27
ATOM     27  O   LIG    1        9.636   7.584  -3.522  0.00  0.00    -0.391 OA
ATOM     28  H   LIG    1        9.575   7.597  -2.545  0.00  0.00    +0.210 HD
ENDBRANCH  26  27
BRANCH  26  29
ATOM     29  C   LIG    1        8.342   7.297  -5.571  0.00  0.00    +0.151 C 
BRANCH  29  30
ATOM     30  C   LIG    1        9.051   8.457  -6.310  0.00  0.00    +0.307 C 
ATOM     31  O   LIG    1        8.718   8.832  -7.402  0.00  0.00    -0.251 OA
BRANCH  30  32
ATOM     32  O   LIG    1       10.164   8.928  -5.650  0.00  0.00    -0.481 OA
ATOM     33  H   LIG    1       10.358   8.533  -4.822  0.00  0.00    +0.295 HD
ENDBRANCH  30  32
ENDBRANCH  29  30
ENDBRANCH  26  29
ENDBRANCH  25  26
ENDBRANCH  22  25
ENDBRANCH  21  22
ENDBRANCH   3  20
BRANCH   1  34
ATOM     34  C   LIG    1        1.470   0.592  -0.988  0.00  0.00    +0.197 C 
BRANCH  34  36
ATOM     35  C   LIG    1        0.545   2.741  -0.521  0.00  0.00    +0.194 C 
ATOM     36  O   LIG    1        0.950   1.491  -0.001  0.00  0.00    -0.378 OA
ENDBRANCH  34  36
ENDBRANCH   1  34
TORSDOF 14
