REMARK  Name = *****
REMARK                            x       y       z     vdW  Elec       q    Type
REMARK                         _______ _______ _______ _____ _____    ______ ____
ROOT
ATOM      1  C   LIG    1        6.313  -2.206   1.307  0.00  0.00    +0.094 C 
ENDROOT
BRANCH   1   2
ATOM      2  C   LIG    1        7.768  -2.177   1.753  0.00  0.00    -0.038 A 
ATOM      3  C   LIG    1        8.200  -3.043   2.771  0.00  0.00    +0.004 A 
ATOM      4  C   LIG    1        9.514  -2.988   3.242  0.00  0.00    +0.000 A 
ATOM      5  C   LIG    1       10.416  -2.078   2.695  0.00  0.00    +0.000 A 
ATOM      6  C   LIG    1       10.008  -1.228   1.673  0.00  0.00    +0.000 A 
ATOM      7  C   LIG    1        8.697  -1.283   1.200  0.00  0.00    +0.004 A 
ENDBRANCH   1   2
BRANCH   1   8
ATOM      8  C   LIG    1        5.811  -0.806   0.904  0.00  0.00    +0.245 C 
BRANCH   8   9
ATOM      9  O   LIG    1        4.381  -0.760   0.785  0.00  0.00    -0.450 OA
BRANCH   9  13
ATOM     10  N   LIG    1        2.423  -0.248   1.648  0.00  0.00    -0.295 N 
ATOM     11  H   LIG    1        2.185  -0.127   0.678  0.00  0.00    +0.148 HD
ATOM     12  H   LIG    1        1.877   0.211   2.361  0.00  0.00    +0.148 HD
ATOM     13  C   LIG    1        3.722  -0.494   1.941  0.00  0.00    +0.398 C 
ATOM     14  O   LIG    1        4.195  -0.420   3.057  0.00  0.00    -0.227 OA
ENDBRANCH   9  13
ENDBRANCH   8   9
ENDBRANCH   1   8
BRANCH   1  15
ATOM     15  C   LIG    1        6.031  -3.308   0.265  0.00  0.00    +0.245 C 
BRANCH  15  16
ATOM     16  O   LIG    1        6.513  -2.993  -1.054  0.00  0.00    -0.450 OA
BRANCH  16  17
ATOM     17  C   LIG    1        7.695  -3.550  -1.401  0.00  0.00    +0.398 C 
ATOM     18  O   LIG    1        8.434  -4.213  -0.687  0.00  0.00    -0.227 OA
ATOM     19  N   LIG    1        7.967  -3.308  -2.702  0.00  0.00    -0.295 N 
ATOM     20  H   LIG    1        8.785  -3.743  -3.104  0.00  0.00    +0.148 HD
ATOM     21  H   LIG    1        7.300  -2.829  -3.284  0.00  0.00    +0.148 HD
ENDBRANCH  16  17
ENDBRANCH  15  16
ENDBRANCH   1  15
TORSDOF 7
