REMARK  Name = *****
REMARK                            x       y       z     vdW  Elec       q    Type
REMARK                         _______ _______ _______ _____ _____    ______ ____
ROOT
ATOM      1  C   LIG    1        9.847   1.081  -3.741  0.00  0.00    -0.021 C 
ATOM      2  C   LIG    1       11.187   1.142  -3.891  0.00  0.00    -0.035 C 
ATOM      3  C   LIG    1       12.151   0.282  -3.078  0.00  0.00    +0.059 C 
ATOM      4  C   LIG    1       13.079  -0.639  -3.957  0.00  0.00    +0.085 C 
ATOM      5  C   LIG    1       14.558  -0.476  -3.707  0.00  0.00    -0.011 C 
ATOM      6  C   LIG    1       15.075   0.451  -2.843  0.00  0.00    +0.009 C 
ATOM      7  C   LIG    1       14.233   1.322  -2.057  0.00  0.00    +0.051 C 
ATOM      8  S   LIG    1       12.856  -0.492  -5.790  0.00  0.00    -0.116 S 
ATOM      9  C   LIG    1       12.674   1.282  -5.870  0.00  0.00    +0.016 A 
ATOM     10  C   LIG    1       13.363   2.011  -6.843  0.00  0.00    +0.015 A 
ATOM     11  C   LIG    1       13.289   3.405  -6.850  0.00  0.00    +0.001 A 
ATOM     12  C   LIG    1       12.534   4.070  -5.884  0.00  0.00    +0.001 A 
ATOM     13  C   LIG    1       11.828   3.344  -4.923  0.00  0.00    +0.009 A 
ATOM     14  C   LIG    1       12.884   1.203  -2.118  0.00  0.00    -0.005 C 
ATOM     15  C   LIG    1       11.872   1.945  -4.926  0.00  0.00    -0.008 A 
ENDROOT
BRANCH   7  16
ATOM     16  C   LIG    1       14.889   2.374  -1.196  0.00  0.00    +0.417 C 
ATOM     17  F   LIG    1       14.580   2.213   0.116  0.00  0.00    -0.166 F 
ATOM     18  F   LIG    1       14.486   3.626  -1.540  0.00  0.00    -0.166 F 
ATOM     19  F   LIG    1       16.245   2.367  -1.282  0.00  0.00    -0.166 F 
ENDBRANCH   7  16
BRANCH   1  20
ATOM     20  C   LIG    1        8.797   1.810  -4.542  0.00  0.00    +0.043 C 
BRANCH  20  21
ATOM     21  C   LIG    1        8.361   0.999  -5.780  0.00  0.00    +0.088 C 
BRANCH  21  25
ATOM     22  N   LIG    1        5.458   2.894  -8.286  0.00  0.00    -0.298 NA
ATOM     23  C   LIG    1        6.734   3.599  -8.111  0.00  0.00    +0.100 C 
ATOM     24  C   LIG    1        7.695   3.008  -7.052  0.00  0.00    +0.100 C 
ATOM     25  N   LIG    1        7.348   1.654  -6.608  0.00  0.00    -0.300 NA
ATOM     26  C   LIG    1        6.832   0.805  -7.687  0.00  0.00    +0.100 C 
ATOM     27  C   LIG    1        5.743   1.478  -8.569  0.00  0.00    +0.100 C 
BRANCH  22  28
ATOM     28  C   LIG    1        4.474   3.109  -7.206  0.00  0.00    +0.112 C 
BRANCH  28  29
ATOM     29  C   LIG    1        4.654   2.555  -5.769  0.00  0.00    +0.171 C 
BRANCH  29  30
ATOM     30  O   LIG    1        5.574   3.276  -4.950  0.00  0.00    -0.394 OA
ATOM     31  H   LIG    1        5.610   4.193  -5.275  0.00  0.00    +0.209 HD
ENDBRANCH  29  30
ENDBRANCH  28  29
ENDBRANCH  22  28
ENDBRANCH  21  25
ENDBRANCH  20  21
ENDBRANCH   1  20
TORSDOF 7
