REMARK  Name = *****
REMARK                            x       y       z     vdW  Elec       q    Type
REMARK                         _______ _______ _______ _____ _____    ______ ____
ROOT
ATOM      1  C   LIG    1        3.396   0.517  -1.121  0.00  0.00    +0.387 C 
ATOM      2  F   LIG    1        3.043   1.823  -1.047  0.00  0.00    -0.172 F 
ATOM      3  F   LIG    1        2.411  -0.126  -1.803  0.00  0.00    -0.172 F 
ENDROOT
BRANCH   1   4
ATOM      4  C   LIG    1        4.743   0.329  -1.833  0.00  0.00    +0.270 C 
ATOM      5 CL   LIG    1        6.077   1.190  -1.000  0.00  0.00    -0.095 Cl
ATOM      6 CL   LIG    1        4.682   0.884  -3.535  0.00  0.00    -0.095 Cl
ENDBRANCH   1   4
BRANCH   1   8
ATOM      7  C   LIG    1        2.181   0.198   0.869  0.00  0.00    +0.200 C 
ATOM      8  O   LIG    1        3.413  -0.025   0.200  0.00  0.00    -0.321 OA
ENDBRANCH   1   8
TORSDOF 2
