REMARK  Name = *****
REMARK                            x       y       z     vdW  Elec       q    Type
REMARK                         _______ _______ _______ _____ _____    ______ ____
ROOT
ATOM      1  C   LIG    1       -4.970   1.207   4.030  0.00  0.00    +0.129 C 
ATOM      2  C   LIG    1       -4.689  -0.301   4.319  0.00  0.00    +0.061 C 
ATOM      3  C   LIG    1       -3.461  -0.826   3.551  0.00  0.00    +0.190 C 
ATOM      4  C   LIG    1       -3.045  -2.216   4.001  0.00  0.00    +0.141 C 
ATOM      5  C   LIG    1       -3.405  -2.742   5.190  0.00  0.00    +0.046 C 
ATOM      6  C   LIG    1       -4.291  -2.027   6.177  0.00  0.00    +0.060 C 
ATOM      7  C   LIG    1       -3.791  -2.208   7.626  0.00  0.00    +0.154 C 
ATOM      8  C   LIG    1       -3.534  -3.653   7.974  0.00  0.00    +0.014 A 
ATOM      9  C   LIG    1       -3.130  -4.560   6.973  0.00  0.00    +0.070 A 
ATOM     10  C   LIG    1       -2.856  -5.898   7.305  0.00  0.00    +0.128 A 
ATOM     11  C   LIG    1       -2.978  -6.347   8.615  0.00  0.00    +0.047 A 
ATOM     12  C   LIG    1       -3.360  -5.458   9.614  0.00  0.00    +0.024 A 
ATOM     13  C   LIG    1       -3.629  -4.122   9.299  0.00  0.00    +0.048 A 
ATOM     14 CL   LIG    1       -4.050  -3.075  10.608  0.00  0.00    -0.083 Cl
ATOM     15  C   LIG    1       -2.958  -4.112   5.566  0.00  0.00    +0.197 C 
ATOM     16  O   LIG    1       -2.469  -4.874   4.733  0.00  0.00    -0.287 OA
ATOM     17  C   LIG    1       -2.303   0.172   3.772  0.00  0.00    +0.210 C 
ATOM     18  O   LIG    1       -1.285  -0.089   4.409  0.00  0.00    -0.288 OA
ATOM     19  C   LIG    1       -2.549   1.552   3.277  0.00  0.00    +0.121 C 
ATOM     20  C   LIG    1       -4.497  -0.535   5.836  0.00  0.00    +0.020 C 
ATOM     21  C   LIG    1       -3.807   2.007   3.434  0.00  0.00    +0.127 C 
ENDROOT
BRANCH  19  22
ATOM     22  C   LIG    1       -1.441   2.291   2.616  0.00  0.00    +0.248 C 
ATOM     23  O   LIG    1       -0.455   1.730   2.155  0.00  0.00    -0.270 OA
ATOM     24  N   LIG    1       -1.582   3.640   2.503  0.00  0.00    -0.325 N 
ATOM     25  H   LIG    1       -2.475   4.076   2.708  0.00  0.00    +0.145 HD
ATOM     26  H   LIG    1       -0.893   4.143   1.963  0.00  0.00    +0.145 HD
ENDBRANCH  19  22
BRANCH   1  28
ATOM     27  C   LIG    1       -7.427   1.173   3.958  0.00  0.00    +0.105 C 
ATOM     28  N   LIG    1       -6.198   1.530   3.243  0.00  0.00    -0.298 NA
ATOM     29  C   LIG    1       -6.215   0.933   1.900  0.00  0.00    +0.105 C 
ENDBRANCH   1  28
BRANCH   3  30
ATOM     30  O   LIG    1       -3.785  -0.918   2.163  0.00  0.00    -0.373 OA
ATOM     31  H   LIG    1       -3.118  -1.535   1.792  0.00  0.00    +0.211 HD
ENDBRANCH   3  30
BRANCH   4  32
ATOM     32  O   LIG    1       -2.317  -2.914   3.043  0.00  0.00    -0.507 OA
ATOM     33  H   LIG    1       -2.098  -3.802   3.405  0.00  0.00    +0.292 HD
ENDBRANCH   4  32
BRANCH   7  34
ATOM     34  O   LIG    1       -2.593  -1.470   7.827  0.00  0.00    -0.387 OA
ATOM     35  H   LIG    1       -2.256  -1.663   8.720  0.00  0.00    +0.210 HD
ENDBRANCH   7  34
BRANCH  10  36
ATOM     36  O   LIG    1       -2.455  -6.837   6.393  0.00  0.00    -0.506 OA
ATOM     37  H   LIG    1       -2.315  -6.391   5.527  0.00  0.00    +0.292 HD
ENDBRANCH  10  36
BRANCH  21  38
ATOM     38  O   LIG    1       -4.189   3.276   2.994  0.00  0.00    -0.509 OA
ATOM     39  H   LIG    1       -5.174   3.236   2.965  0.00  0.00    +0.292 HD
ENDBRANCH  21  38
TORSDOF 7
