REMARK  Name = *****
REMARK                            x       y       z     vdW  Elec       q    Type
REMARK                         _______ _______ _______ _____ _____    ______ ____
ROOT
ATOM      1  C   LIG    1        2.658  -2.716   0.647  0.00  0.00    +0.068 C 
ATOM      2  N   LIG    1        2.583  -3.478   1.926  0.00  0.00    -0.303 NA
ATOM      3  H   LIG    1        2.480  -2.795   2.680  0.00  0.00    +0.123 HD
ATOM      4  C   LIG    1        3.733  -4.352   2.197  0.00  0.00    +0.107 C 
ATOM      5  C   LIG    1        5.141  -3.708   2.050  0.00  0.00    +0.048 C 
ATOM      6  N   LIG    1        5.488  -2.954   3.232  0.00  0.00    -0.308 N 
ATOM      7  H   LIG    1        5.110  -2.059   3.507  0.00  0.00    +0.149 HD
ATOM      8  C   LIG    1        6.226  -3.689   4.150  0.00  0.00    +0.213 C 
ATOM      9  O   LIG    1        6.513  -3.329   5.267  0.00  0.00    -0.276 OA
ATOM     10  C   LIG    1        6.538  -5.037   3.521  0.00  0.00    +0.098 C 
ATOM     11  C   LIG    1        6.238  -4.789   2.046  0.00  0.00    +0.036 C 
ATOM     12  C   LIG    1        5.222  -2.858   0.780  0.00  0.00    +0.029 C 
ATOM     13  C   LIG    1        4.006  -1.940   0.636  0.00  0.00    +0.031 C 
ENDROOT
BRANCH   1  14
ATOM     14  C   LIG    1        2.454  -3.613  -0.602  0.00  0.00    -0.025 A 
ATOM     15  C   LIG    1        1.691  -4.795  -0.537  0.00  0.00    +0.005 A 
ATOM     16  C   LIG    1        1.470  -5.589  -1.670  0.00  0.00    +0.000 A 
ATOM     17  C   LIG    1        1.999  -5.218  -2.901  0.00  0.00    +0.000 A 
ATOM     18  C   LIG    1        2.749  -4.053  -3.000  0.00  0.00    +0.000 A 
ATOM     19  C   LIG    1        2.965  -3.257  -1.868  0.00  0.00    +0.005 A 
ENDBRANCH   1  14
BRANCH   1  20
ATOM     20  C   LIG    1        1.474  -1.674   0.671  0.00  0.00    +0.187 C 
BRANCH  20  21
ATOM     21  O   LIG    1        1.551  -0.812   1.833  0.00  0.00    -0.370 OA
BRANCH  21  23
ATOM     22  C   LIG    1        0.826   1.204   2.945  0.00  0.00    +0.043 C 
ATOM     23  C   LIG    1        0.472   0.141   1.904  0.00  0.00    +0.145 C 
BRANCH  23  24
ATOM     24  C   LIG    1       -0.847  -0.515   2.278  0.00  0.00    -0.018 A 
ATOM     25  C   LIG    1       -2.050  -0.022   1.751  0.00  0.00    +0.018 A 
ATOM     26  C   LIG    1       -3.273  -0.661   2.014  0.00  0.00    +0.056 A 
ATOM     27  C   LIG    1       -3.283  -1.792   2.846  0.00  0.00    +0.024 A 
ATOM     28  C   LIG    1       -2.096  -2.277   3.420  0.00  0.00    +0.056 A 
ATOM     29  C   LIG    1       -0.889  -1.622   3.138  0.00  0.00    +0.018 A 
BRANCH  26  30
ATOM     30  C   LIG    1       -4.537  -0.141   1.370  0.00  0.00    +0.417 C 
ATOM     31  F   LIG    1       -4.448  -0.119   0.011  0.00  0.00    -0.166 F 
ATOM     32  F   LIG    1       -4.828   1.134   1.745  0.00  0.00    -0.166 F 
ATOM     33  F   LIG    1       -5.643  -0.881   1.659  0.00  0.00    -0.166 F 
ENDBRANCH  26  30
BRANCH  28  34
ATOM     34  C   LIG    1       -2.121  -3.504   4.301  0.00  0.00    +0.417 C 
ATOM     35  F   LIG    1       -2.604  -4.597   3.648  0.00  0.00    -0.166 F 
ATOM     36  F   LIG    1       -2.915  -3.341   5.395  0.00  0.00    -0.166 F 
ATOM     37  F   LIG    1       -0.897  -3.864   4.777  0.00  0.00    -0.166 F 
ENDBRANCH  28  34
ENDBRANCH  23  24
ENDBRANCH  21  23
ENDBRANCH  20  21
ENDBRANCH   1  20
TORSDOF 7
