REMARK  Name = *****
REMARK                            x       y       z     vdW  Elec       q    Type
REMARK                         _______ _______ _______ _____ _____    ______ ____
ROOT
ATOM      1  C   LIG    1        3.635  -2.948  -3.185  0.00  0.00    +0.165 C 
ENDROOT
BRANCH   1   4
ATOM      2  C   LIG    1        3.323   0.092  -0.878  0.00  0.00    +0.121 A 
ATOM      3  C   LIG    1        3.209  -1.191  -1.426  0.00  0.00    +0.055 A 
ATOM      4  C   LIG    1        3.681  -1.489  -2.724  0.00  0.00    +0.027 A 
ATOM      5  C   LIG    1        4.205  -0.433  -3.494  0.00  0.00    +0.126 A 
ATOM      6  C   LIG    1        4.297   0.856  -2.944  0.00  0.00    +0.049 A 
ATOM      7  C   LIG    1        3.865   1.115  -1.644  0.00  0.00    +0.049 A 
BRANCH   2   9
ATOM      8  C   LIG    1        2.968  -0.601   1.343  0.00  0.00    +0.277 C 
ATOM      9  O   LIG    1        2.917   0.447   0.380  0.00  0.00    -0.495 OA
ENDBRANCH   2   9
BRANCH   5  10
ATOM     10  O   LIG    1        4.606  -0.737  -4.767  0.00  0.00    -0.495 OA
ATOM     11  C   LIG    1        4.942   0.358  -5.611  0.00  0.00    +0.277 C 
ENDBRANCH   5  10
ENDBRANCH   1   4
BRANCH   1  12
ATOM     12  O   LIG    1        3.469  -3.122  -4.595  0.00  0.00    -0.386 OA
ATOM     13  H   LIG    1        2.851  -2.431  -4.891  0.00  0.00    +0.210 HD
ENDBRANCH   1  12
BRANCH   1  14
ATOM     14  C   LIG    1        4.837  -3.805  -2.715  0.00  0.00    +0.140 C 
BRANCH  14  15
ATOM     15  N   LIG    1        6.130  -3.341  -3.201  0.00  0.00    -0.311 N 
ATOM     16  H   LIG    1        6.125  -2.815  -4.074  0.00  0.00    +0.149 HD
ATOM     17  C   LIG    1        7.315  -3.663  -2.586  0.00  0.00    +0.227 C 
ATOM     18  O   LIG    1        7.393  -4.378  -1.570  0.00  0.00    -0.274 OA
BRANCH  17  19
ATOM     19  C   LIG    1        8.555  -3.041  -3.253  0.00  0.00    +0.174 C 
BRANCH  19  20
ATOM     20  N   LIG    1        9.592  -2.731  -2.251  0.00  0.00    -0.323 NA
ATOM     21  H   LIG    1        9.151  -2.201  -1.496  0.00  0.00    +0.119 HD
ATOM     22  H   LIG    1        9.856  -3.612  -1.803  0.00  0.00    +0.119 HD
ENDBRANCH  19  20
ENDBRANCH  17  19
ENDBRANCH  14  15
ENDBRANCH   1  14
TORSDOF 8
