REMARK  Name = *****
REMARK                            x       y       z     vdW  Elec       q    Type
REMARK                         _______ _______ _______ _____ _____    ______ ____
ROOT
ATOM      1  O   LIG    1        4.381  -0.465  -1.636  0.00  0.00    -0.454 OA
ENDROOT
BRANCH   1   2
ATOM      2  C   LIG    1        2.941  -0.556  -1.432  0.00  0.00    +0.123 C 
ATOM      3  C   LIG    1        2.693  -0.286   0.066  0.00  0.00    +0.057 C 
BRANCH   2   5
ATOM      4  C   LIG    1        3.157  -3.100  -0.951  0.00  0.00    +0.008 C 
ATOM      5  C   LIG    1        2.437  -2.004  -1.738  0.00  0.00    +0.045 C 
ENDBRANCH   2   5
BRANCH   2   6
ATOM      6  C   LIG    1        2.172   0.501  -2.306  0.00  0.00    +0.131 C 
BRANCH   6   7
ATOM      7  N   LIG    1        2.380   1.956  -2.046  0.00  0.00    -0.305 NA
ATOM      8  C   LIG    1        1.515   2.752  -2.927  0.00  0.00    +0.104 C 
ATOM      9  C   LIG    1        3.766   2.391  -2.223  0.00  0.00    +0.104 C 
ENDBRANCH   6   7
ENDBRANCH   2   6
ENDBRANCH   1   2
BRANCH   1  10
ATOM     10  C   LIG    1        4.946  -0.906  -2.783  0.00  0.00    +0.340 C 
ATOM     11  O   LIG    1        4.367  -1.368  -3.768  0.00  0.00    -0.245 OA
BRANCH  10  12
ATOM     12  C   LIG    1        6.420  -0.843  -2.693  0.00  0.00    +0.059 A 
ATOM     13  C   LIG    1        7.177  -1.528  -3.654  0.00  0.00    +0.015 A 
ATOM     14  C   LIG    1        8.569  -1.520  -3.589  0.00  0.00    +0.001 A 
ATOM     15  C   LIG    1        9.211  -0.824  -2.566  0.00  0.00    +0.000 A 
ATOM     16  C   LIG    1        8.465  -0.131  -1.611  0.00  0.00    +0.001 A 
ATOM     17  C   LIG    1        7.072  -0.138  -1.672  0.00  0.00    +0.015 A 
ENDBRANCH  10  12
ENDBRANCH   1  10
TORSDOF 6
