REMARK  Name = *****
REMARK                            x       y       z     vdW  Elec       q    Type
REMARK                         _______ _______ _______ _____ _____    ______ ____
ROOT
ATOM      1  S   LIG    1        6.678  -0.176  -0.577  0.00  0.00    +0.025 S 
ATOM      2  O   LIG    1        7.401   0.394   0.546  0.00  0.00    -0.164 OA
ATOM      3  O   LIG    1        6.793   0.422  -1.897  0.00  0.00    -0.164 OA
ENDROOT
BRANCH   1   7
ATOM      4  C   LIG    1        2.231  -0.102   0.501  0.00  0.00    +0.025 A 
ATOM      5  C   LIG    1        2.637  -0.246  -0.829  0.00  0.00    +0.024 A 
ATOM      6  C   LIG    1        3.993  -0.262  -1.165  0.00  0.00    +0.029 A 
ATOM      7  C   LIG    1        4.951  -0.186  -0.153  0.00  0.00    +0.094 A 
ATOM      8  C   LIG    1        4.564  -0.090   1.185  0.00  0.00    +0.029 A 
ATOM      9  C   LIG    1        3.205  -0.077   1.505  0.00  0.00    +0.024 A 
BRANCH   4  10
ATOM     10  N   LIG    1        0.877  -0.209   0.839  0.00  0.00    -0.358 N 
ATOM     11  H   LIG    1        0.246   0.096   0.103  0.00  0.00    +0.142 HD
ATOM     12  H   LIG    1        0.644   0.208   1.735  0.00  0.00    +0.142 HD
ENDBRANCH   4  10
ENDBRANCH   1   7
BRANCH   1  13
ATOM     13  C   LIG    1        7.169  -1.878  -0.716  0.00  0.00    +0.094 A 
ATOM     14  C   LIG    1        7.072  -2.528  -1.948  0.00  0.00    +0.029 A 
ATOM     15  C   LIG    1        7.467  -3.864  -2.051  0.00  0.00    +0.024 A 
ATOM     16  C   LIG    1        8.006  -4.540  -0.952  0.00  0.00    +0.025 A 
ATOM     17  C   LIG    1        8.053  -3.887   0.284  0.00  0.00    +0.024 A 
ATOM     18  C   LIG    1        7.664  -2.550   0.403  0.00  0.00    +0.029 A 
BRANCH  16  19
ATOM     19  N   LIG    1        8.275  -5.911  -1.034  0.00  0.00    -0.358 N 
ATOM     20  H   LIG    1        8.524  -6.225  -1.966  0.00  0.00    +0.142 HD
ATOM     21  H   LIG    1        8.930  -6.244  -0.333  0.00  0.00    +0.142 HD
ENDBRANCH  16  19
ENDBRANCH   1  13
TORSDOF 4
