REMARK  Name = *****
REMARK                            x       y       z     vdW  Elec       q    Type
REMARK                         _______ _______ _______ _____ _____    ______ ____
ROOT
ATOM      1  C   LIG    1        1.201  -0.582  -0.598  0.00  0.00    +0.138 C 
ATOM      2  N   LIG    1        2.394   0.117  -0.133  0.00  0.00    -0.272 N 
ATOM      3  C   LIG    1        2.740   1.277  -0.821  0.00  0.00    +0.228 C 
ATOM      4  O   LIG    1        2.061   1.731  -1.744  0.00  0.00    -0.275 OA
ATOM      5  C   LIG    1        4.033   1.920  -0.442  0.00  0.00    +0.193 C 
ATOM      6  C   LIG    1        3.906   2.525   0.918  0.00  0.00    +0.233 C 
ATOM      7  O   LIG    1        3.787   3.748   1.018  0.00  0.00    -0.274 OA
ATOM      8  N   LIG    1        3.936   1.625   1.989  0.00  0.00    -0.238 N 
ATOM      9  C   LIG    1        3.991   0.194   1.810  0.00  0.00    +0.064 A 
ATOM     10  C   LIG    1        4.829  -0.544   2.682  0.00  0.00    +0.045 A 
ATOM     11  C   LIG    1        4.886  -1.934   2.638  0.00  0.00    +0.043 A 
ATOM     12 CL   LIG    1        5.910  -2.788   3.722  0.00  0.00    -0.084 Cl
ATOM     13  C   LIG    1        4.116  -2.629   1.722  0.00  0.00    +0.022 A 
ATOM     14  C   LIG    1        3.303  -1.925   0.832  0.00  0.00    +0.027 A 
ATOM     15  C   LIG    1        3.241  -0.513   0.835  0.00  0.00    +0.058 A 
ENDROOT
BRANCH   8  16
ATOM     16  C   LIG    1        3.898   2.119   3.347  0.00  0.00    +0.041 A 
ATOM     17  C   LIG    1        3.189   1.429   4.350  0.00  0.00    +0.024 A 
ATOM     18  C   LIG    1        3.148   1.902   5.665  0.00  0.00    +0.002 A 
ATOM     19  C   LIG    1        3.808   3.079   6.002  0.00  0.00    +0.000 A 
ATOM     20  C   LIG    1        4.502   3.785   5.025  0.00  0.00    +0.002 A 
ATOM     21  C   LIG    1        4.543   3.311   3.709  0.00  0.00    +0.024 A 
ENDBRANCH   8  16
TORSDOF 1
