REMARK  Name = *****
REMARK                            x       y       z     vdW  Elec       q    Type
REMARK                         _______ _______ _______ _____ _____    ______ ____
ROOT
ATOM      1  C   LIG    1       -0.752  -5.159  11.822  0.00  0.00    +0.132 A 
ATOM      2  C   LIG    1       -1.704  -4.436  11.071  0.00  0.00    +0.075 A 
ATOM      3  C   LIG    1       -1.728  -4.442   9.581  0.00  0.00    +0.202 C 
ATOM      4  C   LIG    1       -2.743  -3.638   8.853  0.00  0.00    +0.078 A 
ATOM      5  C   LIG    1       -3.629  -2.819   9.547  0.00  0.00    +0.078 A 
ATOM      6  C   LIG    1       -3.658  -2.866  11.019  0.00  0.00    +0.198 C 
ATOM      7  O   LIG    1       -4.497  -2.217  11.623  0.00  0.00    -0.286 OA
ATOM      8  C   LIG    1       -4.512  -1.972   8.849  0.00  0.00    +0.132 A 
ATOM      9  C   LIG    1       -4.549  -1.979   7.455  0.00  0.00    +0.007 A 
ATOM     10  C   LIG    1       -5.447  -1.065   6.648  0.00  0.00    +0.082 C 
ATOM     11  C   LIG    1       -4.834  -0.634   5.287  0.00  0.00    +0.133 C 
ATOM     12  C   LIG    1       -3.873  -1.686   4.666  0.00  0.00    +0.079 C 
ATOM     13  C   LIG    1       -4.030  -3.087   5.282  0.00  0.00    +0.158 C 
ATOM     14  C   LIG    1       -3.778  -2.929   6.764  0.00  0.00    +0.030 A 
ATOM     15  C   LIG    1       -2.836  -3.704   7.454  0.00  0.00    +0.135 A 
ATOM     16  O   LIG    1       -0.948  -5.104   8.915  0.00  0.00    -0.286 OA
ATOM     17  C   LIG    1       -2.685  -3.701  11.748  0.00  0.00    +0.037 A 
ATOM     18  C   LIG    1       -2.763  -3.722  13.148  0.00  0.00    +0.012 A 
ATOM     19  C   LIG    1       -1.845  -4.458  13.882  0.00  0.00    +0.004 A 
ATOM     20  C   LIG    1       -0.842  -5.162  13.223  0.00  0.00    +0.046 A 
ENDROOT
BRANCH   1  22
ATOM     21  C   LIG    1        1.181  -6.566  11.917  0.00  0.00    +0.277 C 
ATOM     22  O   LIG    1        0.240  -5.823  11.149  0.00  0.00    -0.494 OA
ENDBRANCH   1  22
BRANCH   8  23
ATOM     23  O   LIG    1       -5.380  -1.129   9.493  0.00  0.00    -0.506 OA
ATOM     24  H   LIG    1       -5.327  -1.307  10.460  0.00  0.00    +0.292 HD
ENDBRANCH   8  23
BRANCH  11  25
ATOM     25  O   LIG    1       -5.925  -0.439   4.369  0.00  0.00    -0.381 OA
ATOM     26  H   LIG    1       -5.552  -0.211   3.497  0.00  0.00    +0.211 HD
ENDBRANCH  11  25
BRANCH  11  27
ATOM     27  C   LIG    1       -4.104   0.728   5.472  0.00  0.00    +0.190 C 
ATOM     28  O   LIG    1       -2.914   0.808   5.793  0.00  0.00    -0.292 OA
BRANCH  27  29
ATOM     29  C   LIG    1       -4.935   2.007   5.310  0.00  0.00    +0.233 C 
BRANCH  29  30
ATOM     30  O   LIG    1       -4.154   3.121   4.897  0.00  0.00    -0.387 OA
ATOM     31  H   LIG    1       -3.399   3.176   5.512  0.00  0.00    +0.210 HD
ENDBRANCH  29  30
ENDBRANCH  27  29
ENDBRANCH  11  27
BRANCH  15  32
ATOM     32  O   LIG    1       -2.022  -4.514   6.707  0.00  0.00    -0.506 OA
ATOM     33  H   LIG    1       -1.380  -4.959   7.308  0.00  0.00    +0.292 HD
ENDBRANCH  15  32
BRANCH  13  34
ATOM     34  O   LIG    1       -5.361  -3.569   5.004  0.00  0.00    -0.343 OA
BRANCH  34  35
ATOM     35  C   LIG    1       -5.664  -4.880   5.529  0.00  0.00    +0.253 C 
ATOM     36  O   LIG    1       -4.678  -5.806   5.101  0.00  0.00    -0.346 OA
ATOM     37  C   LIG    1       -4.999  -7.183   5.288  0.00  0.00    +0.148 C 
ATOM     38  C   LIG    1       -5.152  -7.582   6.757  0.00  0.00    +0.040 C 
ATOM     39  C   LIG    1       -6.187  -7.505   4.386  0.00  0.00    +0.160 C 
ATOM     40  C   LIG    1       -7.432  -6.684   4.765  0.00  0.00    +0.087 C 
ATOM     41  C   LIG    1       -7.110  -5.218   5.088  0.00  0.00    +0.082 C 
BRANCH  40  42
ATOM     42  N   LIG    1       -8.206  -7.324   5.848  0.00  0.00    -0.325 NA
ATOM     43  H   LIG    1       -9.203  -7.224   5.656  0.00  0.00    +0.119 HD
ATOM     44  H   LIG    1       -8.019  -8.332   5.821  0.00  0.00    +0.119 HD
ENDBRANCH  40  42
BRANCH  39  45
ATOM     45  O   LIG    1       -6.494  -8.904   4.381  0.00  0.00    -0.388 OA
ATOM     46  H   LIG    1       -7.166  -9.039   3.690  0.00  0.00    +0.210 HD
ENDBRANCH  39  45
ENDBRANCH  34  35
ENDBRANCH  13  34
TORSDOF 11
