REMARK  Name = *****
REMARK                            x       y       z     vdW  Elec       q    Type
REMARK                         _______ _______ _______ _____ _____    ______ ____
ROOT
ATOM      1  N   LIG    1        6.111   1.606  -1.032  0.00  0.00    -0.310 N 
ATOM      2  H   LIG    1        5.809   0.948  -1.736  0.00  0.00    +0.149 HD
ATOM      3  C   LIG    1        6.579   2.832  -1.460  0.00  0.00    +0.248 C 
ATOM      4  O   LIG    1        6.861   3.733  -0.688  0.00  0.00    -0.270 OA
ENDROOT
BRANCH   3   5
ATOM      5  C   LIG    1        6.694   3.071  -2.939  0.00  0.00    +0.080 A 
ATOM      6  C   LIG    1        6.311   2.151  -3.939  0.00  0.00    +0.134 A 
ATOM      7  C   LIG    1        6.276   2.548  -5.290  0.00  0.00    +0.078 A 
ATOM      8  C   LIG    1        6.718   3.831  -5.638  0.00  0.00    +0.116 A 
ATOM      9  C   LIG    1        7.189   4.678  -4.652  0.00  0.00    +0.087 A 
ATOM     10  N   LIG    1        7.568   5.790  -5.349  0.00  0.00    -0.257 N 
ATOM     11  H   LIG    1        7.990   6.647  -5.014  0.00  0.00    +0.191 HD
ATOM     12  N   LIG    1        7.311   5.664  -6.662  0.00  0.00    -0.067 NA
ATOM     13  N   LIG    1        6.789   4.458  -6.852  0.00  0.00    -0.130 NA
ATOM     14  C   LIG    1        7.195   4.345  -3.297  0.00  0.00    +0.046 A 
BRANCH   6  15
ATOM     15  O   LIG    1        5.957   0.876  -3.555  0.00  0.00    -0.494 OA
ATOM     16  C   LIG    1        6.129  -0.145  -4.540  0.00  0.00    +0.277 C 
ENDBRANCH   6  15
ENDBRANCH   3   5
BRANCH   1  17
ATOM     17  C   LIG    1        5.927   1.274   0.369  0.00  0.00    +0.123 C 
BRANCH  17  19
ATOM     18  N   LIG    1        8.413   0.817   1.123  0.00  0.00    -0.294 NA
ATOM     19  C   LIG    1        7.018   0.368   1.007  0.00  0.00    +0.074 C 
ATOM     20  C   LIG    1        7.201  -0.942   0.238  0.00  0.00    +0.021 C 
ATOM     21  C   LIG    1        8.379  -0.694  -0.694  0.00  0.00    +0.017 C 
ATOM     22  C   LIG    1        9.083   0.538  -0.142  0.00  0.00    +0.085 C 
BRANCH  18  23
ATOM     23  C   LIG    1        8.617   2.165   1.642  0.00  0.00    +0.111 C 
BRANCH  23  25
ATOM     24  C   LIG    1       10.481   2.723   3.259  0.00  0.00    +0.005 C 
ATOM     25  C   LIG    1       10.054   2.396   2.032  0.00  0.00    -0.019 C 
ENDBRANCH  23  25
ENDBRANCH  18  23
ENDBRANCH  17  19
ENDBRANCH   1  17
TORSDOF 6
