REMARK  Name = *****
REMARK                            x       y       z     vdW  Elec       q    Type
REMARK                         _______ _______ _______ _____ _____    ______ ____
ROOT
ATOM      1  C   LIG    1        3.225  -1.079  -0.097  0.00  0.00    +0.058 C 
ATOM      2  C   LIG    1        3.325  -1.870  -1.409  0.00  0.00    +0.220 C 
ENDROOT
BRANCH   2   3
ATOM      3  O   LIG    1        4.720  -2.188  -1.616  0.00  0.00    -0.442 OA
BRANCH   3   4
ATOM      4  C   LIG    1        5.551  -1.145  -1.828  0.00  0.00    +0.398 C 
ATOM      5  O   LIG    1        5.208  -0.015  -2.158  0.00  0.00    -0.227 OA
ATOM      6  N   LIG    1        6.821  -1.492  -1.593  0.00  0.00    -0.295 N 
ATOM      7  H   LIG    1        7.471  -0.729  -1.451  0.00  0.00    +0.148 HD
ATOM      8  H   LIG    1        7.009  -2.371  -1.127  0.00  0.00    +0.148 HD
ENDBRANCH   3   4
ENDBRANCH   2   3
BRANCH   2   9
ATOM      9  C   LIG    1        2.634  -1.158  -2.604  0.00  0.00    +0.177 C 
BRANCH   9  10
ATOM     10  N   LIG    1        2.639  -1.949  -3.954  0.00  0.00    +0.239 N 
ATOM     11  C   LIG    1        1.901  -3.271  -3.828  0.00  0.00    +0.192 C 
ATOM     12  C   LIG    1        4.049  -2.204  -4.480  0.00  0.00    +0.192 C 
ATOM     13  C   LIG    1        1.924  -1.081  -4.997  0.00  0.00    +0.192 C 
ENDBRANCH   9  10
ENDBRANCH   2   9
TORSDOF 4
