REMARK  Name = *****
REMARK                            x       y       z     vdW  Elec       q    Type
REMARK                         _______ _______ _______ _____ _____    ______ ____
ROOT
ATOM      1  N   LIG    1        5.534  -1.522  -0.787  0.00  0.00    -0.180 NA
ATOM      2  C   LIG    1        5.715  -2.801  -0.733  0.00  0.00    +0.177 C 
ENDROOT
BRANCH   1   9
ATOM      3  O   LIG    1        1.933   1.519  -0.259  0.00  0.00    -0.274 OA
ATOM      4  C   LIG    1        2.599   0.495  -0.309  0.00  0.00    +0.240 C 
ATOM      5  N   LIG    1        2.109  -0.755  -0.128  0.00  0.00    -0.237 N 
ATOM      6  H   LIG    1        1.150  -0.984   0.060  0.00  0.00    +0.159 HD
ATOM      7  C   LIG    1        3.088  -1.688  -0.265  0.00  0.00    +0.328 C 
ATOM      8  O   LIG    1        2.888  -2.887  -0.160  0.00  0.00    -0.250 OA
ATOM      9  N   LIG    1        4.288  -1.010  -0.541  0.00  0.00    -0.168 N 
ATOM     10  C   LIG    1        4.089   0.421  -0.570  0.00  0.00    +0.232 C 
ENDBRANCH   1   9
BRANCH   2  11
ATOM     11  C   LIG    1        7.009  -3.367  -0.991  0.00  0.00    +0.154 A 
ATOM     12  O   LIG    1        7.138  -4.725  -0.869  0.00  0.00    -0.399 OA
ATOM     13  C   LIG    1        8.435  -5.013  -1.150  0.00  0.00    +0.438 A 
ATOM     14  C   LIG    1        9.150  -3.881  -1.458  0.00  0.00    +0.132 A 
ATOM     15  C   LIG    1        8.224  -2.811  -1.352  0.00  0.00    +0.058 A 
BRANCH  13  16
ATOM     16  N   LIG    1        8.809  -6.390  -1.076  0.00  0.00    +0.119 N 
ATOM     17  O   LIG    1        7.941  -7.209  -0.750  0.00  0.00    -0.574 OA
ATOM     18  O   LIG    1        9.989  -6.651  -1.345  0.00  0.00    +0.045 OA
ENDBRANCH  13  16
ENDBRANCH   2  11
TORSDOF 3
