REMARK  Name = *****
REMARK                            x       y       z     vdW  Elec       q    Type
REMARK                         _______ _______ _______ _____ _____    ______ ____
ROOT
ATOM      1  CA  LIG    1       -4.995   2.930  -0.606  0.00  0.00    +0.191 C 
ATOM      2  C   LIG    1       -4.485   3.835  -1.782  0.00  0.00    +0.169 C 
ATOM      3  N   LIG    1       -4.542   4.934  -0.835  0.00  0.00    -0.249 N 
ATOM      4  CA  LIG    1       -4.702   6.267  -1.103  0.00  0.00    +0.127 C 
ATOM      5  C   LIG    1       -4.856   6.718  -2.383  0.00  0.00    +0.013 C 
ATOM      6  C   LIG    1       -4.709   5.748  -3.549  0.00  0.00    +0.109 C 
ATOM      7  S   LIG    1       -5.581   4.185  -3.175  0.00  0.00    -0.131 S 
ATOM      8  C   LIG    1       -4.430   4.136   0.269  0.00  0.00    +0.244 C 
ATOM      9  O   LIG    1       -4.112   4.343   1.402  0.00  0.00    -0.273 OA
ENDROOT
BRANCH   1  11
ATOM     10  C   LIG    1       -7.021   1.887   0.503  0.00  0.00    +0.268 C 
ATOM     11  N   LIG    1       -6.473   2.720  -0.463  0.00  0.00    -0.296 N 
ATOM     12  H   LIG    1       -7.123   3.063  -1.165  0.00  0.00    +0.150 HD
ATOM     13  O   LIG    1       -6.337   1.272   1.309  0.00  0.00    -0.268 OA
BRANCH  10  15
ATOM     14  N   LIG    1       -9.327   1.976  -0.499  0.00  0.00    -0.078 NA
ATOM     15  C   LIG    1       -8.565   1.792   0.545  0.00  0.00    +0.190 C 
BRANCH  15  16
ATOM     16  C   LIG    1       -9.306   1.518   1.791  0.00  0.00    +0.107 A 
ATOM     17  N   LIG    1      -10.708   1.428   1.768  0.00  0.00    -0.223 NA
ATOM     18  C   LIG    1      -11.185   1.103   2.940  0.00  0.00    +0.156 A 
ATOM     19  S   LIG    1      -10.015   0.952   4.181  0.00  0.00    -0.060 S 
ATOM     20  C   LIG    1       -8.773   1.317   3.051  0.00  0.00    +0.078 A 
BRANCH  18  21
ATOM     21  N   LIG    1      -12.493   0.915   3.172  0.00  0.00    -0.338 N 
ATOM     22  H   LIG    1      -13.136   1.242   2.460  0.00  0.00    +0.144 HD
ATOM     23  H   LIG    1      -12.842   0.954   4.120  0.00  0.00    +0.144 HD
ENDBRANCH  18  21
ENDBRANCH  15  16
BRANCH  14  25
ATOM     24  C   LIG    1       -9.495   2.924  -2.552  0.00  0.00    +0.313 C 
ATOM     25  O   LIG    1       -8.657   2.140  -1.709  0.00  0.00    -0.396 OA
ENDBRANCH  14  25
ENDBRANCH  10  15
ENDBRANCH   1  11
BRANCH   4  26
ATOM     26  C   LIG    1       -4.838   7.193   0.072  0.00  0.00    +0.351 C 
ATOM     27  O   LIG    1       -4.619   8.390   0.066  0.00  0.00    -0.244 OA
BRANCH  26  28
ATOM     28  OXT LIG    1       -5.375   6.583   1.135  0.00  0.00    -0.476 OA
ATOM     29  HXT LIG    1       -5.235   7.138   1.930  0.00  0.00    +0.295 HD
ENDBRANCH  26  28
ENDBRANCH   4  26
BRANCH   5  30
ATOM     30  C   LIG    1       -5.086   8.169  -2.811  0.00  0.00    +0.168 C 
BRANCH  30  31
ATOM     31  N   LIG    1       -6.560   8.677  -2.942  0.00  0.00    +0.244 N 
ATOM     32  C   LIG    1       -6.574  10.131  -3.480  0.00  0.00    +0.133 C 
ATOM     33  C   LIG    1       -7.039  10.055  -4.924  0.00  0.00    +0.056 C 
ATOM     34  C   LIG    1       -7.177   8.588  -5.269  0.00  0.00    +0.056 C 
ATOM     35  C   LIG    1       -7.396   7.894  -3.947  0.00  0.00    +0.133 C 
ATOM     36  C   LIG    1       -7.269   8.681  -1.598  0.00  0.00    +0.192 C 
ENDBRANCH  30  31
ENDBRANCH   5  30
TORSDOF 9
