REMARK  Name = *****
REMARK                            x       y       z     vdW  Elec       q    Type
REMARK                         _______ _______ _______ _____ _____    ______ ____
ROOT
ATOM      1  C   LIG    1        4.195   0.923  -2.350  0.00  0.00    +0.318 C 
ATOM      2 CL   LIG    1        4.379  -0.142  -0.904  0.00  0.00    -0.081 Cl
ENDROOT
BRANCH   1   3
ATOM      3  C   LIG    1        5.534   1.599  -2.732  0.00  0.00    +0.430 C 
ATOM      4  F   LIG    1        5.742   1.511  -4.070  0.00  0.00    -0.167 F 
ATOM      5  F   LIG    1        6.607   1.022  -2.139  0.00  0.00    -0.167 F 
ATOM      6  F   LIG    1        5.567   2.910  -2.399  0.00  0.00    -0.167 F 
ENDBRANCH   1   3
BRANCH   1   7
ATOM      7  O   LIG    1        3.123   1.817  -2.034  0.00  0.00    -0.294 OA
BRANCH   7   9
ATOM      8  F   LIG    1        3.579   3.174  -3.764  0.00  0.00    -0.178 F 
ATOM      9  C   LIG    1        2.608   2.454  -3.181  0.00  0.00    +0.484 C 
ATOM     10  F   LIG    1        2.216   1.504  -4.059  0.00  0.00    -0.178 F 
ENDBRANCH   7   9
ENDBRANCH   1   7
TORSDOF 3
