REMARK  Name = *****
REMARK                            x       y       z     vdW  Elec       q    Type
REMARK                         _______ _______ _______ _____ _____    ______ ____
ROOT
ATOM      1  C   LIG    1        9.220  -2.774  -4.503  0.00  0.00    +0.287 C 
ENDROOT
BRANCH   1   2
ATOM      2  N   LIG    1       10.661  -2.820  -4.392  0.00  0.00    -0.291 N 
ATOM      3  C   LIG    1       11.550  -1.907  -4.881  0.00  0.00    +0.171 A 
ATOM      4  N   LIG    1       11.267  -0.792  -5.593  0.00  0.00    -0.196 NA
ATOM      5  C   LIG    1       12.326  -0.112  -5.932  0.00  0.00    +0.195 C 
ATOM      6  N   LIG    1       13.617  -0.467  -5.579  0.00  0.00    -0.293 N 
ATOM      7  H   LIG    1       14.388   0.132  -5.823  0.00  0.00    +0.172 HD
ATOM      8  C   LIG    1       13.953  -1.592  -4.836  0.00  0.00    +0.280 C 
ATOM      9  O   LIG    1       15.117  -1.844  -4.529  0.00  0.00    -0.265 OA
ATOM     10  C   LIG    1       12.791  -2.375  -4.485  0.00  0.00    +0.172 A 
ATOM     11  N   LIG    1       12.681  -3.579  -3.834  0.00  0.00    -0.229 NA
ATOM     12  C   LIG    1       11.390  -3.823  -3.804  0.00  0.00    +0.203 A 
BRANCH   5  13
ATOM     13  N   LIG    1       12.198   1.016  -6.674  0.00  0.00    -0.329 N 
ATOM     14  H   LIG    1       12.922   1.184  -7.360  0.00  0.00    +0.145 HD
ATOM     15  H   LIG    1       11.265   1.098  -7.068  0.00  0.00    +0.145 HD
ENDBRANCH   5  13
ENDBRANCH   1   2
BRANCH   1  16
ATOM     16  O   LIG    1        8.710  -2.132  -3.338  0.00  0.00    -0.356 OA
BRANCH  16  17
ATOM     17  C   LIG    1        7.287  -2.006  -3.375  0.00  0.00    +0.203 C 
BRANCH  17  18
ATOM     18  C   LIG    1        6.820  -1.248  -2.131  0.00  0.00    +0.260 C 
BRANCH  18  19
ATOM     19  O   LIG    1        7.376   0.077  -2.053  0.00  0.00    -0.461 OA
BRANCH  19  20
ATOM     20  C   LIG    1        6.787   1.030  -2.824  0.00  0.00    +0.324 C 
ATOM     21  O   LIG    1        5.835   0.826  -3.570  0.00  0.00    -0.249 OA
BRANCH  20  22
ATOM     22  C   LIG    1        7.339   2.439  -2.499  0.00  0.00    +0.163 C 
BRANCH  22  24
ATOM     23  C   LIG    1        9.376   3.857  -1.836  0.00  0.00    +0.009 C 
ATOM     24  C   LIG    1        8.861   2.459  -2.206  0.00  0.00    +0.011 C 
ATOM     25  C   LIG    1        9.669   1.959  -3.411  0.00  0.00    +0.009 C 
ENDBRANCH  22  24
BRANCH  22  26
ATOM     26  N   LIG    1        6.566   2.980  -1.354  0.00  0.00    -0.318 NA
ATOM     27  H   LIG    1        5.569   2.857  -1.547  0.00  0.00    +0.119 HD
ATOM     28  H   LIG    1        6.765   2.414  -0.528  0.00  0.00    +0.119 HD
ENDBRANCH  22  26
ENDBRANCH  20  22
ENDBRANCH  19  20
ENDBRANCH  18  19
ENDBRANCH  17  18
ENDBRANCH  16  17
ENDBRANCH   1  16
TORSDOF 10
