REMARK  Name = *****
REMARK                            x       y       z     vdW  Elec       q    Type
REMARK                         _______ _______ _______ _____ _____    ______ ____
ROOT
ATOM      1  C   LIG    1        2.383  -2.783  -0.420  0.00  0.00    +0.124 A 
ATOM      2  C   LIG    1        2.983  -2.544   0.816  0.00  0.00    +0.067 A 
ATOM      3 CL   LIG    1        2.118  -2.186   2.267  0.00  0.00    -0.082 Cl
ATOM      4  C   LIG    1        4.376  -2.581   0.913  0.00  0.00    +0.022 A 
ATOM      5  C   LIG    1        5.164  -2.852  -0.210  0.00  0.00    +0.010 A 
ATOM      6  C   LIG    1        4.582  -3.088  -1.467  0.00  0.00    +0.009 A 
ATOM      7  C   LIG    1        3.177  -3.066  -1.550  0.00  0.00    +0.038 A 
ENDROOT
BRANCH   6   8
ATOM      8  C   LIG    1        5.442  -3.379  -2.691  0.00  0.00    +0.187 C 
ATOM      9  C   LIG    1        5.885  -4.808  -2.814  0.00  0.00    +0.019 A 
ATOM     10  C   LIG    1        7.278  -4.871  -2.734  0.00  0.00    +0.045 A 
ATOM     11  C   LIG    1        7.984  -6.058  -2.781  0.00  0.00    +0.013 A 
ATOM     12  C   LIG    1        7.245  -7.232  -2.933  0.00  0.00    +0.001 A 
ATOM     13  C   LIG    1        5.842  -7.188  -3.042  0.00  0.00    +0.001 A 
ATOM     14  C   LIG    1        7.779  -3.501  -2.598  0.00  0.00    +0.247 C 
ATOM     15  O   LIG    1        8.937  -3.171  -2.439  0.00  0.00    -0.270 OA
ATOM     16  C   LIG    1        5.151  -5.971  -2.987  0.00  0.00    +0.009 A 
ATOM     17  N   LIG    1        6.687  -2.666  -2.667  0.00  0.00    -0.276 N 
ATOM     18  H   LIG    1        6.764  -1.684  -2.445  0.00  0.00    +0.152 HD
BRANCH   8  19
ATOM     19  O   LIG    1        4.808  -2.962  -3.875  0.00  0.00    -0.364 OA
ATOM     20  H   LIG    1        5.546  -2.733  -4.464  0.00  0.00    +0.213 HD
ENDBRANCH   8  19
ENDBRANCH   6   8
BRANCH   1  21
ATOM     21  S   LIG    1        0.629  -2.742  -0.618  0.00  0.00    +0.057 S 
ATOM     22  O   LIG    1        0.314  -2.838  -2.025  0.00  0.00    -0.153 OA
ATOM     23  O   LIG    1        0.015  -3.613   0.356  0.00  0.00    -0.153 OA
BRANCH  21  24
ATOM     24  N   LIG    1        0.228  -1.166  -0.203  0.00  0.00    -0.203 NA
ATOM     25  H   LIG    1       -0.175  -0.683  -1.006  0.00  0.00    +0.144 HD
ATOM     26  H   LIG    1       -0.370  -1.166   0.625  0.00  0.00    +0.144 HD
ENDBRANCH  21  24
ENDBRANCH   1  21
TORSDOF 4
