REMARK  Name = *****
REMARK                            x       y       z     vdW  Elec       q    Type
REMARK                         _______ _______ _______ _____ _____    ______ ____
ROOT
ATOM      1  C   LIG    1        6.554   0.601  -1.171  0.00  0.00    +0.053 C 
ENDROOT
BRANCH   1   8
ATOM      2  C   LIG    1        5.969  -1.039  -6.875  0.00  0.00    +0.048 C 
ATOM      3  C   LIG    1        5.989  -0.568  -5.447  0.00  0.00    +0.003 C 
ATOM      4  C   LIG    1        6.749  -1.453  -4.527  0.00  0.00    +0.185 C 
ATOM      5  O   LIG    1        7.113  -2.566  -4.896  0.00  0.00    -0.287 OA
ATOM      6  C   LIG    1        7.071  -0.954  -3.155  0.00  0.00    +0.004 C 
ATOM      7  C   LIG    1        8.133  -1.763  -2.460  0.00  0.00    +0.048 C 
ATOM      8  C   LIG    1        6.411   0.101  -2.627  0.00  0.00    +0.013 C 
ATOM      9  C   LIG    1        5.414   0.812  -3.489  0.00  0.00    +0.186 C 
ATOM     10  O   LIG    1        4.621   1.625  -3.023  0.00  0.00    -0.287 OA
ATOM     11  C   LIG    1        5.377   0.521  -4.954  0.00  0.00    +0.003 C 
ATOM     12  C   LIG    1        4.564   1.509  -5.744  0.00  0.00    +0.048 C 
ENDBRANCH   1   8
BRANCH   1  13
ATOM     13  C   LIG    1        6.980   2.071  -1.091  0.00  0.00    -0.040 A 
ATOM     14  C   LIG    1        8.326   2.435  -1.252  0.00  0.00    +0.004 A 
ATOM     15  C   LIG    1        8.710   3.781  -1.215  0.00  0.00    +0.000 A 
ATOM     16  C   LIG    1        7.760   4.782  -1.015  0.00  0.00    +0.000 A 
ATOM     17  C   LIG    1        6.427   4.439  -0.834  0.00  0.00    +0.000 A 
ATOM     18  C   LIG    1        6.046   3.100  -0.874  0.00  0.00    +0.004 A 
ENDBRANCH   1  13
BRANCH   1  19
ATOM     19  C   LIG    1        5.286   0.252  -0.325  0.00  0.00    +0.013 C 
BRANCH  19  20
ATOM     20  C   LIG    1        5.447   0.498   1.191  0.00  0.00    +0.001 C 
BRANCH  20  21
ATOM     21  C   LIG    1        4.166   0.129   1.954  0.00  0.00    +0.001 C 
BRANCH  21  22
ATOM     22  C   LIG    1        4.295   0.367   3.463  0.00  0.00    +0.011 C 
BRANCH  22  23
ATOM     23  C   LIG    1        2.992   0.033   4.194  0.00  0.00    +0.120 C 
BRANCH  23  24
ATOM     24  C   LIG    1        3.124   0.248   5.687  0.00  0.00    +0.305 C 
ATOM     25  O   LIG    1        4.150   0.112   6.322  0.00  0.00    -0.251 OA
BRANCH  24  26
ATOM     26  O   LIG    1        1.946   0.569   6.277  0.00  0.00    -0.481 OA
ATOM     27  H   LIG    1        1.193   0.634   5.662  0.00  0.00    +0.295 HD
ENDBRANCH  24  26
ENDBRANCH  23  24
ENDBRANCH  22  23
ENDBRANCH  21  22
ENDBRANCH  20  21
ENDBRANCH  19  20
ENDBRANCH   1  19
TORSDOF 9
