REMARK  Name = *****
REMARK                            x       y       z     vdW  Elec       q    Type
REMARK                         _______ _______ _______ _____ _____    ______ ____
ROOT
ATOM      1  C   LIG    1        0.033   3.397   4.946  0.00  0.00    +0.025 C 
ATOM      2  C   LIG    1       -0.293   1.892   4.892  0.00  0.00    +0.042 C 
ATOM      3  CA  LIG    1       -1.776   1.621   5.261  0.00  0.00    +0.201 C 
ATOM      4  N   LIG    1       -2.558   1.705   4.017  0.00  0.00    -0.271 N 
ATOM      5  C   LIG    1       -1.889   1.284   2.773  0.00  0.00    +0.165 C 
ATOM      6  CA  LIG    1       -2.528   2.507   2.071  0.00  0.00    +0.190 C 
ATOM      7  C   LIG    1       -2.919   2.926   3.510  0.00  0.00    +0.240 C 
ATOM      8  O   LIG    1       -3.221   3.953   4.089  0.00  0.00    -0.273 OA
ATOM      9  S   LIG    1       -0.092   1.356   3.122  0.00  0.00    -0.127 S 
ATOM     10  C   LIG    1        0.747   1.165   5.755  0.00  0.00    +0.025 C 
ENDROOT
BRANCH   6  11
ATOM     11  N   LIG    1       -1.600   3.414   1.342  0.00  0.00    -0.301 N 
ATOM     12  H   LIG    1       -0.600   3.231   1.359  0.00  0.00    +0.150 HD
ATOM     13  C   LIG    1       -2.067   4.516   0.661  0.00  0.00    +0.232 C 
ATOM     14  O   LIG    1       -3.269   4.789   0.632  0.00  0.00    -0.275 OA
BRANCH  13  15
ATOM     15  C   LIG    1       -1.016   5.374  -0.039  0.00  0.00    +0.213 C 
BRANCH  15  16
ATOM     16  C   LIG    1       -0.282   4.544  -1.080  0.00  0.00    -0.018 A 
ATOM     17  C   LIG    1       -0.852   4.056  -2.245  0.00  0.00    +0.050 A 
ATOM     18  S   LIG    1        0.240   3.146  -3.193  0.00  0.00    -0.105 S 
ATOM     19  C   LIG    1        1.504   3.395  -2.073  0.00  0.00    +0.045 A 
ATOM     20  C   LIG    1        1.099   4.151  -0.995  0.00  0.00    +0.012 A 
ENDBRANCH  15  16
BRANCH  15  21
ATOM     21  C   LIG    1       -1.540   6.670  -0.657  0.00  0.00    +0.321 C 
ATOM     22  O   LIG    1       -0.803   7.493  -1.192  0.00  0.00    -0.250 OA
BRANCH  21  23
ATOM     23  O   LIG    1       -2.872   6.894  -0.593  0.00  0.00    -0.480 OA
ATOM     24  H   LIG    1       -3.391   6.192  -0.126  0.00  0.00    +0.295 HD
ENDBRANCH  21  23
ENDBRANCH  15  21
ENDBRANCH  13  15
ENDBRANCH   6  11
BRANCH   3  25
ATOM     25  C   LIG    1       -2.042   0.255   5.917  0.00  0.00    +0.327 C 
ATOM     26  O   LIG    1       -1.578  -0.095   6.992  0.00  0.00    -0.249 OA
BRANCH  25  27
ATOM     27  OXT LIG    1       -2.858  -0.561   5.205  0.00  0.00    -0.479 OA
ATOM     28  HXT LIG    1       -3.195  -0.114   4.405  0.00  0.00    +0.295 HD
ENDBRANCH  25  27
ENDBRANCH   3  25
TORSDOF 7
