REMARK  Name = *****
REMARK                            x       y       z     vdW  Elec       q    Type
REMARK                         _______ _______ _______ _____ _____    ______ ____
ROOT
ATOM      1  C   LIG    1       -6.859  -2.436  -0.185  0.00  0.00    +0.064 C 
ATOM      2  C   LIG    1       -7.685  -1.342   0.524  0.00  0.00    +0.118 C 
ATOM      3  C   LIG    1       -9.085  -1.741   0.927  0.00  0.00    +0.074 C 
ATOM      4  C   LIG    1       -9.864  -1.539  -0.354  0.00  0.00    +0.239 C 
ATOM      5  O   LIG    1       -9.249  -0.396  -0.963  0.00  0.00    -0.464 OA
ATOM      6  C   LIG    1       -9.191  -3.113   1.574  0.00  0.00    +0.152 C 
ATOM      7  C   LIG    1       -8.427  -4.194   0.846  0.00  0.00    -0.011 A 
ATOM      8  C   LIG    1       -8.713  -5.548   1.112  0.00  0.00    +0.056 A 
ATOM      9  C   LIG    1       -8.011  -6.519   0.432  0.00  0.00    +0.167 A 
ATOM     10  O   LIG    1       -8.150  -7.861   0.596  0.00  0.00    -0.453 OA
ATOM     11  C   LIG    1       -7.143  -8.350  -0.314  0.00  0.00    +0.466 C 
ATOM     12  O   LIG    1       -6.492  -7.300  -1.061  0.00  0.00    -0.453 OA
ATOM     13  C   LIG    1       -7.062  -6.200  -0.503  0.00  0.00    +0.167 A 
ATOM     14  C   LIG    1       -6.729  -4.892  -0.770  0.00  0.00    +0.054 A 
ATOM     15  C   LIG    1       -7.987  -0.258  -0.472  0.00  0.00    +0.312 C 
ATOM     16  O   LIG    1       -7.193   0.604  -0.853  0.00  0.00    -0.251 OA
ATOM     17  C   LIG    1       -7.375  -3.866  -0.044  0.00  0.00    -0.030 A 
ENDROOT
BRANCH   1  22
ATOM     18  C   LIG    1       -3.092  -1.775  -0.225  0.00  0.00    +0.165 A 
ATOM     19  C   LIG    1       -2.708  -2.104   1.096  0.00  0.00    +0.203 A 
ATOM     20  C   LIG    1       -3.691  -2.582   1.999  0.00  0.00    +0.165 A 
ATOM     21  C   LIG    1       -5.030  -2.665   1.594  0.00  0.00    +0.053 A 
ATOM     22  C   LIG    1       -5.409  -2.335   0.285  0.00  0.00    -0.032 A 
ATOM     23  C   LIG    1       -4.430  -1.904  -0.612  0.00  0.00    +0.053 A 
BRANCH  18  25
ATOM     24  C   LIG    1       -2.509  -0.810  -2.355  0.00  0.00    +0.277 C 
ATOM     25  O   LIG    1       -2.131  -1.364  -1.106  0.00  0.00    -0.491 OA
ENDBRANCH  18  25
BRANCH  19  26
ATOM     26  O   LIG    1       -1.431  -2.003   1.611  0.00  0.00    -0.488 OA
ATOM     27  C   LIG    1       -0.390  -1.524   0.764  0.00  0.00    +0.277 C 
ENDBRANCH  19  26
BRANCH  20  28
ATOM     28  O   LIG    1       -3.296  -2.913   3.279  0.00  0.00    -0.491 OA
ATOM     29  C   LIG    1       -4.080  -3.908   3.941  0.00  0.00    +0.277 C 
ENDBRANCH  20  28
ENDBRANCH   1  22
BRANCH   6  30
ATOM     30  O   LIG    1      -10.577  -3.426   1.682  0.00  0.00    -0.387 OA
ATOM     31  H   LIG    1      -10.803  -4.087   1.004  0.00  0.00    +0.210 HD
ENDBRANCH   6  30
TORSDOF 5
