REMARK  Name = *****
REMARK                            x       y       z     vdW  Elec       q    Type
REMARK                         _______ _______ _______ _____ _____    ______ ____
ROOT
ATOM      1  C   LIG    1        2.691  -1.973  -0.157  0.00  0.00    +0.180 C 
ATOM      2  C   LIG    1        2.423  -3.124   0.944  0.00  0.00    +0.021 C 
ATOM      3  C   LIG    1        3.317  -2.691   2.136  0.00  0.00    +0.006 C 
ATOM      4  C   LIG    1        4.832  -3.029   1.953  0.00  0.00    +0.037 C 
ATOM      5  C   LIG    1        5.059  -4.547   1.792  0.00  0.00    +0.153 C 
ATOM      6  C   LIG    1        4.151  -5.150   0.678  0.00  0.00    +0.154 C 
ATOM      7  F   LIG    1        4.566  -5.094   2.973  0.00  0.00    -0.238 F 
ATOM      8  C   LIG    1        6.612  -4.972   1.744  0.00  0.00    +0.047 C 
ATOM      9  C   LIG    1        7.424  -4.251   2.860  0.00  0.00    -0.020 C 
ATOM     10  C   LIG    1        8.741  -4.548   2.978  0.00  0.00    +0.054 C 
ATOM     11  C   LIG    1        9.457  -4.139   1.710  0.00  0.00    +0.179 C 
ATOM     12  C   LIG    1        8.686  -4.296   0.438  0.00  0.00    +0.047 C 
ATOM     13  O   LIG    1       10.635  -3.812   1.717  0.00  0.00    -0.288 OA
ATOM     14  C   LIG    1        7.087  -2.788   3.062  0.00  0.00    +0.194 C 
ATOM     15  F   LIG    1        7.539  -2.044   2.010  0.00  0.00    -0.241 F 
ATOM     16  C   LIG    1        6.677  -6.513   1.948  0.00  0.00    +0.023 C 
ATOM     17  C   LIG    1        7.399  -4.700   0.450  0.00  0.00    -0.009 C 
ATOM     18  C   LIG    1        5.606  -2.522   3.184  0.00  0.00    +0.048 C 
ATOM     19  C   LIG    1        3.038  -1.192   2.195  0.00  0.00    +0.012 C 
ATOM     20  C   LIG    1        0.927  -3.093   1.404  0.00  0.00    +0.016 C 
ATOM     21  C   LIG    1        2.711  -4.610   0.606  0.00  0.00    +0.045 C 
ATOM     22  C   LIG    1        3.180  -0.744   0.741  0.00  0.00    +0.038 C 
ATOM     23  C   LIG    1        2.575   0.650   0.587  0.00  0.00    +0.012 C 
ENDROOT
BRANCH   6  24
ATOM     24  O   LIG    1        4.696  -5.108  -0.634  0.00  0.00    -0.389 OA
ATOM     25  H   LIG    1        4.193  -5.750  -1.171  0.00  0.00    +0.210 HD
ENDBRANCH   6  24
BRANCH   1  26
ATOM     26  C   LIG    1        1.428  -1.702  -1.049  0.00  0.00    +0.192 C 
ATOM     27  O   LIG    1        0.597  -0.840  -0.751  0.00  0.00    -0.292 OA
BRANCH  26  28
ATOM     28  C   LIG    1        1.229  -2.569  -2.285  0.00  0.00    +0.187 C 
ATOM     29 CL   LIG    1       -0.508  -2.777  -2.638  0.00  0.00    -0.117 Cl
ENDBRANCH  26  28
ENDBRANCH   1  26
BRANCH   1  30
ATOM     30  O   LIG    1        3.786  -2.439  -0.998  0.00  0.00    -0.450 OA
BRANCH  30  31
ATOM     31  C   LIG    1        4.458  -1.548  -1.785  0.00  0.00    +0.308 C 
ATOM     32  O   LIG    1        4.178  -0.377  -1.897  0.00  0.00    -0.251 OA
BRANCH  31  34
ATOM     33  C   LIG    1        6.800  -1.337  -2.612  0.00  0.00    +0.015 C 
ATOM     34  C   LIG    1        5.571  -2.228  -2.552  0.00  0.00    +0.117 C 
ENDBRANCH  31  34
ENDBRANCH  30  31
ENDBRANCH   1  30
TORSDOF 6
