REMARK  Name = *****
REMARK                            x       y       z     vdW  Elec       q    Type
REMARK                         _______ _______ _______ _____ _____    ______ ____
ROOT
ATOM      1  C   LIG    1        1.850  -0.943   1.406  0.00  0.00    +0.191 C 
ATOM      2  C   LIG    1        1.149  -2.010   0.416  0.00  0.00    +0.174 C 
ATOM      3  N   LIG    1       -0.248  -2.308   0.696  0.00  0.00    -0.307 N 
ATOM      4  C   LIG    1       -1.289  -1.430   0.588  0.00  0.00    +0.077 A 
ATOM      5  C   LIG    1       -2.450  -1.670   1.333  0.00  0.00    +0.015 A 
ATOM      6  C   LIG    1       -3.475  -0.797   1.746  0.00  0.00    -0.008 A 
ATOM      7  C   LIG    1       -4.517  -0.904   2.765  0.00  0.00    +0.141 C 
ATOM      8  N   LIG    1       -5.002   0.464   2.747  0.00  0.00    -0.307 N 
ATOM      9  H   LIG    1       -5.713   0.826   3.366  0.00  0.00    +0.149 HD
ATOM     10  C   LIG    1       -4.356   1.345   1.872  0.00  0.00    +0.245 C 
ATOM     11  O   LIG    1       -4.660   2.516   1.813  0.00  0.00    -0.270 OA
ATOM     12  C   LIG    1       -3.365   0.516   1.240  0.00  0.00    +0.052 A 
ATOM     13  C   LIG    1       -2.269   0.695   0.364  0.00  0.00    +0.022 A 
ATOM     14  C   LIG    1       -1.839   1.917  -0.213  0.00  0.00    +0.009 A 
ATOM     15  C   LIG    1       -0.623   1.650  -0.948  0.00  0.00    +0.052 A 
ATOM     16  N   LIG    1       -0.184   0.320  -0.743  0.00  0.00    -0.311 N 
ATOM     17  C   LIG    1        1.077  -0.245  -1.196  0.00  0.00    +0.224 C 
ATOM     18  C   LIG    1        2.371   0.422  -0.693  0.00  0.00    +0.080 C 
ATOM     19  C   LIG    1       -0.006   2.671  -1.700  0.00  0.00    +0.026 A 
ATOM     20  C   LIG    1       -0.515   3.969  -1.649  0.00  0.00    +0.002 A 
ATOM     21  C   LIG    1       -1.639   4.261  -0.895  0.00  0.00    +0.001 A 
ATOM     22  C   LIG    1       -2.310   3.250  -0.201  0.00  0.00    +0.010 A 
ATOM     23  C   LIG    1       -2.187  -2.946   1.882  0.00  0.00    +0.008 A 
ATOM     24  C   LIG    1       -2.902  -3.822   2.737  0.00  0.00    +0.010 A 
ATOM     25  C   LIG    1       -2.385  -5.071   3.083  0.00  0.00    +0.001 A 
ATOM     26  C   LIG    1       -1.158  -5.476   2.592  0.00  0.00    +0.002 A 
ATOM     27  C   LIG    1       -0.396  -4.635   1.778  0.00  0.00    +0.026 A 
ATOM     28  C   LIG    1       -1.218  -0.168   0.001  0.00  0.00    +0.077 A 
ATOM     29  C   LIG    1       -0.868  -3.352   1.429  0.00  0.00    +0.053 A 
ATOM     30  C   LIG    1        2.054  -3.257   0.399  0.00  0.00    +0.069 C 
ATOM     31  O   LIG    1        1.153  -1.637  -0.973  0.00  0.00    -0.328 OA
ATOM     32  C   LIG    1        2.959  -0.192   0.607  0.00  0.00    +0.114 C 
ENDROOT
BRANCH  32  33
ATOM     33  N   LIG    1        3.796   0.771   1.433  0.00  0.00    -0.295 N 
ATOM     34  C   LIG    1        4.960   0.307   2.108  0.00  0.00    +0.247 C 
ATOM     35  O   LIG    1        5.287  -0.882   2.058  0.00  0.00    -0.270 OA
ATOM     36  C   LIG    1        3.365   2.159   1.514  0.00  0.00    +0.133 C 
BRANCH  34  37
ATOM     37  C   LIG    1        5.905   1.258   2.836  0.00  0.00    +0.037 A 
ATOM     38  C   LIG    1        5.487   2.357   3.597  0.00  0.00    +0.013 A 
ATOM     39  C   LIG    1        6.393   3.307   4.088  0.00  0.00    +0.001 A 
ATOM     40  C   LIG    1        7.758   3.096   3.959  0.00  0.00    +0.000 A 
ATOM     41  C   LIG    1        8.208   1.925   3.355  0.00  0.00    +0.001 A 
ATOM     42  C   LIG    1        7.292   1.024   2.780  0.00  0.00    +0.013 A 
ENDBRANCH  34  37
ENDBRANCH  32  33
BRANCH   1  44
ATOM     43  C   LIG    1        0.286  -0.284   3.129  0.00  0.00    +0.194 C 
ATOM     44  O   LIG    1        1.000   0.085   1.954  0.00  0.00    -0.373 OA
ENDBRANCH   1  44
TORSDOF 3
