REMARK  Name = *****
REMARK                            x       y       z     vdW  Elec       q    Type
REMARK                         _______ _______ _______ _____ _____    ______ ____
ROOT
ATOM      1  C   LIG    1       19.658   7.616 -13.799  0.00  0.00    +0.240 C 
ENDROOT
BRANCH   1   2
ATOM      2  O   LIG    1       20.214   8.222 -15.337  0.00  0.00    -0.456 OA
BRANCH   2   3
ATOM      3  C   LIG    1       20.380   9.347 -16.225  0.00  0.00    +0.307 C 
ATOM      4  O   LIG    1       19.706  10.381 -16.176  0.00  0.00    -0.251 OA
BRANCH   3   5
ATOM      5  C   LIG    1       21.764   9.497 -17.224  0.00  0.00    +0.120 C 
BRANCH   5   6
ATOM      6  C   LIG    1       22.930   8.443 -17.498  0.00  0.00    +0.011 C 
BRANCH   6   7
ATOM      7  C   LIG    1       23.744   8.090 -16.235  0.00  0.00    +0.000 C 
BRANCH   7   8
ATOM      8  C   LIG    1       22.594   8.009 -15.333  0.00  0.00    +0.000 C 
BRANCH   8   9
ATOM      9  C   LIG    1       22.549   8.209 -13.928  0.00  0.00    -0.000 C 
BRANCH   9  10
ATOM     10  C   LIG    1       21.297   9.410 -13.305  0.00  0.00    -0.000 C 
BRANCH  10  11
ATOM     11  C   LIG    1       20.207  10.460 -13.525  0.00  0.00    -0.000 C 
BRANCH  11  12
ATOM     12  C   LIG    1       20.340  11.885 -13.062  0.00  0.00    -0.000 C 
BRANCH  12  13
ATOM     13  C   LIG    1       21.624  12.568 -13.407  0.00  0.00    -0.000 C 
BRANCH  13  14
ATOM     14  C   LIG    1       21.935  13.152 -14.739  0.00  0.00    -0.000 C 
BRANCH  14  15
ATOM     15  C   LIG    1       20.841  14.127 -15.034  0.00  0.00    -0.000 C 
BRANCH  15  16
ATOM     16  C   LIG    1       21.125  14.904 -16.289  0.00  0.00    -0.000 C 
BRANCH  16  17
ATOM     17  C   LIG    1       19.873  15.678 -16.674  0.00  0.00    -0.000 C 
BRANCH  17  18
ATOM     18  C   LIG    1       18.685  14.738 -16.902  0.00  0.00    -0.003 C 
ATOM     19  C   LIG    1       17.469  15.478 -17.399  0.00  0.00    +0.004 C 
ENDBRANCH  17  18
ENDBRANCH  16  17
ENDBRANCH  15  16
ENDBRANCH  14  15
ENDBRANCH  13  14
ENDBRANCH  12  13
ENDBRANCH  11  12
ENDBRANCH  10  11
ENDBRANCH   9  10
ENDBRANCH   8   9
ENDBRANCH   7   8
ENDBRANCH   6   7
ENDBRANCH   5   6
ENDBRANCH   3   5
ENDBRANCH   2   3
ENDBRANCH   1   2
BRANCH   1  20
ATOM     20  C   LIG    1       18.101   8.105 -13.249  0.00  0.00    +0.279 C 
BRANCH  20  21
ATOM     21  O   LIG    1       17.483   9.461 -12.850  0.00  0.00    -0.461 OA
BRANCH  21  22
ATOM     22  C   LIG    1       17.289   9.979 -11.565  0.00  0.00    +0.307 C 
ATOM     23  O   LIG    1       18.042   9.696 -10.634  0.00  0.00    -0.251 OA
BRANCH  22  24
ATOM     24  C   LIG    1       16.168  11.121 -11.426  0.00  0.00    +0.120 C 
BRANCH  24  25
ATOM     25  C   LIG    1       15.029  11.126 -10.300  0.00  0.00    +0.011 C 
BRANCH  25  26
ATOM     26  C   LIG    1       13.881  10.075 -10.415  0.00  0.00    +0.000 C 
BRANCH  26  27
ATOM     27  C   LIG    1       12.676  10.119  -9.379  0.00  0.00    +0.000 C 
BRANCH  27  28
ATOM     28  C   LIG    1       11.700   8.896  -9.575  0.00  0.00    -0.000 C 
BRANCH  28  29
ATOM     29  C   LIG    1       10.482   8.711  -8.602  0.00  0.00    -0.000 C 
BRANCH  29  30
ATOM     30  C   LIG    1        9.621   7.420  -8.917  0.00  0.00    -0.000 C 
BRANCH  30  31
ATOM     31  C   LIG    1        8.457   7.140  -7.920  0.00  0.00    -0.000 C 
BRANCH  31  32
ATOM     32  C   LIG    1        7.595   5.833  -8.106  0.00  0.00    -0.000 C 
BRANCH  32  33
ATOM     33  C   LIG    1        6.772   5.731  -9.407  0.00  0.00    -0.000 C 
BRANCH  33  34
ATOM     34  C   LIG    1        5.777   4.533  -9.569  0.00  0.00    -0.000 C 
BRANCH  34  35
ATOM     35  C   LIG    1        6.394   3.123  -9.608  0.00  0.00    -0.000 C 
BRANCH  35  36
ATOM     36  C   LIG    1        5.454   1.975 -10.071  0.00  0.00    -0.000 C 
BRANCH  36  38
ATOM     37  C   LIG    1        3.554   0.354  -9.566  0.00  0.00    +0.004 C 
ATOM     38  C   LIG    1        4.318   1.600  -9.108  0.00  0.00    -0.003 C 
ENDBRANCH  36  38
ENDBRANCH  35  36
ENDBRANCH  34  35
ENDBRANCH  33  34
ENDBRANCH  32  33
ENDBRANCH  31  32
ENDBRANCH  30  31
ENDBRANCH  29  30
ENDBRANCH  28  29
ENDBRANCH  27  28
ENDBRANCH  26  27
ENDBRANCH  25  26
ENDBRANCH  24  25
ENDBRANCH  22  24
ENDBRANCH  21  22
ENDBRANCH  20  21
ENDBRANCH   1  20
BRANCH   1  39
ATOM     39  C   LIG    1       20.860   7.023 -12.409  0.00  0.00    +0.220 C 
BRANCH  39  40
ATOM     40  O   LIG    1       22.287   7.689 -11.636  0.00  0.00    -0.283 OA
BRANCH  40  41
ATOM     41  P   LIG    1       23.257   9.136 -11.574  0.00  0.00    +0.475 P 
ATOM     42  O   LIG    1       23.628  10.052 -12.665  0.00  0.00    -0.227 OA
BRANCH  41  43
ATOM     43  O   LIG    1       22.296   9.906 -10.511  0.00  0.00    -0.302 OA
ATOM     44  H   LIG    1       21.418  10.259 -10.750  0.00  0.00    +0.222 HD
ENDBRANCH  41  43
BRANCH  41  45
ATOM     45  O   LIG    1       24.555   9.073 -10.661  0.00  0.00    -0.281 OA
BRANCH  45  46
ATOM     46  C   LIG    1       24.795  10.028  -9.614  0.00  0.00    +0.223 C 
BRANCH  46  47
ATOM     47  C   LIG    1       24.806  11.651  -9.645  0.00  0.00    +0.161 C 
BRANCH  47  48
ATOM     48  N   LIG    1       23.451  12.460  -9.614  0.00  0.00    +0.238 N 
ATOM     49  C   LIG    1       23.479  13.915  -9.108  0.00  0.00    +0.192 C 
ATOM     50  C   LIG    1       22.370  11.840  -8.720  0.00  0.00    +0.192 C 
ATOM     51  C   LIG    1       23.088  12.675 -11.036  0.00  0.00    +0.192 C 
ENDBRANCH  47  48
ENDBRANCH  46  47
ENDBRANCH  45  46
ENDBRANCH  41  45
ENDBRANCH  40  41
ENDBRANCH  39  40
ENDBRANCH   1  39
TORSDOF 41
