REMARK  Name = *****
REMARK                            x       y       z     vdW  Elec       q    Type
REMARK                         _______ _______ _______ _____ _____    ______ ____
ROOT
ATOM      1  C   LIG    1        0.241  -4.750   0.708  0.00  0.00    +0.045 C 
ATOM      2  C   LIG    1       -1.182  -5.046   0.213  0.00  0.00    +0.083 C 
ATOM      3  N   LIG    1       -1.681  -6.396   0.365  0.00  0.00    -0.294 NA
ATOM      4  C   LIG    1       -2.987  -6.247  -0.338  0.00  0.00    +0.086 C 
ATOM      5  C   LIG    1       -3.226  -4.685  -0.566  0.00  0.00    +0.030 C 
ATOM      6  C   LIG    1       -1.652  -6.743   1.800  0.00  0.00    +0.112 C 
ATOM      7  C   LIG    1       -0.683  -5.918   2.665  0.00  0.00    -0.015 C 
ATOM      8  C   LIG    1       -2.399  -4.120   0.610  0.00  0.00    +0.037 C 
ATOM      9  C   LIG    1       -1.800  -2.729   1.022  0.00  0.00    +0.132 C 
ATOM     10  C   LIG    1       -0.476  -2.201   0.410  0.00  0.00    +0.220 C 
ATOM     11  N   LIG    1       -2.937  -1.773   0.967  0.00  0.00    -0.325 N 
ATOM     12  C   LIG    1       -2.826  -0.434   1.558  0.00  0.00    +0.130 C 
ATOM     13  C   LIG    1       -3.912  -2.593   1.640  0.00  0.00    +0.037 A 
ATOM     14  C   LIG    1       -5.081  -2.118   2.211  0.00  0.00    +0.069 A 
ATOM     15  C   LIG    1       -6.036  -2.992   2.736  0.00  0.00    +0.127 A 
ATOM     16  C   LIG    1       -5.810  -4.394   2.743  0.00  0.00    +0.017 A 
ATOM     17  C   LIG    1       -4.582  -4.853   2.144  0.00  0.00    +0.014 A 
ATOM     18  C   LIG    1       -3.615  -3.971   1.600  0.00  0.00    -0.016 A 
ATOM     19  C   LIG    1        0.562  -3.328   0.095  0.00  0.00    +0.232 C 
ATOM     20  C   LIG    1        0.173  -4.982   2.197  0.00  0.00    -0.018 C 
ENDROOT
BRANCH  16  21
ATOM     21  C   LIG    1       -6.949  -5.416   3.164  0.00  0.00    +0.136 C 
ATOM     22  C   LIG    1       -7.952  -4.872   4.266  0.00  0.00    +0.042 C 
ATOM     23  C   LIG    1       -7.804  -4.359   5.574  0.00  0.00    -0.017 C 
ATOM     24  C   LIG    1       -9.127  -4.160   6.106  0.00  0.00    +0.003 C 
ATOM     25  C   LIG    1      -10.039  -4.456   5.105  0.00  0.00    +0.047 C 
ATOM     26  C   LIG    1      -11.424  -4.354   5.285  0.00  0.00    +0.026 C 
ATOM     27  C   LIG    1      -11.888  -3.958   6.543  0.00  0.00    +0.002 C 
ATOM     28  C   LIG    1      -10.999  -3.656   7.571  0.00  0.00    +0.001 C 
ATOM     29  C   LIG    1       -9.620  -3.743   7.362  0.00  0.00    +0.010 C 
ATOM     30  C   LIG    1       -6.573  -4.025   6.400  0.00  0.00    +0.053 C 
ATOM     31  C   LIG    1       -6.124  -5.150   7.383  0.00  0.00    +0.089 C 
ATOM     32  N   LIG    1       -4.966  -5.968   6.956  0.00  0.00    -0.299 NA
ATOM     33  C   LIG    1       -4.823  -7.265   7.657  0.00  0.00    +0.119 C 
ATOM     34  C   LIG    1       -5.608  -8.509   7.088  0.00  0.00    +0.079 C 
ATOM     35  C   LIG    1       -5.803  -8.464   5.551  0.00  0.00    +0.040 C 
ATOM     36  C   LIG    1       -6.097  -7.027   5.110  0.00  0.00    +0.007 C 
ATOM     37  C   LIG    1       -4.910  -6.178   5.518  0.00  0.00    +0.088 C 
ATOM     38  N   LIG    1       -9.313  -4.815   3.998  0.00  0.00    -0.356 NA
ATOM     39  H   LIG    1       -9.742  -5.005   3.102  0.00  0.00    +0.166 HD
ATOM     40  C   LIG    1       -6.457  -6.865   3.644  0.00  0.00    +0.034 C 
BRANCH  21  41
ATOM     41  C   LIG    1       -7.781  -5.672   1.821  0.00  0.00    +0.324 C 
ATOM     42  O   LIG    1       -8.309  -4.809   1.131  0.00  0.00    -0.249 OA
BRANCH  41  43
ATOM     43  O   LIG    1       -7.864  -7.006   1.526  0.00  0.00    -0.467 OA
ATOM     44  C   LIG    1       -8.307  -7.374   0.220  0.00  0.00    +0.280 C 
ENDBRANCH  41  43
ENDBRANCH  21  41
BRANCH  34  45
ATOM     45  O   LIG    1       -6.904  -8.564   7.707  0.00  0.00    -0.387 OA
ATOM     46  H   LIG    1       -7.405  -7.777   7.436  0.00  0.00    +0.210 HD
ENDBRANCH  34  45
BRANCH  34  47
ATOM     47  C   LIG    1       -4.874  -9.806   7.503  0.00  0.00    +0.033 C 
ATOM     48  C   LIG    1       -5.525 -11.092   7.002  0.00  0.00    +0.007 C 
ENDBRANCH  34  47
ENDBRANCH  16  21
BRANCH   1  50
ATOM     49  C   LIG    1        2.722  -5.657   0.649  0.00  0.00    +0.005 C 
ATOM     50  C   LIG    1        1.291  -5.777   0.115  0.00  0.00    +0.013 C 
ENDBRANCH   1  50
BRANCH  10  51
ATOM     51  O   LIG    1       -0.820  -1.461  -0.775  0.00  0.00    -0.373 OA
ATOM     52  H   LIG    1       -1.726  -1.120  -0.623  0.00  0.00    +0.211 HD
ENDBRANCH  10  51
BRANCH  10  53
ATOM     53  C   LIG    1        0.282  -1.343   1.477  0.00  0.00    +0.345 C 
ATOM     54  O   LIG    1       -0.040  -1.192   2.656  0.00  0.00    -0.247 OA
BRANCH  53  55
ATOM     55  O   LIG    1        1.431  -0.807   0.974  0.00  0.00    -0.466 OA
ATOM     56  C   LIG    1        2.599  -1.169   1.722  0.00  0.00    +0.280 C 
ENDBRANCH  53  55
ENDBRANCH  10  53
BRANCH  15  57
ATOM     57  O   LIG    1       -7.201  -2.498   3.261  0.00  0.00    -0.495 OA
ATOM     58  C   LIG    1       -7.680  -1.257   2.752  0.00  0.00    +0.277 C 
ENDBRANCH  15  57
BRANCH  19  59
ATOM     59  O   LIG    1        0.704  -3.481  -1.384  0.00  0.00    -0.457 OA
BRANCH  59  60
ATOM     60  C   LIG    1        1.490  -2.621  -2.040  0.00  0.00    +0.304 C 
ATOM     61  O   LIG    1        2.154  -1.738  -1.559  0.00  0.00    -0.251 OA
ATOM     62  C   LIG    1        1.507  -3.006  -3.498  0.00  0.00    +0.136 C 
ENDBRANCH  59  60
ENDBRANCH  19  59
TORSDOF 12
