REMARK  Name = *****
REMARK                            x       y       z     vdW  Elec       q    Type
REMARK                         _______ _______ _______ _____ _____    ______ ____
ROOT
ATOM      1  C   LIG    1        4.636   2.417   3.294  0.00  0.00    +0.211 C 
ENDROOT
BRANCH   1   2
ATOM      2  N   LIG    1        4.556   3.544   2.377  0.00  0.00    -0.275 N 
ATOM      3  H   LIG    1        4.375   3.262   1.416  0.00  0.00    +0.258 HD
BRANCH   2   6
ATOM      4  N   LIG    1        3.349   4.908   3.847  0.00  0.00    -0.130 NA
ATOM      5  H   LIG    1        2.938   5.835   3.835  0.00  0.00    +0.306 HD
ATOM      6  C   LIG    1        3.928   4.685   2.717  0.00  0.00    +0.376 C 
BRANCH   6   7
ATOM      7  N   LIG    1        4.011   5.596   1.733  0.00  0.00    -0.289 N 
ATOM      8  H   LIG    1        4.891   5.508   1.226  0.00  0.00    +0.255 HD
ATOM      9  H   LIG    1        3.871   6.553   2.032  0.00  0.00    +0.255 HD
ENDBRANCH   6   7
ENDBRANCH   2   6
ENDBRANCH   1   2
BRANCH   1  10
ATOM     10  C   LIG    1        5.456   1.253   2.682  0.00  0.00    +0.121 C 
BRANCH  10  11
ATOM     11  N   LIG    1        6.871   1.532   2.296  0.00  0.00    -0.299 NA
ATOM     12  C   LIG    1        7.638   1.993   3.463  0.00  0.00    +0.084 C 
ATOM     13  C   LIG    1        9.036   2.581   3.232  0.00  0.00    +0.015 C 
ATOM     14  C   LIG    1        9.165   3.494   2.012  0.00  0.00    +0.001 C 
ATOM     15  C   LIG    1        9.781   2.824   0.782  0.00  0.00    +0.000 C 
ATOM     16  C   LIG    1        8.960   1.710   0.132  0.00  0.00    +0.001 C 
ATOM     17  C   LIG    1        8.807   0.460   1.000  0.00  0.00    +0.015 C 
ATOM     18  C   LIG    1        7.432   0.324   1.664  0.00  0.00    +0.084 C 
ENDBRANCH  10  11
ENDBRANCH   1  10
TORSDOF 5
