REMARK  Name = *****
REMARK                            x       y       z     vdW  Elec       q    Type
REMARK                         _______ _______ _______ _____ _____    ______ ____
ROOT
ATOM      1  C   LIG    1       12.969  -0.701  -4.291  0.00  0.00    +0.061 A 
ATOM      2  C   LIG    1       13.197  -0.964  -2.957  0.00  0.00    +0.049 A 
ATOM      3  I   LIG    1       14.489   0.831  -2.098  0.00  0.00    -0.041 I 
ATOM      4  C   LIG    1       13.604  -2.280  -2.709  0.00  0.00    +0.066 A 
ATOM      5  C   LIG    1       14.322  -2.805  -3.925  0.00  0.00    +0.040 A 
ATOM      6  I   LIG    1       14.860  -4.936  -4.806  0.00  0.00    -0.042 I 
ATOM      7  C   LIG    1       14.957  -1.909  -4.809  0.00  0.00    +0.065 A 
ATOM      8  C   LIG    1       14.099  -0.863  -5.116  0.00  0.00    +0.049 A 
ATOM      9  I   LIG    1       14.452   0.624  -6.524  0.00  0.00    -0.041 I 
ENDROOT
BRANCH   1  11
ATOM     10  C   LIG    1       11.209  -2.416  -5.100  0.00  0.00    +0.243 C 
ATOM     11  N   LIG    1       11.699  -1.197  -4.693  0.00  0.00    -0.282 N 
ATOM     12  H   LIG    1       11.254  -0.530  -5.317  0.00  0.00    +0.155 HD
ATOM     13  O   LIG    1       10.523  -2.301  -6.122  0.00  0.00    -0.273 OA
BRANCH  10  14
ATOM     14  C   LIG    1       11.534  -3.919  -4.678  0.00  0.00    +0.255 C 
BRANCH  14  16
ATOM     15  C   LIG    1       11.783  -5.965  -3.459  0.00  0.00    +0.194 C 
ATOM     16  O   LIG    1       11.786  -4.514  -3.414  0.00  0.00    -0.374 OA
ENDBRANCH  14  16
ENDBRANCH  10  14
ENDBRANCH   1  11
BRANCH   4  17
ATOM     17  C   LIG    1       13.562  -2.528  -1.088  0.00  0.00    +0.248 C 
ATOM     18  N   LIG    1       14.032  -3.714  -0.362  0.00  0.00    -0.298 N 
ATOM     19  C   LIG    1       14.718  -4.943  -0.783  0.00  0.00    +0.132 C 
ATOM     20  O   LIG    1       13.217  -1.595  -0.414  0.00  0.00    -0.270 OA
BRANCH  18  21
ATOM     21  C   LIG    1       13.275  -3.904   0.858  0.00  0.00    +0.141 C 
BRANCH  21  22
ATOM     22  C   LIG    1       13.630  -5.178   1.635  0.00  0.00    +0.157 C 
BRANCH  22  23
ATOM     23  O   LIG    1       13.440  -6.393   0.857  0.00  0.00    -0.388 OA
ATOM     24  H   LIG    1       13.748  -7.110   1.446  0.00  0.00    +0.210 HD
ENDBRANCH  22  23
BRANCH  22  25
ATOM     25  C   LIG    1       12.636  -5.341   2.735  0.00  0.00    +0.188 C 
BRANCH  25  26
ATOM     26  O   LIG    1       12.986  -6.545   3.405  0.00  0.00    -0.392 OA
ATOM     27  H   LIG    1       12.524  -6.514   4.258  0.00  0.00    +0.209 HD
ENDBRANCH  25  26
ENDBRANCH  22  25
ENDBRANCH  21  22
ENDBRANCH  18  21
ENDBRANCH   4  17
BRANCH   7  28
ATOM     28  C   LIG    1       16.462  -2.062  -5.208  0.00  0.00    +0.246 C 
ATOM     29  N   LIG    1       17.583  -2.494  -4.444  0.00  0.00    -0.309 N 
ATOM     30  H   LIG    1       18.386  -2.459  -5.062  0.00  0.00    +0.149 HD
ATOM     31  O   LIG    1       16.761  -1.751  -6.377  0.00  0.00    -0.270 OA
BRANCH  29  32
ATOM     32  C   LIG    1       18.039  -3.062  -3.114  0.00  0.00    +0.138 C 
BRANCH  32  33
ATOM     33  C   LIG    1       17.559  -2.412  -1.835  0.00  0.00    +0.157 C 
BRANCH  33  34
ATOM     34  O   LIG    1       17.771  -1.017  -1.692  0.00  0.00    -0.388 OA
ATOM     35  H   LIG    1       16.950  -0.631  -1.281  0.00  0.00    +0.210 HD
ENDBRANCH  33  34
BRANCH  33  36
ATOM     36  C   LIG    1       16.116  -2.513  -2.017  0.00  0.00    +0.188 C 
BRANCH  36  37
ATOM     37  O   LIG    1       15.693  -3.769  -2.370  0.00  0.00    -0.392 OA
ATOM     38  H   LIG    1       15.955  -4.281  -3.168  0.00  0.00    +0.209 HD
ENDBRANCH  36  37
ENDBRANCH  33  36
ENDBRANCH  32  33
ENDBRANCH  29  32
ENDBRANCH   7  28
TORSDOF 15
