REMARK  Name = *****
REMARK                            x       y       z     vdW  Elec       q    Type
REMARK                         _______ _______ _______ _____ _____    ______ ____
ROOT
ATOM      1  C   LIG    1        3.427  -0.371   0.924  0.00  0.00    +0.166 A 
ATOM      2  C   LIG    1        2.608   0.310   0.003  0.00  0.00    +0.204 A 
ATOM      3  C   LIG    1        3.198   1.193  -0.953  0.00  0.00    +0.173 A 
ATOM      4  C   LIG    1        4.615   1.351  -1.011  0.00  0.00    +0.031 A 
ATOM      5  C   LIG    1        5.345   2.277  -1.953  0.00  0.00    -0.009 A 
ATOM      6  C   LIG    1        6.075   3.465  -1.467  0.00  0.00    -0.016 A 
ATOM      7  C   LIG    1        6.266   3.600   0.058  0.00  0.00    +0.104 C 
ATOM      8  C   LIG    1        7.098   2.433   0.664  0.00  0.00    +0.032 C 
ATOM      9  C   LIG    1        6.873   1.030   0.081  0.00  0.00    +0.038 C 
ATOM     10  C   LIG    1        6.766   4.335  -2.229  0.00  0.00    +0.060 A 
ATOM     11  C   LIG    1        7.007   4.449  -3.687  0.00  0.00    +0.221 A 
ATOM     12  O   LIG    1        7.967   5.133  -4.039  0.00  0.00    -0.284 OA
ATOM     13  C   LIG    1        6.094   3.812  -4.678  0.00  0.00    +0.167 A 
ATOM     14  C   LIG    1        5.432   2.681  -4.422  0.00  0.00    +0.050 A 
ATOM     15  C   LIG    1        5.324   1.865  -3.236  0.00  0.00    +0.012 A 
ATOM     16  C   LIG    1        5.404   0.703  -0.034  0.00  0.00    -0.032 A 
ATOM     17  C   LIG    1        4.808  -0.141   0.914  0.00  0.00    +0.053 A 
ENDROOT
BRANCH   7  18
ATOM     18  N   LIG    1        4.978   3.834   0.699  0.00  0.00    -0.309 N 
ATOM     19  H   LIG    1        4.175   4.020   0.114  0.00  0.00    +0.149 HD
ATOM     20  C   LIG    1        4.880   4.146   2.044  0.00  0.00    +0.210 C 
ATOM     21  O   LIG    1        5.825   4.245   2.796  0.00  0.00    -0.276 OA
ATOM     22  C   LIG    1        3.456   4.355   2.503  0.00  0.00    +0.109 C 
ENDBRANCH   7  18
BRANCH   1  24
ATOM     23  C   LIG    1        1.885  -2.011   1.750  0.00  0.00    +0.277 C 
ATOM     24  O   LIG    1        3.037  -1.201   1.947  0.00  0.00    -0.491 OA
ENDBRANCH   1  24
BRANCH   2  25
ATOM     25  O   LIG    1        1.247   0.187   0.181  0.00  0.00    -0.488 OA
ATOM     26  C   LIG    1        0.413   0.233  -0.974  0.00  0.00    +0.277 C 
ENDBRANCH   2  25
BRANCH   3  27
ATOM     27  O   LIG    1        2.289   2.001  -1.599  0.00  0.00    -0.491 OA
ATOM     28  C   LIG    1        2.497   2.402  -2.938  0.00  0.00    +0.277 C 
ENDBRANCH   3  27
BRANCH  13  29
ATOM     29  O   LIG    1        5.840   4.389  -5.925  0.00  0.00    -0.491 OA
ATOM     30  C   LIG    1        6.895   5.132  -6.523  0.00  0.00    +0.277 C 
ENDBRANCH  13  29
TORSDOF 5
