REMARK  Name = *****
REMARK                            x       y       z     vdW  Elec       q    Type
REMARK                         _______ _______ _______ _____ _____    ______ ____
ROOT
ATOM      1  C1*   C A  1        6.433  -0.029   0.550  0.00  0.00    +0.255 C 
ATOM      2  C2*   C A  1        7.273   1.168   1.027  0.00  0.00    +0.195 C 
ATOM      3  C3*   C A  1        8.652   0.522   1.124  0.00  0.00    +0.178 C 
ATOM      4  C4*   C A  1        8.350  -0.936   1.515  0.00  0.00    +0.177 C 
ATOM      5  O4*   C A  1        6.950  -1.187   1.239  0.00  0.00    -0.346 OA
ENDROOT
BRANCH   1  10
ATOM      6  C4    C A  1        2.329   0.389   0.832  0.00  0.00    +0.123 C 
ATOM      7  N3    C A  1        2.941   0.870  -0.204  0.00  0.00    -0.178 NA
ATOM      8  C2    C A  1        4.311   0.783  -0.289  0.00  0.00    +0.352 C 
ATOM      9  O2    C A  1        4.915   1.266  -1.244  0.00  0.00    -0.244 OA
ATOM     10  N1    C A  1        4.997   0.094   0.716  0.00  0.00    -0.270 N 
ATOM     11  C6    C A  1        4.348  -0.372   1.835  0.00  0.00    +0.096 C 
ATOM     12  C5    C A  1        3.028  -0.252   1.963  0.00  0.00    +0.061 C 
BRANCH   6  13
ATOM     13  N4    C A  1        0.965   0.481   0.847  0.00  0.00    -0.343 N 
ATOM     14  H41   C A  1        0.591   0.725  -0.066  0.00  0.00    +0.144 HD
ATOM     15  H42   C A  1        0.457  -0.271   1.296  0.00  0.00    +0.144 HD
ENDBRANCH   6  13
ENDBRANCH   1  10
BRANCH   2  16
ATOM     16  O2*   C A  1        6.858   1.669   2.306  0.00  0.00    -0.385 OA
ATOM     17  H2*   C A  1        7.185   1.061   3.002  0.00  0.00    +0.210 HD
ENDBRANCH   2  16
BRANCH   3  18
ATOM     18  O3*   C A  1        9.340   0.563  -0.133  0.00  0.00    -0.386 OA
ATOM     19  H3*   C A  1        8.813   0.119  -0.820  0.00  0.00    +0.210 HD
ENDBRANCH   3  18
BRANCH   4  20
ATOM     20  C5*   C A  1        8.591  -1.228   2.996  0.00  0.00    +0.190 C 
BRANCH  20  21
ATOM     21  O5*   C A  1        7.769  -0.392   3.812  0.00  0.00    -0.392 OA
ATOM     22  H5*   C A  1        6.938  -0.886   3.950  0.00  0.00    +0.209 HD
ENDBRANCH  20  21
ENDBRANCH   4  20
TORSDOF 6
