REMARK  Name = *****
REMARK                            x       y       z     vdW  Elec       q    Type
REMARK                         _______ _______ _______ _____ _____    ______ ____
ROOT
ATOM      1  C   LIG    1        5.197   1.512   5.062  0.00  0.00    +0.164 A 
ATOM      2  C   LIG    1        4.391   0.603   4.353  0.00  0.00    +0.162 A 
ATOM      3  C   LIG    1        3.574   1.089   3.332  0.00  0.00    +0.062 A 
ATOM      4  C   LIG    1        3.551   2.461   3.014  0.00  0.00    +0.044 A 
ATOM      5  C   LIG    1        4.348   3.364   3.706  0.00  0.00    +0.082 A 
ATOM      6  N   LIG    1        4.347   4.675   3.440  0.00  0.00    -0.214 NA
ATOM      7  C   LIG    1        3.554   5.123   2.455  0.00  0.00    +0.220 A 
ATOM      8  N   LIG    1        2.756   4.316   1.739  0.00  0.00    -0.199 NA
ATOM      9  C   LIG    1        2.740   3.018   2.036  0.00  0.00    +0.129 A 
ATOM     10  C   LIG    1        5.143   2.876   4.732  0.00  0.00    +0.078 A 
ENDROOT
BRANCH   9  11
ATOM     11  N   LIG    1        1.827   2.249   1.302  0.00  0.00    -0.343 N 
ATOM     12  H   LIG    1        1.185   1.767   1.923  0.00  0.00    +0.144 HD
ATOM     13  H   LIG    1        1.327   2.899   0.699  0.00  0.00    +0.144 HD
ENDBRANCH   9  11
BRANCH   1  15
ATOM     14  C   LIG    1        7.127   1.866   6.403  0.00  0.00    +0.277 C 
ATOM     15  O   LIG    1        6.010   1.035   6.065  0.00  0.00    -0.491 OA
ENDBRANCH   1  15
BRANCH   2  16
ATOM     16  O   LIG    1        4.400  -0.726   4.704  0.00  0.00    -0.491 OA
ATOM     17  C   LIG    1        4.083  -1.639   3.649  0.00  0.00    +0.277 C 
ENDBRANCH   2  16
BRANCH   7  18
ATOM     18  N   LIG    1        3.510   6.492   2.201  0.00  0.00    -0.303 N 
ATOM     19  C   LIG    1        2.680   6.857   1.062  0.00  0.00    +0.132 C 
BRANCH  18  20
ATOM     20  C   LIG    1        3.463   7.354   3.392  0.00  0.00    +0.109 C 
BRANCH  20  21
ATOM     21  C   LIG    1        2.230   7.092   4.272  0.00  0.00    +0.037 C 
BRANCH  21  22
ATOM     22  C   LIG    1        2.153   8.018   5.486  0.00  0.00    +0.105 C 
BRANCH  22  23
ATOM     23  N   LIG    1        1.003   7.686   6.311  0.00  0.00    -0.313 N 
ATOM     24  H   LIG    1        0.946   6.775   6.763  0.00  0.00    +0.149 HD
ATOM     25  C   LIG    1       -0.061   8.526   6.512  0.00  0.00    +0.242 C 
ATOM     26  O   LIG    1       -0.079   9.703   6.120  0.00  0.00    -0.273 OA
BRANCH  25  27
ATOM     27  C   LIG    1       -1.252   7.907   7.263  0.00  0.00    +0.204 C 
ATOM     28  O   LIG    1       -1.078   6.501   7.519  0.00  0.00    -0.367 OA
ATOM     29  C   LIG    1       -1.421   6.264   8.888  0.00  0.00    +0.161 C 
ATOM     30  C   LIG    1       -1.091   7.549   9.607  0.00  0.00    +0.031 C 
ATOM     31  C   LIG    1       -1.505   8.590   8.595  0.00  0.00    +0.043 C 
ENDBRANCH  25  27
ENDBRANCH  22  23
ENDBRANCH  21  22
ENDBRANCH  20  21
ENDBRANCH  18  20
ENDBRANCH   7  18
TORSDOF 9
