REMARK  Name = *****
REMARK                            x       y       z     vdW  Elec       q    Type
REMARK                         _______ _______ _______ _____ _____    ______ ____
ROOT
ATOM      1  C   LIG    1        5.658   1.263  -0.328  0.00  0.00    +0.186 A 
ATOM      2  C   LIG    1        6.026   2.110  -1.363  0.00  0.00    +0.171 A 
ATOM      3  N   LIG    1        7.256   2.709  -1.093  0.00  0.00    -0.229 NA
ATOM      4  C   LIG    1        7.608   2.252   0.087  0.00  0.00    +0.199 A 
ATOM      5  N   LIG    1        6.677   1.392   0.588  0.00  0.00    -0.328 N 
ATOM      6  H   LIG    1        6.708   0.910   1.474  0.00  0.00    +0.168 HD
ENDROOT
BRANCH   2   7
ATOM      7  C   LIG    1        5.270   2.362  -2.586  0.00  0.00    +0.264 C 
ATOM      8  O   LIG    1        4.180   1.875  -2.854  0.00  0.00    -0.269 OA
ATOM      9  N   LIG    1        5.892   3.219  -3.452  0.00  0.00    -0.324 N 
ATOM     10  H   LIG    1        5.438   3.449  -4.322  0.00  0.00    +0.145 HD
ATOM     11  H   LIG    1        6.791   3.615  -3.207  0.00  0.00    +0.145 HD
ENDBRANCH   2   7
BRANCH   1  13
ATOM     12  N   LIG    1        4.725  -0.443   0.719  0.00  0.00    -0.077 NA
ATOM     13  N   LIG    1        4.582   0.466  -0.122  0.00  0.00    -0.113 NA
BRANCH  12  15
ATOM     14  C   LIG    1        2.672  -1.385  -0.238  0.00  0.00    +0.153 C 
ATOM     15  N   LIG    1        3.606  -1.225   0.873  0.00  0.00    -0.243 N 
ATOM     16  C   LIG    1        3.806  -2.377   1.733  0.00  0.00    +0.153 C 
ENDBRANCH  12  15
ENDBRANCH   1  13
TORSDOF 3
