REMARK  Name = *****
REMARK                            x       y       z     vdW  Elec       q    Type
REMARK                         _______ _______ _______ _____ _____    ______ ____
ROOT
ATOM      1  C   LIG    1        4.464  -2.252  -0.684  0.00  0.00    +0.121 C 
ENDROOT
BRANCH   1   2
ATOM      2  C   LIG    1        6.001  -2.099  -0.606  0.00  0.00    +0.024 A 
ATOM      3  C   LIG    1        6.862  -3.191  -0.810  0.00  0.00    +0.130 A 
ATOM      4  F   LIG    1        6.355  -4.389  -1.131  0.00  0.00    -0.205 F 
ATOM      5  C   LIG    1        8.254  -3.082  -0.669  0.00  0.00    +0.041 A 
ATOM      6  C   LIG    1        8.828  -1.857  -0.340  0.00  0.00    +0.041 A 
ATOM      7  C   LIG    1        8.001  -0.761  -0.152  0.00  0.00    +0.124 A 
ATOM      8  F   LIG    1        8.541   0.428   0.149  0.00  0.00    -0.205 F 
ATOM      9  C   LIG    1        6.614  -0.874  -0.265  0.00  0.00    +0.047 A 
ENDBRANCH   1   2
BRANCH   1  11
ATOM     10  C   LIG    1        2.365  -3.218   0.554  0.00  0.00    +0.018 C 
ATOM     11  C   LIG    1        3.908  -3.179   0.478  0.00  0.00    +0.080 C 
BRANCH  11  12
ATOM     12  C   LIG    1        4.455  -2.797   1.847  0.00  0.00    +0.085 A 
ATOM     13  S   LIG    1        4.876  -4.039   2.969  0.00  0.00    -0.080 S 
ATOM     14  C   LIG    1        5.381  -2.846   4.088  0.00  0.00    +0.075 A 
ATOM     15  C   LIG    1        5.165  -1.580   3.578  0.00  0.00    +0.078 A 
ATOM     16  N   LIG    1        4.639  -1.570   2.291  0.00  0.00    -0.244 NA
BRANCH  15  17
ATOM     17  C   LIG    1        5.440  -0.335   4.302  0.00  0.00    +0.001 A 
ATOM     18  C   LIG    1        5.202   0.904   3.687  0.00  0.00    +0.011 A 
ATOM     19  C   LIG    1        5.446   2.106   4.366  0.00  0.00    +0.019 A 
ATOM     20  C   LIG    1        5.934   2.089   5.676  0.00  0.00    +0.052 A 
ATOM     21  C   LIG    1        6.169   0.863   6.302  0.00  0.00    +0.019 A 
ATOM     22  C   LIG    1        5.924  -0.334   5.621  0.00  0.00    +0.011 A 
BRANCH  20  23
ATOM     23  C   LIG    1        6.196   3.310   6.372  0.00  0.00    +0.099 C 
ATOM     24  N   LIG    1        6.418   4.301   6.949  0.00  0.00    -0.191 NA
ENDBRANCH  20  23
ENDBRANCH  15  17
ENDBRANCH  11  12
ENDBRANCH   1  11
BRANCH   1  25
ATOM     25  O   LIG    1        3.812  -0.965  -0.560  0.00  0.00    -0.381 OA
ATOM     26  H   LIG    1        4.317  -0.315  -1.079  0.00  0.00    +0.211 HD
ENDBRANCH   1  25
BRANCH   1  27
ATOM     27  C   LIG    1        3.959  -2.814  -2.055  0.00  0.00    +0.185 C 
BRANCH  27  28
ATOM     28  N   LIG    1        4.295  -1.984  -3.196  0.00  0.00    -0.249 N 
ATOM     29  N   LIG    1        5.491  -2.085  -3.800  0.00  0.00    -0.158 NA
ATOM     30  C   LIG    1        5.425  -1.087  -4.685  0.00  0.00    +0.244 A 
ATOM     31  N   LIG    1        4.242  -0.405  -4.704  0.00  0.00    -0.223 NA
ATOM     32  C   LIG    1        3.536  -1.015  -3.780  0.00  0.00    +0.219 A 
ENDBRANCH  27  28
ENDBRANCH   1  27
TORSDOF 8
