REMARK  Name = *****
REMARK                            x       y       z     vdW  Elec       q    Type
REMARK                         _______ _______ _______ _____ _____    ______ ____
ROOT
ATOM      1  C   LIG    1        5.136  -0.179  -0.777  0.00  0.00    +0.101 C 
ENDROOT
BRANCH   1   2
ATOM      2  N   LIG    1        3.657  -0.116  -0.942  0.00  0.00    -0.281 NA
BRANCH   2   3
ATOM      3  C   LIG    1        2.962  -0.138   0.385  0.00  0.00    +0.206 C 
BRANCH   3   5
ATOM      4  O   LIG    1        2.721  -1.786   2.172  0.00  0.00    -0.250 OA
ATOM      5  C   LIG    1        2.978  -1.539   0.983  0.00  0.00    +0.319 C 
BRANCH   5   6
ATOM      6  O   LIG    1        3.240  -2.512   0.082  0.00  0.00    -0.480 OA
ATOM      7  H   LIG    1        3.397  -2.081  -0.790  0.00  0.00    +0.295 HD
ENDBRANCH   5   6
ENDBRANCH   3   5
ENDBRANCH   2   3
BRANCH   2   8
ATOM      8  C   LIG    1        3.103   1.006  -1.773  0.00  0.00    +0.206 C 
BRANCH   8   9
ATOM      9  C   LIG    1        3.428   2.426  -1.307  0.00  0.00    +0.319 C 
ATOM     10  O   LIG    1        4.338   3.124  -1.714  0.00  0.00    -0.250 OA
BRANCH   9  11
ATOM     11  O   LIG    1        2.502   2.904  -0.457  0.00  0.00    -0.480 OA
ATOM     12  H   LIG    1        2.746   3.834  -0.280  0.00  0.00    +0.295 HD
ENDBRANCH   9  11
ENDBRANCH   8   9
ENDBRANCH   2   8
ENDBRANCH   1   2
BRANCH   1  13
ATOM     13  C   LIG    1        6.032  -0.082  -2.053  0.00  0.00    +0.101 C 
BRANCH  13  14
ATOM     14  N   LIG    1        7.506  -0.368  -1.917  0.00  0.00    -0.281 NA
BRANCH  14  15
ATOM     15  C   LIG    1        7.745  -1.832  -1.662  0.00  0.00    +0.206 C 
BRANCH  15  16
ATOM     16  C   LIG    1        9.214  -2.290  -1.591  0.00  0.00    +0.319 C 
ATOM     17  O   LIG    1        9.713  -3.089  -2.371  0.00  0.00    -0.250 OA
BRANCH  16  18
ATOM     18  O   LIG    1        9.917  -1.841  -0.525  0.00  0.00    -0.480 OA
ATOM     19  H   LIG    1        9.414  -1.332   0.132  0.00  0.00    +0.295 HD
ENDBRANCH  16  18
ENDBRANCH  15  16
ENDBRANCH  14  15
BRANCH  14  20
ATOM     20  C   LIG    1        8.151   0.496  -0.902  0.00  0.00    +0.206 C 
BRANCH  20  21
ATOM     21  C   LIG    1        8.045   1.984  -1.213  0.00  0.00    +0.319 C 
ATOM     22  O   LIG    1        8.043   2.839  -0.332  0.00  0.00    -0.250 OA
BRANCH  21  23
ATOM     23  O   LIG    1        8.081   2.259  -2.527  0.00  0.00    -0.480 OA
ATOM     24  H   LIG    1        8.094   1.420  -3.037  0.00  0.00    +0.295 HD
ENDBRANCH  21  23
ENDBRANCH  20  21
ENDBRANCH  14  20
ENDBRANCH  13  14
ENDBRANCH   1  13
TORSDOF 15
