REMARK  Name = *****
REMARK                            x       y       z     vdW  Elec       q    Type
REMARK                         _______ _______ _______ _____ _____    ______ ____
ROOT
ATOM      1  N   LIG    1        5.524   3.140  -1.540  0.00  0.00    -0.327 N 
ATOM      2  C   LIG    1        6.288   2.039  -2.164  0.00  0.00    +0.120 C 
ATOM      3  C   LIG    1        6.806   2.499  -3.550  0.00  0.00    +0.103 C 
ATOM      4  N   LIG    1        7.638   3.727  -3.543  0.00  0.00    -0.299 NA
ATOM      5  C   LIG    1        6.874   4.785  -2.826  0.00  0.00    +0.103 C 
ATOM      6  C   LIG    1        6.311   4.386  -1.432  0.00  0.00    +0.120 C 
ENDROOT
BRANCH   1   9
ATOM      7  C   LIG    1        2.624   1.583   0.211  0.00  0.00    +0.057 A 
ATOM      8  C   LIG    1        3.564   1.940  -0.777  0.00  0.00    +0.035 A 
ATOM      9  C   LIG    1        4.661   2.778  -0.505  0.00  0.00    +0.030 A 
ATOM     10  C   LIG    1        4.789   3.249   0.807  0.00  0.00    +0.023 A 
ATOM     11  C   LIG    1        3.876   2.893   1.807  0.00  0.00    +0.002 A 
ATOM     12  C   LIG    1        2.796   2.065   1.512  0.00  0.00    +0.012 A 
BRANCH   7  14
ATOM     13  F   LIG    1        0.636   0.424   0.910  0.00  0.00    -0.166 F 
ATOM     14  C   LIG    1        1.454   0.702  -0.145  0.00  0.00    +0.417 C 
ATOM     15  F   LIG    1        0.651   1.251  -1.099  0.00  0.00    -0.166 F 
ATOM     16  F   LIG    1        1.843  -0.508  -0.637  0.00  0.00    -0.166 F 
ENDBRANCH   7  14
ENDBRANCH   1   9
BRANCH   4  17
ATOM     17  C   LIG    1        8.964   3.540  -2.919  0.00  0.00    +0.092 C 
BRANCH  17  18
ATOM     18  C   LIG    1        9.833   2.478  -3.612  0.00  0.00    +0.091 C 
BRANCH  18  19
ATOM     19  C   LIG    1       11.164   2.356  -2.969  0.00  0.00    +0.135 A 
ATOM     20  N   LIG    1       12.282   1.963  -3.603  0.00  0.00    -0.314 N 
ATOM     21  C   LIG    1       12.683   1.449  -4.916  0.00  0.00    +0.129 C 
ATOM     22  C   LIG    1       13.888   0.626  -4.469  0.00  0.00    +0.019 C 
ATOM     23  C   LIG    1       14.511   1.481  -3.330  0.00  0.00    +0.062 C 
ATOM     24  C   LIG    1       15.541   0.520  -2.811  0.00  0.00    +0.011 C 
ATOM     25  C   LIG    1       16.127  -0.057  -4.131  0.00  0.00    +0.001 C 
ATOM     26  C   LIG    1       15.118   0.282  -5.266  0.00  0.00    +0.006 C 
ATOM     27  C   LIG    1       13.283   1.896  -2.674  0.00  0.00    +0.137 A 
ATOM     28  N   LIG    1       12.831   2.270  -1.506  0.00  0.00    -0.134 NA
ATOM     29  N   LIG    1       11.478   2.554  -1.695  0.00  0.00    -0.134 NA
ENDBRANCH  18  19
ENDBRANCH  17  18
ENDBRANCH   4  17
TORSDOF 5
