REMARK  Name = *****
REMARK                            x       y       z     vdW  Elec       q    Type
REMARK                         _______ _______ _______ _____ _____    ______ ____
ROOT
ATOM      1  C   LIG    1        2.835  -6.202   1.003  0.00  0.00    -0.027 A 
ATOM      2  C   LIG    1        2.097  -7.158   1.738  0.00  0.00    -0.033 A 
ATOM      3  C   LIG    1        0.957  -6.709   2.624  0.00  0.00    +0.045 C 
ATOM      4  C   LIG    1        2.438  -8.555   1.634  0.00  0.00    +0.043 A 
ATOM      5  C   LIG    1        3.621  -8.925   0.966  0.00  0.00    +0.078 A 
ATOM      6  N   LIG    1        4.068 -10.175   0.890  0.00  0.00    -0.215 NA
ATOM      7  C   LIG    1        3.328 -11.135   1.435  0.00  0.00    +0.215 A 
ATOM      8  N   LIG    1        2.157 -10.938   2.037  0.00  0.00    -0.200 NA
ATOM      9  C   LIG    1        4.363  -7.953   0.324  0.00  0.00    +0.029 A 
ATOM     10  C   LIG    1        1.720  -9.676   2.100  0.00  0.00    +0.129 A 
ATOM     11  C   LIG    1        3.974  -6.619   0.304  0.00  0.00    +0.007 A 
ENDROOT
BRANCH   7  12
ATOM     12  N   LIG    1        3.820 -12.421   1.395  0.00  0.00    -0.327 N 
ATOM     13  H   LIG    1        3.433 -12.955   2.161  0.00  0.00    +0.145 HD
ATOM     14  H   LIG    1        4.830 -12.389   1.323  0.00  0.00    +0.145 HD
ENDBRANCH   7  12
BRANCH  10  15
ATOM     15  N   LIG    1        0.423  -9.568   2.622  0.00  0.00    -0.343 N 
ATOM     16  H   LIG    1       -0.188  -9.121   1.948  0.00  0.00    +0.144 HD
ATOM     17  H   LIG    1        0.112 -10.518   2.814  0.00  0.00    +0.144 HD
ENDBRANCH  10  15
BRANCH   1  18
ATOM     18  C   LIG    1        2.441  -4.747   0.906  0.00  0.00    +0.137 C 
BRANCH  18  19
ATOM     19  N   LIG    1        3.056  -3.972   1.970  0.00  0.00    -0.340 N 
ATOM     20  H   LIG    1        4.004  -4.254   2.206  0.00  0.00    +0.146 HD
BRANCH  19  25
ATOM     21  C   LIG    1        1.781  -0.527   1.268  0.00  0.00    +0.167 A 
ATOM     22  C   LIG    1        2.379   0.194   2.321  0.00  0.00    +0.204 A 
ATOM     23  C   LIG    1        3.234  -0.479   3.212  0.00  0.00    +0.167 A 
ATOM     24  C   LIG    1        3.426  -1.865   3.074  0.00  0.00    +0.072 A 
ATOM     25  C   LIG    1        2.861  -2.589   2.020  0.00  0.00    +0.035 A 
ATOM     26  C   LIG    1        2.021  -1.900   1.142  0.00  0.00    +0.072 A 
BRANCH  21  28
ATOM     27  C   LIG    1        0.408  -0.505  -0.698  0.00  0.00    +0.277 C 
ATOM     28  O   LIG    1        0.996   0.190   0.395  0.00  0.00    -0.491 OA
ENDBRANCH  21  28
BRANCH  22  29
ATOM     29  O   LIG    1        1.997   1.513   2.397  0.00  0.00    -0.488 OA
ATOM     30  C   LIG    1        2.903   2.439   2.972  0.00  0.00    +0.277 C 
ENDBRANCH  22  29
BRANCH  23  31
ATOM     31  O   LIG    1        3.802   0.210   4.252  0.00  0.00    -0.491 OA
ATOM     32  C   LIG    1        5.112  -0.201   4.640  0.00  0.00    +0.277 C 
ENDBRANCH  23  31
ENDBRANCH  19  25
ENDBRANCH  18  19
ENDBRANCH   1  18
TORSDOF 8
