REMARK  Name = *****
REMARK                            x       y       z     vdW  Elec       q    Type
REMARK                         _______ _______ _______ _____ _____    ______ ____
ROOT
ATOM      1  C   LIG    1        1.502   2.199   1.018  0.00  0.00    +0.150 A 
ATOM      2  C   LIG    1        2.848   2.145   1.414  0.00  0.00    +0.147 A 
ATOM      3  N   LIG    1        3.463   1.667   2.550  0.00  0.00    -0.231 NA
ATOM      4  C   LIG    1        4.749   1.871   2.345  0.00  0.00    +0.203 A 
ATOM      5  N   LIG    1        4.989   2.452   1.128  0.00  0.00    -0.285 N 
ATOM      6  C   LIG    1        3.781   2.629   0.512  0.00  0.00    +0.170 A 
ATOM      7  N   LIG    1        3.543   3.144  -0.704  0.00  0.00    -0.182 NA
ATOM      8  C   LIG    1        2.221   3.140  -0.980  0.00  0.00    +0.313 A 
ATOM      9  F   LIG    1        1.872   3.619  -2.184  0.00  0.00    -0.161 F 
ATOM     10  N   LIG    1        1.208   2.691  -0.204  0.00  0.00    -0.185 NA
ENDROOT
BRANCH   5  11
ATOM     11  C1* LIG    1        6.273   2.799   0.562  0.00  0.00    +0.253 C 
ATOM     12  C2* LIG    1        6.748   4.234   0.821  0.00  0.00    +0.195 C 
ATOM     13  C3* LIG    1        8.262   4.058   0.821  0.00  0.00    +0.178 C 
ATOM     14  C4* LIG    1        8.475   2.647   1.377  0.00  0.00    +0.177 C 
ATOM     15  O4* LIG    1        7.287   1.890   1.054  0.00  0.00    -0.346 OA
BRANCH  12  16
ATOM     16  O2* LIG    1        6.302   4.785   2.062  0.00  0.00    -0.385 OA
ATOM     17  H2* LIG    1        6.649   4.227   2.792  0.00  0.00    +0.210 HD
ENDBRANCH  12  16
BRANCH  13  18
ATOM     18  O3* LIG    1        8.764   4.133  -0.521  0.00  0.00    -0.386 OA
ATOM     19  H3* LIG    1        8.536   3.318  -1.003  0.00  0.00    +0.210 HD
ENDBRANCH  13  18
BRANCH  14  20
ATOM     20  C5* LIG    1        8.704   2.582   2.893  0.00  0.00    +0.190 C 
BRANCH  20  21
ATOM     21  O5* LIG    1        7.619   3.166   3.612  0.00  0.00    -0.392 OA
ATOM     22  H5* LIG    1        7.760   2.949   4.555  0.00  0.00    +0.209 HD
ENDBRANCH  20  21
ENDBRANCH  14  20
ENDBRANCH   5  11
BRANCH   1  23
ATOM     23  N   LIG    1        0.461   1.741   1.815  0.00  0.00    -0.341 N 
ATOM     24  H   LIG    1        0.761   1.101   2.542  0.00  0.00    +0.144 HD
ATOM     25  H   LIG    1       -0.359   1.493   1.278  0.00  0.00    +0.144 HD
ENDBRANCH   1  23
TORSDOF 6
