REMARK  Name = *****
REMARK                            x       y       z     vdW  Elec       q    Type
REMARK                         _______ _______ _______ _____ _____    ______ ____
ROOT
ATOM      1  C5M   T A  1        2.149   2.421   3.717  0.00  0.00    +0.051 C 
ATOM      2  C5    T A  1        2.894   1.740   2.617  0.00  0.00    +0.030 C 
ATOM      3  C4    T A  1        2.662   0.293   2.414  0.00  0.00    +0.257 C 
ATOM      4  O4    T A  1        1.858  -0.337   3.091  0.00  0.00    -0.267 OA
ATOM      5  N3    T A  1        3.402  -0.294   1.428  0.00  0.00    -0.275 N 
ATOM      6  H3    T A  1        3.259  -1.280   1.278  0.00  0.00    +0.173 HD
ATOM      7  C2    T A  1        4.269   0.339   0.578  0.00  0.00    +0.331 C 
ATOM      8  O2    T A  1        4.868  -0.298  -0.286  0.00  0.00    -0.246 OA
ATOM      9  N1    T A  1        4.404   1.710   0.766  0.00  0.00    -0.274 N 
ATOM     10  C6    T A  1        3.744   2.360   1.790  0.00  0.00    +0.102 C 
ENDROOT
BRANCH   9  11
ATOM     11  C1*   T A  1        5.282   2.425  -0.160  0.00  0.00    +0.226 C 
ATOM     12  O4*   T A  1        4.827   3.786  -0.319  0.00  0.00    -0.348 OA
ATOM     13  C4*   T A  1        5.908   4.667   0.051  0.00  0.00    +0.175 C 
ATOM     14  C3*   T A  1        6.841   3.846   0.928  0.00  0.00    +0.150 C 
ATOM     15  C2*   T A  1        6.739   2.480   0.291  0.00  0.00    +0.088 C 
BRANCH  14  16
ATOM     16  O3*   T A  1        8.168   4.340   0.953  0.00  0.00    -0.389 OA
ATOM     17  H3*   T A  1        8.522   4.355   0.046  0.00  0.00    +0.210 HD
ENDBRANCH  14  16
BRANCH  13  18
ATOM     18  C5*   T A  1        5.335   5.894   0.755  0.00  0.00    +0.190 C 
BRANCH  18  19
ATOM     19  O5*   T A  1        4.468   6.595  -0.137  0.00  0.00    -0.392 OA
ATOM     20  H5*   T A  1        3.889   5.920  -0.540  0.00  0.00    +0.209 HD
ENDBRANCH  18  19
ENDBRANCH  13  18
ENDBRANCH   9  11
TORSDOF 4
