REMARK  Name = *****
REMARK                            x       y       z     vdW  Elec       q    Type
REMARK                         _______ _______ _______ _____ _____    ______ ____
ROOT
ATOM      1  N   LIG    1        4.706  -1.029   0.337  0.00  0.00    -0.297 NA
ATOM      2  C   LIG    1        5.189  -2.335  -0.156  0.00  0.00    +0.100 C 
ATOM      3  C   LIG    1        5.803  -3.115   1.025  0.00  0.00    +0.100 C 
ATOM      4  N   LIG    1        6.955  -3.961   0.606  0.00  0.00    -0.290 NA
ATOM      5  C   LIG    1        8.121  -3.636   1.482  0.00  0.00    +0.100 C 
ATOM      6  C   LIG    1        8.801  -2.259   1.189  0.00  0.00    +0.100 C 
ATOM      7  N   LIG    1        8.460  -1.080   2.065  0.00  0.00    -0.290 NA
ATOM      8  C   LIG    1        9.078   0.119   1.417  0.00  0.00    +0.100 C 
ATOM      9  C   LIG    1        8.431   1.509   1.685  0.00  0.00    +0.100 C 
ATOM     10  N   LIG    1        7.151   1.819   0.982  0.00  0.00    -0.290 NA
ATOM     11  C   LIG    1        6.031   0.893   1.306  0.00  0.00    +0.100 C 
ATOM     12  C   LIG    1        5.756  -0.011   0.101  0.00  0.00    +0.100 C 
ENDROOT
BRANCH   1  13
ATOM     13  C   LIG    1        3.416  -0.624  -0.264  0.00  0.00    +0.115 C 
BRANCH  13  15
ATOM     14  C   LIG    1        0.976  -1.152  -0.782  0.00  0.00    +0.039 C 
ATOM     15  C   LIG    1        2.228  -1.604  -0.038  0.00  0.00    +0.125 C 
BRANCH  15  16
ATOM     16  O   LIG    1        1.923  -1.732   1.351  0.00  0.00    -0.391 OA
ATOM     17  H   LIG    1        1.355  -0.988   1.608  0.00  0.00    +0.210 HD
ENDBRANCH  15  16
ENDBRANCH  13  15
ENDBRANCH   1  13
BRANCH   4  18
ATOM     18  C   LIG    1        6.617  -5.402   0.790  0.00  0.00    +0.205 C 
BRANCH  18  19
ATOM     19  C   LIG    1        5.441  -5.851  -0.081  0.00  0.00    +0.319 C 
ATOM     20  O   LIG    1        4.414  -6.338   0.354  0.00  0.00    -0.250 OA
BRANCH  19  21
ATOM     21  O   LIG    1        5.662  -5.677  -1.409  0.00  0.00    -0.480 OA
ATOM     22  H   LIG    1        6.519  -5.234  -1.565  0.00  0.00    +0.295 HD
ENDBRANCH  19  21
ENDBRANCH  18  19
ENDBRANCH   4  18
BRANCH   7  23
ATOM     23  C   LIG    1        9.043  -1.308   3.435  0.00  0.00    +0.205 C 
BRANCH  23  24
ATOM     24  C   LIG    1        8.687  -0.242   4.471  0.00  0.00    +0.319 C 
ATOM     25  O   LIG    1        9.400   0.105   5.370  0.00  0.00    -0.250 OA
BRANCH  24  26
ATOM     26  O   LIG    1        7.416   0.233   4.329  0.00  0.00    -0.480 OA
ATOM     27  H   LIG    1        7.043  -0.244   3.571  0.00  0.00    +0.295 HD
ENDBRANCH  24  26
ENDBRANCH  23  24
ENDBRANCH   7  23
BRANCH  10  28
ATOM     28  C   LIG    1        6.694   3.208   1.290  0.00  0.00    +0.205 C 
BRANCH  28  29
ATOM     29  C   LIG    1        7.693   4.260   0.825  0.00  0.00    +0.319 C 
ATOM     30  O   LIG    1        7.802   5.373   1.324  0.00  0.00    -0.250 OA
BRANCH  29  31
ATOM     31  O   LIG    1        8.418   3.867  -0.254  0.00  0.00    -0.480 OA
ATOM     32  H   LIG    1        8.178   2.935  -0.459  0.00  0.00    +0.295 HD
ENDBRANCH  29  31
ENDBRANCH  28  29
ENDBRANCH  10  28
TORSDOF 12
