REMARK  Name = *****
REMARK                            x       y       z     vdW  Elec       q    Type
REMARK                         _______ _______ _______ _____ _____    ______ ____
ROOT
ATOM      1  C   LIG    1        5.955  -2.910  -0.916  0.00  0.00    +0.425 C 
ATOM      2  N   LIG    1        5.606  -3.947  -0.234  0.00  0.00    -0.110 NA
ENDROOT
BRANCH   1   3
ATOM      3  N   LIG    1        6.437  -3.150  -2.164  0.00  0.00    -0.286 N 
ATOM      4  H   LIG    1        6.642  -4.140  -2.248  0.00  0.00    +0.255 HD
ATOM      5  H   LIG    1        7.246  -2.574  -2.361  0.00  0.00    +0.255 HD
ENDBRANCH   1   3
BRANCH   1   7
ATOM      6  C   LIG    1        5.700  -0.614  -1.090  0.00  0.00    +0.387 C 
ATOM      7  N   LIG    1        5.914  -1.656  -0.378  0.00  0.00    -0.004 NA
BRANCH   6   8
ATOM      8  N   LIG    1        5.681   0.611  -0.510  0.00  0.00    -0.289 N 
ATOM      9  H   LIG    1        5.962   0.541   0.464  0.00  0.00    +0.255 HD
ATOM     10  H   LIG    1        6.253   1.287  -1.001  0.00  0.00    +0.255 HD
ENDBRANCH   6   8
BRANCH   6  11
ATOM     11  N   LIG    1        5.478  -0.478  -2.422  0.00  0.00    -0.289 N 
ATOM     12  H   LIG    1        5.173  -1.349  -2.854  0.00  0.00    +0.255 HD
ATOM     13  H   LIG    1        4.848   0.285  -2.639  0.00  0.00    +0.255 HD
ENDBRANCH   6  11
ENDBRANCH   1   7
BRANCH   2  14
ATOM     14  C   LIG    1        5.136  -3.733   1.139  0.00  0.00    +0.248 C 
BRANCH  14  15
ATOM     15  C   LIG    1        4.828  -5.102   1.761  0.00  0.00    +0.076 C 
BRANCH  15  16
ATOM     16  C   LIG    1        4.306  -5.022   3.178  0.00  0.00    -0.044 A 
ATOM     17  C   LIG    1        5.081  -4.454   4.199  0.00  0.00    +0.003 A 
ATOM     18  C   LIG    1        4.602  -4.400   5.510  0.00  0.00    +0.000 A 
ATOM     19  C   LIG    1        3.347  -4.920   5.817  0.00  0.00    +0.000 A 
ATOM     20  C   LIG    1        2.569  -5.492   4.812  0.00  0.00    +0.000 A 
ATOM     21  C   LIG    1        3.046  -5.545   3.501  0.00  0.00    +0.003 A 
ENDBRANCH  15  16
ENDBRANCH  14  15
ENDBRANCH   2  14
TORSDOF 7
