REMARK  Name = *****
REMARK                            x       y       z     vdW  Elec       q    Type
REMARK                         _______ _______ _______ _____ _____    ______ ____
ROOT
ATOM      1  C   LIG    1        0.870  -2.792  -4.510  0.00  0.00    +0.167 C 
ATOM      2  O   LIG    1        1.191  -3.071  -3.347  0.00  0.00    -0.292 OA
ENDROOT
BRANCH   1   6
ATOM      3  C   LIG    1       -2.650  -0.351  -5.123  0.00  0.00    -0.048 A 
ATOM      4  C   LIG    1       -2.204  -1.205  -6.138  0.00  0.00    +0.004 A 
ATOM      5  C   LIG    1       -1.095  -2.035  -5.947  0.00  0.00    +0.012 A 
ATOM      6  C   LIG    1       -0.393  -2.012  -4.737  0.00  0.00    +0.018 A 
ATOM      7  C   LIG    1       -0.885  -1.212  -3.692  0.00  0.00    +0.012 A 
ATOM      8  C   LIG    1       -2.001  -0.387  -3.884  0.00  0.00    +0.004 A 
BRANCH   3  10
ATOM      9  C   LIG    1       -5.072  -0.077  -5.773  0.00  0.00    +0.009 C 
ATOM     10  C   LIG    1       -3.774   0.619  -5.391  0.00  0.00    +0.032 C 
ENDBRANCH   3  10
ENDBRANCH   1   6
BRANCH   1  11
ATOM     11  C   LIG    1        1.770  -3.142  -5.700  0.00  0.00    +0.071 C 
ATOM     12  C   LIG    1        2.449  -4.503  -5.518  0.00  0.00    +0.017 C 
BRANCH  11  13
ATOM     13  C   LIG    1        2.798  -2.008  -5.929  0.00  0.00    +0.095 C 
BRANCH  13  14
ATOM     14  N   LIG    1        3.618  -2.153  -7.156  0.00  0.00    -0.302 NA
ATOM     15  C   LIG    1        2.837  -2.151  -8.401  0.00  0.00    +0.084 C 
ATOM     16  C   LIG    1        2.171  -0.807  -8.696  0.00  0.00    +0.015 C 
ATOM     17  C   LIG    1        3.183   0.337  -8.702  0.00  0.00    +0.002 C 
ATOM     18  C   LIG    1        4.118   0.292  -7.496  0.00  0.00    +0.015 C 
ATOM     19  C   LIG    1        4.667  -1.118  -7.251  0.00  0.00    +0.084 C 
ENDBRANCH  13  14
ENDBRANCH  11  13
ENDBRANCH   1  11
TORSDOF 5
