REMARK  Name = *****
REMARK                            x       y       z     vdW  Elec       q    Type
REMARK                         _______ _______ _______ _____ _____    ______ ____
ROOT
ATOM      1  C   LIG    1        2.917  -0.181  -1.413  0.00  0.00    +0.142 A 
ATOM      2  N   LIG    1        3.233  -1.431  -1.850  0.00  0.00    -0.247 NA
ATOM      3  C   LIG    1        3.901  -1.488  -3.024  0.00  0.00    +0.131 A 
ATOM      4  C   LIG    1        4.246  -0.354  -3.741  0.00  0.00    +0.130 A 
ATOM      5  N   LIG    1        3.939   0.893  -3.318  0.00  0.00    -0.260 NA
ATOM      6  C   LIG    1        3.266   0.952  -2.138  0.00  0.00    +0.143 A 
ENDROOT
BRANCH   1   9
ATOM      7  N   LIG    1        1.819  -1.060   0.622  0.00  0.00    -0.265 NA
ATOM      8  H   LIG    1        1.326  -0.759   1.459  0.00  0.00    +0.190 HD
ATOM      9  C   LIG    1        2.183  -0.080  -0.126  0.00  0.00    +0.233 C 
BRANCH   9  10
ATOM     10  O   LIG    1        1.898   1.181   0.240  0.00  0.00    -0.491 OA
ATOM     11  H   LIG    1        1.419   1.203   1.081  0.00  0.00    +0.294 HD
ENDBRANCH   9  10
ENDBRANCH   1   9
TORSDOF 2
