REMARK  Name = *****
REMARK                            x       y       z     vdW  Elec       q    Type
REMARK                         _______ _______ _______ _____ _____    ______ ____
ROOT
ATOM      1  C   LIG    1       -1.483  -3.337   4.111  0.00  0.00    +0.162 A 
ATOM      2  C   LIG    1       -1.564  -1.926   4.184  0.00  0.00    +0.162 A 
ATOM      3  C   LIG    1       -2.179  -1.346   5.299  0.00  0.00    +0.049 A 
ATOM      4  C   LIG    1       -2.662  -2.127   6.348  0.00  0.00    +0.004 A 
ATOM      5  C   LIG    1       -2.546  -3.513   6.292  0.00  0.00    +0.004 A 
ATOM      6  C   LIG    1       -1.962  -4.109   5.179  0.00  0.00    +0.049 A 
ENDROOT
BRANCH   1   8
ATOM      7  C   LIG    1       -0.920  -5.293   2.874  0.00  0.00    +0.277 C 
ATOM      8  O   LIG    1       -0.925  -3.867   2.973  0.00  0.00    -0.491 OA
ENDBRANCH   1   8
BRANCH   2   9
ATOM      9  O   LIG    1       -1.106  -1.202   3.106  0.00  0.00    -0.486 OA
BRANCH   9  10
ATOM     10  C   LIG    1       -0.626   0.132   3.344  0.00  0.00    +0.262 C 
BRANCH  10  11
ATOM     11  C   LIG    1       -0.755   0.969   2.061  0.00  0.00    +0.177 C 
BRANCH  11  12
ATOM     12  O   LIG    1       -2.143   1.068   1.689  0.00  0.00    -0.386 OA
ATOM     13  H   LIG    1       -2.508   0.165   1.757  0.00  0.00    +0.210 HD
ENDBRANCH  11  12
BRANCH  11  14
ATOM     14  C   LIG    1        0.028   0.395   0.879  0.00  0.00    +0.190 C 
BRANCH  14  15
ATOM     15  O   LIG    1       -0.079   1.261  -0.254  0.00  0.00    -0.392 OA
ATOM     16  H   LIG    1       -1.034   1.337  -0.445  0.00  0.00    +0.209 HD
ENDBRANCH  14  15
ENDBRANCH  11  14
ENDBRANCH  10  11
ENDBRANCH   9  10
ENDBRANCH   2   9
TORSDOF 7
