REMARK  Name = *****
REMARK                            x       y       z     vdW  Elec       q    Type
REMARK                         _______ _______ _______ _____ _____    ______ ____
ROOT
ATOM      1  C   LIG    1        0.152   5.626   2.432  0.00  0.00    +0.249 C 
ATOM      2  N   LIG    1        1.467   5.526   2.861  0.00  0.00    -0.298 N 
ATOM      3  H   LIG    1        1.718   6.076   3.678  0.00  0.00    +0.150 HD
ATOM      4  O   LIG    1       -0.319   4.799   1.658  0.00  0.00    -0.270 OA
ENDROOT
BRANCH   1   6
ATOM      5  C   LIG    1       -0.353   7.409   4.181  0.00  0.00    +0.133 A 
ATOM      6  C   LIG    1       -0.662   6.805   2.934  0.00  0.00    +0.086 A 
ATOM      7  C   LIG    1       -1.761   7.326   2.131  0.00  0.00    -0.002 A 
ATOM      8  C   LIG    1       -2.472   8.455   2.626  0.00  0.00    -0.017 A 
ATOM      9  C   LIG    1       -3.541   9.035   1.921  0.00  0.00    +0.008 A 
ATOM     10  C   LIG    1       -3.967   8.515   0.709  0.00  0.00    +0.001 A 
ATOM     11  C   LIG    1       -3.309   7.417   0.183  0.00  0.00    +0.001 A 
ATOM     12  C   LIG    1       -2.143   9.014   3.853  0.00  0.00    +0.012 A 
ATOM     13  C   LIG    1       -2.226   6.842   0.872  0.00  0.00    +0.009 A 
ATOM     14  C   LIG    1       -1.131   8.478   4.634  0.00  0.00    +0.047 A 
BRANCH   5  15
ATOM     15  O   LIG    1        0.678   6.907   4.951  0.00  0.00    -0.491 OA
BRANCH  15  17
ATOM     16  C   LIG    1        0.636   7.754   7.253  0.00  0.00    +0.048 C 
ATOM     17  C   LIG    1        1.292   7.817   5.880  0.00  0.00    +0.226 C 
ENDBRANCH  15  17
ENDBRANCH   5  15
ENDBRANCH   1   6
BRANCH   2  18
ATOM     18  CA  LIG    1        2.375   4.420   2.438  0.00  0.00    +0.190 C 
ATOM     19  C   LIG    1        3.874   4.773   2.203  0.00  0.00    +0.165 C 
ATOM     20  S   LIG    1        4.576   6.188   3.137  0.00  0.00    -0.127 S 
ATOM     21  C   LIG    1        5.791   5.131   4.087  0.00  0.00    +0.042 C 
ATOM     22  CA  LIG    1        5.407   3.645   3.849  0.00  0.00    +0.201 C 
ATOM     23  C   LIG    1        5.650   5.489   5.575  0.00  0.00    +0.025 C 
ATOM     24  C   LIG    1        7.196   5.541   3.616  0.00  0.00    +0.025 C 
ATOM     25  N   LIG    1        4.210   3.606   3.023  0.00  0.00    -0.271 N 
ATOM     26  C   LIG    1        2.959   3.523   3.564  0.00  0.00    +0.240 C 
ATOM     27  O   LIG    1        2.595   3.045   4.622  0.00  0.00    -0.273 OA
BRANCH  22  28
ATOM     28  C   LIG    1        6.490   2.812   3.168  0.00  0.00    +0.327 C 
ATOM     29  O   LIG    1        7.431   2.270   3.728  0.00  0.00    -0.249 OA
BRANCH  28  30
ATOM     30  OXT LIG    1        6.420   2.805   1.818  0.00  0.00    -0.479 OA
ATOM     31  HXT LIG    1        7.185   2.265   1.530  0.00  0.00    +0.295 HD
ENDBRANCH  28  30
ENDBRANCH  22  28
ENDBRANCH   2  18
TORSDOF 6
