REMARK  Name = *****
REMARK                            x       y       z     vdW  Elec       q    Type
REMARK                         _______ _______ _______ _____ _____    ______ ____
ROOT
ATOM      1  C   LIG    1        2.981   0.324   0.839  0.00  0.00    +0.064 A 
ATOM      2  C   LIG    1        2.895   1.486   1.671  0.00  0.00    +0.049 A 
ATOM      3  I   LIG    1        2.600   3.374   0.635  0.00  0.00    -0.041 I 
ATOM      4  C   LIG    1        3.163   1.432   3.066  0.00  0.00    +0.065 A 
ATOM      5  C   LIG    1        3.575   0.177   3.580  0.00  0.00    +0.040 A 
ATOM      6  I   LIG    1        3.032  -0.323   5.650  0.00  0.00    -0.042 I 
ATOM      7  C   LIG    1        3.937  -0.915   2.733  0.00  0.00    +0.065 A 
ATOM      8  C   LIG    1        3.591  -0.843   1.361  0.00  0.00    +0.049 A 
ATOM      9  I   LIG    1        3.853  -2.518  -0.014  0.00  0.00    -0.041 I 
ENDROOT
BRANCH   1  11
ATOM     10  C   LIG    1        3.088   0.292  -1.666  0.00  0.00    +0.138 C 
ATOM     11  N   LIG    1        2.295   0.282  -0.438  0.00  0.00    -0.271 N 
ATOM     12  C   LIG    1        0.901   0.471  -0.446  0.00  0.00    +0.245 C 
ATOM     13  O   LIG    1        0.228   0.510   0.588  0.00  0.00    -0.273 OA
BRANCH  12  14
ATOM     14  C   LIG    1        0.223   0.655  -1.818  0.00  0.00    +0.252 C 
BRANCH  14  15
ATOM     15  O   LIG    1       -1.164   0.948  -1.731  0.00  0.00    -0.386 OA
ATOM     16  H   LIG    1       -1.260   1.596  -1.007  0.00  0.00    +0.210 HD
ENDBRANCH  14  15
ENDBRANCH  12  14
ENDBRANCH   1  11
BRANCH   4  17
ATOM     17  C   LIG    1        2.912   2.642   3.959  0.00  0.00    +0.246 C 
ATOM     18  N   LIG    1        3.703   2.796   5.100  0.00  0.00    -0.309 N 
ATOM     19  H   LIG    1        4.442   2.150   5.333  0.00  0.00    +0.149 HD
ATOM     20  O   LIG    1        2.050   3.441   3.695  0.00  0.00    -0.270 OA
BRANCH  18  21
ATOM     21  C   LIG    1        3.550   3.958   5.992  0.00  0.00    +0.138 C 
BRANCH  21  22
ATOM     22  C   LIG    1        3.835   3.635   7.470  0.00  0.00    +0.157 C 
BRANCH  22  23
ATOM     23  O   LIG    1        5.199   3.208   7.615  0.00  0.00    -0.388 OA
ATOM     24  H   LIG    1        5.424   3.361   8.557  0.00  0.00    +0.210 HD
ENDBRANCH  22  23
BRANCH  22  25
ATOM     25  C   LIG    1        3.605   4.859   8.372  0.00  0.00    +0.188 C 
BRANCH  25  26
ATOM     26  O   LIG    1        3.916   4.517   9.727  0.00  0.00    -0.392 OA
ATOM     27  H   LIG    1        3.152   4.034  10.091  0.00  0.00    +0.209 HD
ENDBRANCH  25  26
ENDBRANCH  22  25
ENDBRANCH  21  22
ENDBRANCH  18  21
ENDBRANCH   4  17
BRANCH   7  28
ATOM     28  C   LIG    1        4.738  -2.045   3.380  0.00  0.00    +0.246 C 
ATOM     29  N   LIG    1        4.474  -3.313   2.872  0.00  0.00    -0.309 N 
ATOM     30  H   LIG    1        4.034  -3.329   1.973  0.00  0.00    +0.149 HD
ATOM     31  O   LIG    1        5.590  -1.821   4.241  0.00  0.00    -0.270 OA
BRANCH  29  32
ATOM     32  C   LIG    1        5.256  -4.505   3.197  0.00  0.00    +0.138 C 
BRANCH  32  33
ATOM     33  C   LIG    1        4.727  -5.704   2.386  0.00  0.00    +0.157 C 
BRANCH  33  34
ATOM     34  O   LIG    1        4.974  -5.527   0.978  0.00  0.00    -0.388 OA
ATOM     35  H   LIG    1        4.334  -4.878   0.642  0.00  0.00    +0.210 HD
ENDBRANCH  33  34
BRANCH  33  36
ATOM     36  C   LIG    1        5.418  -7.011   2.761  0.00  0.00    +0.188 C 
BRANCH  36  37
ATOM     37  O   LIG    1        4.875  -8.064   1.959  0.00  0.00    -0.392 OA
ATOM     38  H   LIG    1        4.927  -7.734   1.039  0.00  0.00    +0.209 HD
ENDBRANCH  36  37
ENDBRANCH  33  36
ENDBRANCH  32  33
ENDBRANCH  29  32
ENDBRANCH   7  28
TORSDOF 15
