REMARK  Name = *****
REMARK                            x       y       z     vdW  Elec       q    Type
REMARK                         _______ _______ _______ _____ _____    ______ ____
ROOT
ATOM      1  C   LIG    1        2.637   1.118  -0.756  0.00  0.00    -0.017 A 
ATOM      2  C   LIG    1        1.787   1.806  -1.639  0.00  0.00    +0.120 A 
ATOM      3  C   LIG    1        2.244   2.939  -2.342  0.00  0.00    +0.034 A 
ATOM      4  C   LIG    1        3.563   3.418  -2.224  0.00  0.00    -0.036 A 
ATOM      5  C   LIG    1        4.038   4.659  -3.021  0.00  0.00    -0.003 C 
ATOM      6  C   LIG    1        3.317   5.873  -2.369  0.00  0.00    +0.016 C 
ATOM      7  C   LIG    1        5.607   4.908  -2.945  0.00  0.00    +0.016 C 
ATOM      8  C   LIG    1        6.393   3.689  -2.425  0.00  0.00    +0.010 C 
ATOM      9  C   LIG    1        5.816   3.207  -1.108  0.00  0.00    +0.036 C 
ATOM     10  C   LIG    1        6.273   5.500  -4.247  0.00  0.00    +0.068 C 
ATOM     11  C   LIG    1        6.788   4.404  -5.219  0.00  0.00    +0.023 C 
ATOM     12  C   LIG    1        5.286   6.397  -5.015  0.00  0.00    +0.018 C 
ATOM     13  C   LIG    1        4.006   5.682  -5.423  0.00  0.00    +0.002 C 
ATOM     14  C   LIG    1        3.585   4.538  -4.501  0.00  0.00    +0.012 C 
ATOM     15  C   LIG    1        4.407   2.744  -1.331  0.00  0.00    -0.043 A 
ATOM     16  C   LIG    1        3.942   1.627  -0.611  0.00  0.00    +0.009 A 
ENDROOT
BRANCH   1  18
ATOM     17  C   LIG    1        2.400   0.055   1.542  0.00  0.00    +0.012 C 
ATOM     18  C   LIG    1        2.252  -0.132   0.026  0.00  0.00    +0.015 C 
ATOM     19  C   LIG    1        3.077  -1.339  -0.439  0.00  0.00    +0.012 C 
ENDBRANCH   1  18
BRANCH   2  20
ATOM     20  S   LIG    1        0.100   1.312  -1.942  0.00  0.00    +0.110 S 
ATOM     21  O   LIG    1       -0.376   1.997  -3.126  0.00  0.00    -0.142 OA
ATOM     22  O   LIG    1       -0.622   1.389  -0.690  0.00  0.00    -0.142 OA
BRANCH  20  23
ATOM     23  O   LIG    1        0.184  -0.235  -2.389  0.00  0.00    -0.250 OA
ATOM     24  H   LIG    1       -0.265  -0.309  -3.259  0.00  0.00    +0.245 HD
ENDBRANCH  20  23
ENDBRANCH   2  20
BRANCH  10  25
ATOM     25  C   LIG    1        7.497   6.358  -3.857  0.00  0.00    +0.311 C 
ATOM     26  O   LIG    1        8.645   6.128  -4.213  0.00  0.00    -0.250 OA
BRANCH  25  27
ATOM     27  O   LIG    1        7.224   7.420  -3.066  0.00  0.00    -0.480 OA
ATOM     28  H   LIG    1        6.290   7.540  -2.821  0.00  0.00    +0.295 HD
ENDBRANCH  25  27
ENDBRANCH  10  25
TORSDOF 5
