REMARK  Name = *****
REMARK                            x       y       z     vdW  Elec       q    Type
REMARK                         _______ _______ _______ _____ _____    ______ ____
ROOT
ATOM      1  C   LIG    1        3.162   0.439  -1.024  0.00  0.00    +0.036 A 
ATOM      2  C   LIG    1        3.760  -0.683  -1.639  0.00  0.00    +0.027 A 
ATOM      3  C   LIG    1        4.324  -0.626  -2.920  0.00  0.00    +0.048 A 
ATOM      4  C   LIG    1        4.327   0.573  -3.610  0.00  0.00    +0.132 A 
ATOM      5  C   LIG    1        3.764   1.704  -3.038  0.00  0.00    +0.048 A 
ATOM      6  C   LIG    1        3.198   1.635  -1.758  0.00  0.00    +0.027 A 
ENDROOT
BRANCH   1   8
ATOM      7  C   LIG    1        2.616  -1.016   0.908  0.00  0.00    +0.138 C 
ATOM      8  N   LIG    1        2.525   0.314   0.285  0.00  0.00    -0.272 N 
ATOM      9  C   LIG    1        1.866   1.402   0.921  0.00  0.00    +0.252 C 
ATOM     10  O   LIG    1        1.839   2.548   0.461  0.00  0.00    -0.272 OA
BRANCH   9  11
ATOM     11  C   LIG    1        1.163   1.136   2.262  0.00  0.00    +0.257 C 
ATOM     12 CL   LIG    1       -0.224   2.241   2.480  0.00  0.00    -0.095 Cl
ATOM     13 CL   LIG    1        2.342   1.375   3.571  0.00  0.00    -0.095 Cl
ENDBRANCH   9  11
ENDBRANCH   1   8
BRANCH   4  14
ATOM     14  O   LIG    1        4.796   0.724  -4.924  0.00  0.00    -0.420 OA
BRANCH  14  15
ATOM     15  C   LIG    1        5.823  -0.053  -5.458  0.00  0.00    +0.380 C 
ATOM     16  O   LIG    1        6.474  -0.900  -4.853  0.00  0.00    -0.241 OA
BRANCH  15  17
ATOM     17  C   LIG    1        6.005   0.295  -6.843  0.00  0.00    +0.212 A 
ATOM     18  O   LIG    1        5.263   1.303  -7.401  0.00  0.00    -0.456 OA
ATOM     19  C   LIG    1        5.647   1.421  -8.696  0.00  0.00    +0.196 A 
ATOM     20  C   LIG    1        6.622   0.501  -8.993  0.00  0.00    +0.042 A 
ATOM     21  C   LIG    1        6.853  -0.230  -7.804  0.00  0.00    +0.056 A 
ENDBRANCH  15  17
ENDBRANCH  14  15
ENDBRANCH   4  14
TORSDOF 5
