REMARK  Name = *****
REMARK                            x       y       z     vdW  Elec       q    Type
REMARK                         _______ _______ _______ _____ _____    ______ ____
ROOT
ATOM      1  C   LIG    1        2.191   0.184  -6.968  0.00  0.00    +0.317 C 
ATOM      2  O   LIG    1        2.995  -0.699  -7.222  0.00  0.00    -0.250 OA
ENDROOT
BRANCH   1   3
ATOM      3  O   LIG    1        0.829   0.045  -7.050  0.00  0.00    -0.461 OA
BRANCH   3   8
ATOM      4  C   LIG    1       -1.821  -3.316  -9.154  0.00  0.00    +0.105 C 
ATOM      5  N   LIG    1       -1.942  -1.868  -9.182  0.00  0.00    -0.299 NA
ATOM      6  C   LIG    1       -0.797  -1.143  -9.739  0.00  0.00    +0.060 C 
ATOM      7  C   LIG    1        0.502  -1.431  -8.972  0.00  0.00    +0.063 C 
ATOM      8  C   LIG    1        0.380  -1.273  -7.444  0.00  0.00    +0.179 C 
ATOM      9  C   LIG    1       -1.037  -1.500  -6.885  0.00  0.00    +0.063 C 
ATOM     10  C   LIG    1       -1.266   0.303  -9.548  0.00  0.00    +0.020 C 
ATOM     11  C   LIG    1       -2.174   0.256  -8.318  0.00  0.00    +0.020 C 
ATOM     12  C   LIG    1       -2.164  -1.214  -7.889  0.00  0.00    +0.060 C 
ENDBRANCH   3   8
ENDBRANCH   1   3
BRANCH   1  13
ATOM     13  C   LIG    1        2.575   1.581  -6.506  0.00  0.00    +0.153 C 
BRANCH  13  14
ATOM     14  C   LIG    1        2.723   1.699  -4.998  0.00  0.00    -0.032 A 
ATOM     15  C   LIG    1        3.187   0.639  -4.204  0.00  0.00    +0.004 A 
ATOM     16  C   LIG    1        3.337   0.794  -2.825  0.00  0.00    +0.000 A 
ATOM     17  C   LIG    1        3.043   2.015  -2.221  0.00  0.00    +0.000 A 
ATOM     18  C   LIG    1        2.601   3.083  -2.997  0.00  0.00    +0.000 A 
ATOM     19  C   LIG    1        2.442   2.927  -4.375  0.00  0.00    +0.004 A 
ENDBRANCH  13  14
BRANCH  13  20
ATOM     20  C   LIG    1        3.870   1.969  -7.239  0.00  0.00    +0.175 C 
BRANCH  20  21
ATOM     21  O   LIG    1        4.182   3.349  -7.041  0.00  0.00    -0.394 OA
ATOM     22  H   LIG    1        5.072   3.493  -7.408  0.00  0.00    +0.209 HD
ENDBRANCH  20  21
ENDBRANCH  13  20
ENDBRANCH   1  13
TORSDOF 6
