REMARK  Name = *****
REMARK                            x       y       z     vdW  Elec       q    Type
REMARK                         _______ _______ _______ _____ _____    ______ ____
ROOT
ATOM      1  C   LIG    1        3.015  -0.783  -1.073  0.00  0.00    +0.054 A 
ATOM      2  C   LIG    1        2.910  -2.159  -1.219  0.00  0.00    +0.123 A 
ATOM      3  N   LIG    1        3.454  -2.856  -2.249  0.00  0.00    -0.263 NA
ATOM      4  C   LIG    1        4.115  -2.139  -3.185  0.00  0.00    +0.111 A 
ATOM      5  C   LIG    1        4.255  -0.761  -3.141  0.00  0.00    +0.020 A 
ATOM      6  C   LIG    1        3.692  -0.073  -2.068  0.00  0.00    +0.016 A 
ENDROOT
BRANCH   1  10
ATOM      7  N   LIG    1        2.191  -0.741   1.224  0.00  0.00    -0.325 N 
ATOM      8  H   LIG    1        2.594  -1.645   1.425  0.00  0.00    +0.145 HD
ATOM      9  H   LIG    1        1.880  -0.187   2.014  0.00  0.00    +0.145 HD
ATOM     10  C   LIG    1        2.421  -0.051   0.066  0.00  0.00    +0.243 C 
ATOM     11  O   LIG    1        2.179   1.148  -0.005  0.00  0.00    -0.270 OA
ENDBRANCH   1  10
TORSDOF 1
