REMARK  Name = *****
REMARK                            x       y       z     vdW  Elec       q    Type
REMARK                         _______ _______ _______ _____ _____    ______ ____
ROOT
ATOM      1  C   LIG    1        5.313  -0.892  -5.908  0.00  0.00    +0.328 C 
ATOM      2  N   LIG    1        5.875  -2.227  -5.825  0.00  0.00    -0.208 N 
ATOM      3  C   LIG    1        7.255  -2.224  -5.721  0.00  0.00    +0.275 C 
ATOM      4  O   LIG    1        8.017  -3.181  -5.720  0.00  0.00    -0.268 OA
ATOM      5  C   LIG    1        7.667  -0.815  -5.660  0.00  0.00    +0.152 A 
ATOM      6  N   LIG    1        8.929  -0.353  -5.549  0.00  0.00    -0.247 NA
ATOM      7  C   LIG    1        8.996   1.001  -5.502  0.00  0.00    +0.131 A 
ATOM      8  C   LIG    1        7.865   1.820  -5.551  0.00  0.00    +0.131 A 
ATOM      9  N   LIG    1        6.600   1.332  -5.671  0.00  0.00    -0.251 NA
ATOM     10  C   LIG    1        6.539  -0.019  -5.735  0.00  0.00    +0.131 A 
ENDROOT
BRANCH   2  11
ATOM     11  C   LIG    1        5.103  -3.368  -6.049  0.00  0.00    +0.131 A 
ATOM     12  N   LIG    1        4.255  -3.371  -7.099  0.00  0.00    -0.238 NA
ATOM     13  C   LIG    1        3.549  -4.513  -7.320  0.00  0.00    +0.133 A 
ATOM     14  C   LIG    1        3.582  -5.620  -6.487  0.00  0.00    +0.059 A 
ATOM     15 CL   LIG    1        2.629  -7.009  -6.813  0.00  0.00    -0.082 Cl
ATOM     16  C   LIG    1        4.405  -5.571  -5.372  0.00  0.00    +0.025 A 
ATOM     17  C   LIG    1        5.198  -4.441  -5.164  0.00  0.00    +0.045 A 
ENDBRANCH   2  11
BRANCH   1  18
ATOM     18  O   LIG    1        4.460  -0.719  -4.779  0.00  0.00    -0.422 OA
BRANCH  18  24
ATOM     19  C   LIG    1       -0.168  -1.979  -1.863  0.00  0.00    +0.105 C 
ATOM     20  N   LIG    1        0.589  -2.337  -3.061  0.00  0.00    -0.302 NA
ATOM     21  C   LIG    1        0.291  -1.417  -4.188  0.00  0.00    +0.103 C 
ATOM     22  C   LIG    1        0.979  -0.038  -4.084  0.00  0.00    +0.126 C 
ATOM     23  N   LIG    1        2.417  -0.224  -3.909  0.00  0.00    -0.265 N 
ATOM     24  C   LIG    1        3.219  -0.248  -5.040  0.00  0.00    +0.405 C 
ATOM     25  O   LIG    1        2.839   0.098  -6.155  0.00  0.00    -0.226 OA
ATOM     26  C   LIG    1        2.748  -1.011  -2.722  0.00  0.00    +0.126 C 
ATOM     27  C   LIG    1        2.047  -2.386  -2.793  0.00  0.00    +0.103 C 
ENDBRANCH  18  24
ENDBRANCH   1  18
TORSDOF 3
