REMARK  Name = *****
REMARK                            x       y       z     vdW  Elec       q    Type
REMARK                         _______ _______ _______ _____ _____    ______ ____
ROOT
ATOM      1  C   LIG    1        4.919   1.736   1.651  0.00  0.00    +0.127 C 
ATOM      2  C   LIG    1        4.053   2.980   1.464  0.00  0.00    +0.234 C 
ATOM      3  O   LIG    1        2.825   2.978   1.505  0.00  0.00    -0.274 OA
ATOM      4  N   LIG    1        4.724   4.160   1.355  0.00  0.00    -0.266 N 
ATOM      5  H   LIG    1        4.181   5.014   1.358  0.00  0.00    +0.157 HD
ATOM      6  C   LIG    1        6.059   4.219   1.183  0.00  0.00    +0.150 C 
ATOM      7  N   LIG    1        6.831   3.209   1.007  0.00  0.00    -0.158 NA
ATOM      8  C   LIG    1        6.255   1.965   0.924  0.00  0.00    +0.254 C 
ATOM      9  O   LIG    1        6.836   1.046   0.344  0.00  0.00    -0.273 OA
ENDROOT
BRANCH   1  10
ATOM     10  C   LIG    1        5.222   1.556   3.205  0.00  0.00    +0.010 C 
ATOM     11  C   LIG    1        6.129   0.347   3.511  0.00  0.00    +0.009 C 
BRANCH  10  12
ATOM     12  C   LIG    1        3.933   1.459   4.075  0.00  0.00    +0.004 C 
BRANCH  12  14
ATOM     13  C   LIG    1        2.915   1.400   6.396  0.00  0.00    +0.004 C 
ATOM     14  C   LIG    1        4.201   1.478   5.586  0.00  0.00    -0.003 C 
ENDBRANCH  12  14
ENDBRANCH  10  12
ENDBRANCH   1  10
BRANCH   1  15
ATOM     15  C   LIG    1        4.184   0.500   1.064  0.00  0.00    +0.022 C 
ATOM     16  C   LIG    1        3.791   0.602  -0.411  0.00  0.00    +0.005 C 
ENDBRANCH   1  15
BRANCH   6  17
ATOM     17  S   LIG    1        6.692   5.826   1.234  0.00  0.00    -0.110 S 
ATOM     18  H   LIG    1        7.980   5.454   1.175  0.00  0.00    +0.110 HD
ENDBRANCH   6  17
TORSDOF 5
