REMARK  Name = *****
REMARK                            x       y       z     vdW  Elec       q    Type
REMARK                         _______ _______ _______ _____ _____    ______ ____
ROOT
ATOM      1  C   LIG    1        3.148  -0.929  -1.571  0.00  0.00    +0.103 C 
ATOM      2  C   LIG    1        2.622  -2.036  -2.412  0.00  0.00    +0.236 C 
ATOM      3  O   LIG    1        1.504  -2.504  -2.202  0.00  0.00    -0.283 OA
ATOM      4  C   LIG    1        3.510  -2.581  -3.502  0.00  0.00    +0.194 C 
ATOM      5  C   LIG    1        4.657  -1.911  -3.769  0.00  0.00    +0.150 C 
ATOM      6  C   LIG    1        5.575  -2.485  -4.839  0.00  0.00    +0.269 C 
ATOM      7  N   LIG    1        6.682  -1.722  -5.186  0.00  0.00    -0.266 N 
ATOM      8  C   LIG    1        6.668  -0.297  -4.880  0.00  0.00    +0.229 C 
ATOM      9  C   LIG    1        6.299  -0.064  -3.408  0.00  0.00    +0.173 C 
ATOM     10  O   LIG    1        7.927   0.331  -5.148  0.00  0.00    -0.354 OA
ATOM     11  C   LIG    1        8.641  -0.154  -6.289  0.00  0.00    +0.122 C 
ATOM     12  C   LIG    1        8.948  -1.619  -6.048  0.00  0.00    +0.054 C 
ATOM     13  C   LIG    1        7.792  -0.147  -7.567  0.00  0.00    +0.033 C 
ATOM     14  C   LIG    1        7.132  -1.534  -7.597  0.00  0.00    +0.025 C 
ATOM     15  C   LIG    1        7.553  -2.177  -6.269  0.00  0.00    +0.081 C 
ATOM     16  O   LIG    1        5.335  -3.583  -5.341  0.00  0.00    -0.268 OA
ATOM     17  N   LIG    1        5.031  -0.742  -3.084  0.00  0.00    -0.335 NA
ATOM     18  C   LIG    1        4.293  -0.355  -1.975  0.00  0.00    +0.103 C 
ENDROOT
BRANCH   1  20
ATOM     19  O   LIG    1        3.007   0.504   0.312  0.00  0.00    -0.270 OA
ATOM     20  C   LIG    1        2.513  -0.431  -0.320  0.00  0.00    +0.250 C 
ATOM     21  N   LIG    1        1.373  -1.078   0.075  0.00  0.00    -0.307 N 
ATOM     22  H   LIG    1        0.989  -1.807  -0.529  0.00  0.00    +0.149 HD
BRANCH  21  23
ATOM     23  C   LIG    1        0.630  -0.702   1.258  0.00  0.00    +0.145 C 
BRANCH  23  24
ATOM     24  C   LIG    1        0.575  -1.813   2.263  0.00  0.00    +0.040 A 
ATOM     25  C   LIG    1       -0.436  -2.777   2.244  0.00  0.00    +0.134 A 
ATOM     26  F   LIG    1       -1.401  -2.716   1.315  0.00  0.00    -0.205 F 
ATOM     27  C   LIG    1       -0.474  -3.813   3.175  0.00  0.00    +0.077 A 
ATOM     28  C   LIG    1        0.521  -3.889   4.140  0.00  0.00    +0.129 A 
ATOM     29  F   LIG    1        0.499  -4.884   5.036  0.00  0.00    -0.205 F 
ATOM     30  C   LIG    1        1.542  -2.951   4.188  0.00  0.00    +0.077 A 
ATOM     31  C   LIG    1        1.560  -1.926   3.248  0.00  0.00    +0.134 A 
ATOM     32  F   LIG    1        2.552  -1.027   3.306  0.00  0.00    -0.205 F 
ENDBRANCH  23  24
ENDBRANCH  21  23
ENDBRANCH   1  20
BRANCH   4  33
ATOM     33  O   LIG    1        3.087  -3.735  -4.143  0.00  0.00    -0.502 OA
ATOM     34  H   LIG    1        3.791  -4.023  -4.764  0.00  0.00    +0.292 HD
ENDBRANCH   4  33
TORSDOF 4
