REMARK  Name = *****
REMARK                            x       y       z     vdW  Elec       q    Type
REMARK                         _______ _______ _______ _____ _____    ______ ____
ROOT
ATOM      1  C   LIG    1        2.348  -0.131   0.283  0.00  0.00    +0.030 A 
ATOM      2  C   LIG    1        3.067  -1.280  -0.004  0.00  0.00    +0.003 A 
ATOM      3  C   LIG    1        2.637  -2.708   0.003  0.00  0.00    +0.146 C 
ATOM      4  N   LIG    1        3.823  -3.412  -0.461  0.00  0.00    -0.281 N 
ATOM      5  C   LIG    1        4.910  -2.564  -0.590  0.00  0.00    +0.248 C 
ATOM      6  O   LIG    1        6.066  -2.851  -0.834  0.00  0.00    -0.270 OA
ATOM      7  C   LIG    1        4.416  -1.203  -0.358  0.00  0.00    +0.043 A 
ATOM      8  C   LIG    1        5.098  -0.009  -0.476  0.00  0.00    +0.013 A 
ATOM      9  C   LIG    1        4.372   1.158  -0.255  0.00  0.00    +0.003 A 
ATOM     10  C   LIG    1        3.008   1.094   0.095  0.00  0.00    +0.023 A 
ENDROOT
BRANCH   4  11
ATOM     11  C   LIG    1        3.902  -4.867  -0.453  0.00  0.00    +0.163 C 
ATOM     12  C   LIG    1        4.503  -5.378   0.866  0.00  0.00    +0.240 C 
ATOM     13  O   LIG    1        4.308  -4.834   1.953  0.00  0.00    -0.273 OA
ATOM     14  N   LIG    1        5.168  -6.580   0.801  0.00  0.00    -0.255 N 
ATOM     15  H   LIG    1        5.533  -6.930   1.677  0.00  0.00    +0.158 HD
ATOM     16  C   LIG    1        5.254  -7.437  -0.268  0.00  0.00    +0.219 C 
ATOM     17  O   LIG    1        5.713  -8.568  -0.136  0.00  0.00    -0.275 OA
ATOM     18  C   LIG    1        4.649  -6.961  -1.568  0.00  0.00    +0.098 C 
ATOM     19  C   LIG    1        4.652  -5.444  -1.653  0.00  0.00    +0.041 C 
ENDBRANCH   4  11
BRANCH   1  20
ATOM     20  N   LIG    1        0.971  -0.158   0.515  0.00  0.00    -0.358 N 
ATOM     21  H   LIG    1        0.640  -0.995   0.984  0.00  0.00    +0.142 HD
ATOM     22  H   LIG    1        0.619   0.682   0.966  0.00  0.00    +0.142 HD
ENDBRANCH   1  20
TORSDOF 2
