REMARK  Name = *****
REMARK                            x       y       z     vdW  Elec       q    Type
REMARK                         _______ _______ _______ _____ _____    ______ ____
ROOT
ATOM      1  C   LIG    1        8.234   4.247   4.669  0.00  0.00    +0.051 C 
ATOM      2  C   LIG    1        8.196   5.596   3.916  0.00  0.00    +0.065 C 
ATOM      3  C   LIG    1        7.921   6.560   5.056  0.00  0.00    +0.140 C 
ATOM      4  O   LIG    1        8.059   7.775   4.975  0.00  0.00    -0.297 OA
ATOM      5  C   LIG    1        7.469   5.885   6.319  0.00  0.00    +0.106 C 
ATOM      6  C   LIG    1        7.293   4.441   5.875  0.00  0.00    +0.129 C 
ENDROOT
BRANCH   1   8
ATOM      7  C   LIG    1       10.046   2.626   5.285  0.00  0.00    +0.001 C 
ATOM      8  C   LIG    1        9.639   3.899   5.137  0.00  0.00    -0.022 C 
BRANCH   7   9
ATOM      9  C   LIG    1       11.403   2.149   5.764  0.00  0.00    +0.143 C 
BRANCH   9  10
ATOM     10  C   LIG    1       11.404   0.756   6.502  0.00  0.00    -0.005 C 
ATOM     11  C   LIG    1       10.517   0.819   7.763  0.00  0.00    +0.014 C 
ATOM     12  C   LIG    1       10.849  -0.338   5.559  0.00  0.00    +0.014 C 
BRANCH  10  13
ATOM     13  C   LIG    1       12.874   0.394   6.911  0.00  0.00    +0.009 C 
BRANCH  13  14
ATOM     14  C   LIG    1       13.045  -0.952   7.637  0.00  0.00    +0.000 C 
BRANCH  14  16
ATOM     15  C   LIG    1       14.636  -2.582   8.700  0.00  0.00    +0.004 C 
ATOM     16  C   LIG    1       14.506  -1.246   7.981  0.00  0.00    -0.003 C 
ENDBRANCH  14  16
ENDBRANCH  13  14
ENDBRANCH  10  13
ENDBRANCH   9  10
BRANCH   9  17
ATOM     17  O   LIG    1       11.969   3.154   6.606  0.00  0.00    -0.387 OA
ATOM     18  H   LIG    1       11.286   3.407   7.250  0.00  0.00    +0.210 HD
ENDBRANCH   9  17
ENDBRANCH   7   9
ENDBRANCH   1   8
BRANCH   6  19
ATOM     19  O   LIG    1        5.946   4.148   5.507  0.00  0.00    -0.391 OA
ATOM     20  H   LIG    1        5.478   4.963   5.257  0.00  0.00    +0.210 HD
ENDBRANCH   6  19
BRANCH   2  21
ATOM     21  C   LIG    1        7.100   5.674   2.843  0.00  0.00    +0.011 C 
BRANCH  21  22
ATOM     22  C   LIG    1        7.025   7.066   2.197  0.00  0.00    +0.001 C 
BRANCH  22  23
ATOM     23  C   LIG    1        5.941   7.127   1.132  0.00  0.00    +0.004 C 
BRANCH  23  24
ATOM     24  C   LIG    1        5.814   8.518   0.497  0.00  0.00    +0.027 C 
BRANCH  24  25
ATOM     25  C   LIG    1        4.742   8.600  -0.562  0.00  0.00    -0.020 C 
ATOM     26  C   LIG    1        3.958   7.592  -0.947  0.00  0.00    +0.087 C 
BRANCH  26  27
ATOM     27  C   LIG    1        2.932   7.738  -1.996  0.00  0.00    +0.331 C 
ATOM     28  O   LIG    1        2.693   8.774  -2.589  0.00  0.00    -0.246 OA
BRANCH  27  29
ATOM     29  O   LIG    1        2.330   6.547  -2.175  0.00  0.00    -0.465 OA
ATOM     30  C   LIG    1        1.330   6.555  -3.191  0.00  0.00    +0.280 C 
ENDBRANCH  27  29
ENDBRANCH  26  27
ENDBRANCH  24  25
ENDBRANCH  23  24
ENDBRANCH  22  23
ENDBRANCH  21  22
ENDBRANCH   2  21
TORSDOF 15
