REMARK  Name = *****
REMARK                            x       y       z     vdW  Elec       q    Type
REMARK                         _______ _______ _______ _____ _____    ______ ____
ROOT
ATOM      1  C   LIG    1        3.957  -0.986  -8.081  0.00  0.00    +0.044 C 
ATOM      2  C   LIG    1        3.982  -0.528  -6.649  0.00  0.00    -0.045 A 
ATOM      3  C   LIG    1        3.774   0.817  -6.310  0.00  0.00    -0.045 A 
ATOM      4  C   LIG    1        3.524   1.868  -7.359  0.00  0.00    +0.044 C 
ATOM      5  C   LIG    1        3.773   1.196  -4.956  0.00  0.00    +0.031 A 
ATOM      6  C   LIG    1        4.004   0.282  -3.916  0.00  0.00    +0.069 A 
ATOM      7  C   LIG    1        4.225  -1.069  -4.275  0.00  0.00    +0.089 A 
ATOM      8  N   LIG    1        4.461  -2.084  -3.327  0.00  0.00    -0.237 NA
ATOM      9  C   LIG    1        4.393  -1.773  -2.069  0.00  0.00    +0.171 A 
ATOM     10  C   LIG    1        4.045  -0.378  -1.601  0.00  0.00    +0.171 A 
ATOM     11  N   LIG    1        3.764  -0.204  -0.345  0.00  0.00    -0.173 NA
ATOM     12  C   LIG    1        3.703  -1.262   0.519  0.00  0.00    +0.350 C 
ATOM     13  O   LIG    1        2.976  -1.259   1.499  0.00  0.00    -0.245 OA
ATOM     14  N   LIG    1        4.456  -2.370   0.257  0.00  0.00    -0.272 N 
ATOM     15  H   LIG    1        4.355  -3.102   0.945  0.00  0.00    +0.173 HD
ATOM     16  C   LIG    1        4.624  -2.826  -1.014  0.00  0.00    +0.282 C 
ATOM     17  O   LIG    1        4.845  -3.997  -1.283  0.00  0.00    -0.265 OA
ATOM     18  N   LIG    1        3.994   0.642  -2.548  0.00  0.00    -0.320 N 
ATOM     19  C   LIG    1        4.198  -1.457  -5.622  0.00  0.00    +0.033 A 
ENDROOT
BRANCH  18  20
ATOM     20  C   LIG    1        3.610   2.001  -2.135  0.00  0.00    +0.158 C 
BRANCH  20  21
ATOM     21  C   LIG    1        4.688   3.095  -2.327  0.00  0.00    +0.165 C 
BRANCH  21  22
ATOM     22  O   LIG    1        4.112   4.363  -1.946  0.00  0.00    -0.387 OA
ATOM     23  H   LIG    1        4.061   4.397  -0.973  0.00  0.00    +0.210 HD
ENDBRANCH  21  22
BRANCH  21  24
ATOM     24  C   LIG    1        5.980   2.854  -1.510  0.00  0.00    +0.175 C 
BRANCH  24  25
ATOM     25  O   LIG    1        6.585   1.604  -1.850  0.00  0.00    -0.387 OA
ATOM     26  H   LIG    1        7.042   1.754  -2.704  0.00  0.00    +0.210 HD
ENDBRANCH  24  25
BRANCH  24  27
ATOM     27  C   LIG    1        7.019   3.978  -1.724  0.00  0.00    +0.172 C 
BRANCH  27  28
ATOM     28  O   LIG    1        7.420   3.972  -3.107  0.00  0.00    -0.387 OA
ATOM     29  H   LIG    1        8.063   4.704  -3.192  0.00  0.00    +0.210 HD
ENDBRANCH  27  28
BRANCH  27  30
ATOM     30  C   LIG    1        8.274   3.765  -0.868  0.00  0.00    +0.206 C 
BRANCH  30  31
ATOM     31  O   LIG    1        9.169   4.851  -1.098  0.00  0.00    -0.284 OA
BRANCH  31  32
ATOM     32  P   LIG    1       10.567   4.846  -0.320  0.00  0.00    +0.472 P 
ATOM     33  O   LIG    1       11.482   5.979  -0.632  0.00  0.00    -0.228 OA
BRANCH  32  34
ATOM     34  O   LIG    1       11.255   3.436  -0.597  0.00  0.00    -0.303 OA
ATOM     35  H   LIG    1       12.215   3.544  -0.728  0.00  0.00    +0.222 HD
ENDBRANCH  32  34
BRANCH  32  36
ATOM     36  O   LIG    1       10.213   4.791   1.233  0.00  0.00    -0.303 OA
ATOM     37  H   LIG    1       10.396   5.652   1.652  0.00  0.00    +0.222 HD
ENDBRANCH  32  36
ENDBRANCH  31  32
ENDBRANCH  30  31
ENDBRANCH  27  30
ENDBRANCH  24  27
ENDBRANCH  21  24
ENDBRANCH  20  21
ENDBRANCH  18  20
TORSDOF 12
