REMARK  Name = *****
REMARK                            x       y       z     vdW  Elec       q    Type
REMARK                         _______ _______ _______ _____ _____    ______ ____
ROOT
ATOM      1  C   LIG    1        4.990  -0.846   3.963  0.00  0.00    +0.037 A 
ATOM      2  C   LIG    1        4.088  -1.639   4.665  0.00  0.00    +0.015 A 
ATOM      3  C   LIG    1        4.540  -2.612   5.563  0.00  0.00    +0.024 A 
ATOM      4  C   LIG    1        5.894  -2.717   5.905  0.00  0.00    +0.034 A 
ATOM      5  C   LIG    1        6.788  -1.820   5.333  0.00  0.00    +0.024 A 
ATOM      6  C   LIG    1        6.340  -0.898   4.362  0.00  0.00    +0.015 A 
ENDROOT
BRANCH   1  17
ATOM      7  C   LIG    1       -2.324   2.219   1.883  0.00  0.00    +0.086 C 
ATOM      8  C   LIG    1       -1.054   1.494   1.646  0.00  0.00    +0.105 A 
ATOM      9  N   LIG    1       -0.671   0.401   2.392  0.00  0.00    -0.342 N 
ATOM     10  H   LIG    1       -1.192   0.006   3.161  0.00  0.00    +0.167 HD
ATOM     11  C   LIG    1        0.521  -0.057   1.891  0.00  0.00    +0.071 A 
ATOM     12  C   LIG    1        1.263  -1.268   2.229  0.00  0.00    +0.021 A 
ATOM     13  C   LIG    1        2.664  -1.356   1.998  0.00  0.00    +0.046 A 
ATOM     14  N   LIG    1        3.493  -0.187   1.953  0.00  0.00    -0.267 N 
ATOM     15  C   LIG    1        3.279   0.826   0.895  0.00  0.00    +0.120 C 
ATOM     16  C   LIG    1        2.024   0.739   0.021  0.00  0.00    +0.077 C 
ATOM     17  C   LIG    1        4.599   0.061   2.821  0.00  0.00    +0.251 C 
ATOM     18  O   LIG    1        5.308   1.062   2.667  0.00  0.00    -0.270 OA
ATOM     19  C   LIG    1        3.273  -2.619   1.975  0.00  0.00    +0.024 A 
ATOM     20  C   LIG    1        2.562  -3.752   2.370  0.00  0.00    +0.002 A 
ATOM     21  C   LIG    1        1.232  -3.637   2.768  0.00  0.00    +0.001 A 
ATOM     22  C   LIG    1        0.573  -2.411   2.659  0.00  0.00    +0.012 A 
ATOM     23  C   LIG    1        0.815   0.822   0.870  0.00  0.00    +0.069 A 
ATOM     24  N   LIG    1       -0.156   1.772   0.723  0.00  0.00    -0.237 NA
ENDBRANCH   1  17
BRANCH   4  25
ATOM     25  N   LIG    1        6.208  -3.732   6.830  0.00  0.00    -0.281 N 
ATOM     26  H   LIG    1        5.414  -4.271   7.133  0.00  0.00    +0.155 HD
ATOM     27  C   LIG    1        7.445  -4.081   7.376  0.00  0.00    +0.249 C 
ATOM     28  O   LIG    1        8.492  -3.526   7.148  0.00  0.00    -0.270 OA
BRANCH  27  29
ATOM     29  C   LIG    1        7.378  -5.289   8.300  0.00  0.00    +0.045 A 
ATOM     30  C   LIG    1        8.182  -5.471   9.461  0.00  0.00    -0.006 A 
ATOM     31  C   LIG    1        8.012  -6.713  10.142  0.00  0.00    +0.009 A 
ATOM     32  C   LIG    1        7.139  -7.719   9.719  0.00  0.00    +0.001 A 
ATOM     33  C   LIG    1        6.357  -7.514   8.602  0.00  0.00    +0.001 A 
ATOM     34  C   LIG    1        6.483  -6.320   7.899  0.00  0.00    +0.013 A 
BRANCH  30  35
ATOM     35  C   LIG    1        9.164  -4.500  10.055  0.00  0.00    -0.017 A 
ATOM     36  C   LIG    1       10.285  -4.963  10.790  0.00  0.00    +0.008 A 
ATOM     37  C   LIG    1       11.187  -4.100  11.423  0.00  0.00    +0.001 A 
ATOM     38  C   LIG    1       11.033  -2.729  11.296  0.00  0.00    +0.000 A 
ATOM     39  C   LIG    1        9.958  -2.232  10.568  0.00  0.00    +0.001 A 
ATOM     40  C   LIG    1        9.021  -3.104   9.988  0.00  0.00    +0.008 A 
ENDBRANCH  30  35
ENDBRANCH  27  29
ENDBRANCH   4  25
TORSDOF 4
