REMARK  Name = *****
REMARK                            x       y       z     vdW  Elec       q    Type
REMARK                         _______ _______ _______ _____ _____    ______ ____
ROOT
ATOM      1  C   LIG    1        2.808  -6.096  -1.911  0.00  0.00    +0.166 C 
ENDROOT
BRANCH   1   2
ATOM      2  O   LIG    1        3.014  -5.188  -3.003  0.00  0.00    -0.387 OA
ATOM      3  H   LIG    1        3.947  -5.303  -3.272  0.00  0.00    +0.210 HD
ENDBRANCH   1   2
BRANCH   1   4
ATOM      4  C   LIG    1        3.333  -5.469  -0.614  0.00  0.00    +0.115 C 
BRANCH   4   5
ATOM      5  N   LIG    1        3.089  -6.344   0.537  0.00  0.00    -0.310 NA
ATOM      6  H   LIG    1        2.088  -6.531   0.608  0.00  0.00    +0.122 HD
BRANCH   5   7
ATOM      7  C   LIG    1        3.531  -5.739   1.800  0.00  0.00    +0.122 C 
BRANCH   7   8
ATOM      8  C   LIG    1        5.044  -5.509   1.943  0.00  0.00    +0.244 C 
BRANCH   8   9
ATOM      9  O   LIG    1        5.423  -4.267   1.343  0.00  0.00    -0.487 OA
BRANCH   9  11
ATOM     10  C   LIG    1        7.640  -4.269   2.498  0.00  0.00    +0.162 A 
ATOM     11  C   LIG    1        6.562  -3.663   1.821  0.00  0.00    +0.162 A 
ATOM     12  C   LIG    1        6.590  -2.282   1.569  0.00  0.00    +0.049 A 
ATOM     13  C   LIG    1        7.635  -1.490   2.041  0.00  0.00    +0.004 A 
ATOM     14  C   LIG    1        8.670  -2.077   2.759  0.00  0.00    +0.004 A 
ATOM     15  C   LIG    1        8.674  -3.456   2.981  0.00  0.00    +0.049 A 
BRANCH  10  17
ATOM     16  C   LIG    1        8.797  -6.354   2.844  0.00  0.00    +0.277 C 
ATOM     17  O   LIG    1        7.590  -5.613   2.739  0.00  0.00    -0.491 OA
ENDBRANCH  10  17
ENDBRANCH   9  11
ENDBRANCH   8   9
ENDBRANCH   7   8
ENDBRANCH   5   7
ENDBRANCH   4   5
ENDBRANCH   1   4
BRANCH   1  18
ATOM     18  C   LIG    1        3.436  -7.452  -2.259  0.00  0.00    +0.261 C 
BRANCH  18  19
ATOM     19  O   LIG    1        4.852  -7.343  -2.495  0.00  0.00    -0.489 OA
BRANCH  19  20
ATOM     20  C   LIG    1        5.427  -8.348  -3.253  0.00  0.00    +0.130 C 
ATOM     21  C   LIG    1        6.835  -8.329  -3.502  0.00  0.00    +0.049 C 
ATOM     22  C   LIG    1        7.357  -9.272  -4.394  0.00  0.00    +0.051 C 
ATOM     23  N   LIG    1        8.697  -9.023  -4.531  0.00  0.00    -0.354 NA
ATOM     24  H   LIG    1        9.318  -9.551  -5.131  0.00  0.00    +0.166 HD
ATOM     25  C   LIG    1        9.097  -7.998  -3.724  0.00  0.00    +0.048 C 
ATOM     26  C   LIG    1       10.380  -7.455  -3.553  0.00  0.00    +0.026 C 
ATOM     27  C   LIG    1       10.526  -6.429  -2.624  0.00  0.00    +0.002 C 
ATOM     28  C   LIG    1        9.434  -5.970  -1.895  0.00  0.00    +0.001 C 
ATOM     29  C   LIG    1        8.150  -6.513  -2.093  0.00  0.00    +0.010 C 
ATOM     30  C   LIG    1        6.593 -10.264  -5.013  0.00  0.00    +0.026 C 
ATOM     31  C   LIG    1        5.241 -10.318  -4.712  0.00  0.00    +0.006 C 
ATOM     32  C   LIG    1        7.964  -7.547  -3.039  0.00  0.00    +0.011 C 
ATOM     33  C   LIG    1        4.674  -9.386  -3.848  0.00  0.00    +0.046 C 
ENDBRANCH  19  20
ENDBRANCH  18  19
ENDBRANCH   1  18
TORSDOF 11
