REMARK  Name = *****
REMARK                            x       y       z     vdW  Elec       q    Type
REMARK                         _______ _______ _______ _____ _____    ______ ____
ROOT
ATOM      1  C   LIG    1        4.387   0.927   0.148  0.00  0.00    +0.135 A 
ATOM      2  C   LIG    1        5.139  -0.116   0.699  0.00  0.00    -0.005 A 
ATOM      3  C   LIG    1        4.541  -1.294   1.419  0.00  0.00    +0.048 C 
ATOM      4  C   LIG    1        6.541  -0.066   0.554  0.00  0.00    +0.052 A 
ATOM      5  C   LIG    1        7.187   0.963  -0.156  0.00  0.00    +0.124 A 
ATOM      6  C   LIG    1        6.425   2.019  -0.682  0.00  0.00    +0.000 A 
ATOM      7  C   LIG    1        5.032   1.958  -0.548  0.00  0.00    +0.054 A 
ENDROOT
BRANCH   6   8
ATOM      8  C   LIG    1        7.043   3.197  -1.424  0.00  0.00    +0.017 C 
ATOM      9  C   LIG    1        6.336   4.540  -1.159  0.00  0.00    +0.012 C 
ATOM     10  C   LIG    1        7.080   2.923  -2.929  0.00  0.00    +0.012 C 
ENDBRANCH   6   8
BRANCH   1  11
ATOM     11  O   LIG    1        2.972   0.892   0.151  0.00  0.00    -0.426 OA
BRANCH  11  13
ATOM     12  C   LIG    1        0.951   1.915  -0.579  0.00  0.00    +0.136 C 
ATOM     13  C   LIG    1        2.279   2.104   0.086  0.00  0.00    +0.309 C 
ATOM     14  O   LIG    1        2.675   3.205   0.492  0.00  0.00    -0.251 OA
ENDBRANCH  11  13
ENDBRANCH   1  11
BRANCH   5  15
ATOM     15  O   LIG    1        8.553   1.009  -0.339  0.00  0.00    -0.490 OA
BRANCH  15  16
ATOM     16  C   LIG    1        9.209  -0.268  -0.411  0.00  0.00    +0.244 C 
BRANCH  16  17
ATOM     17  C   LIG    1       10.719  -0.087  -0.694  0.00  0.00    +0.124 C 
BRANCH  17  18
ATOM     18  N   LIG    1       11.437  -1.359  -0.943  0.00  0.00    -0.305 NA
ATOM     19  C   LIG    1       12.883  -1.134  -1.058  0.00  0.00    +0.104 C 
ATOM     20  C   LIG    1       10.956  -2.010  -2.165  0.00  0.00    +0.104 C 
ENDBRANCH  17  18
ENDBRANCH  16  17
ENDBRANCH  15  16
ENDBRANCH   5  15
TORSDOF 7
