REMARK  Name = *****
REMARK                            x       y       z     vdW  Elec       q    Type
REMARK                         _______ _______ _______ _____ _____    ______ ____
ROOT
ATOM      1  C   LIG    1        7.770  -3.229  -3.506  0.00  0.00    +0.121 A 
ATOM      2  C   LIG    1        8.882  -2.683  -2.845  0.00  0.00    +0.046 A 
ATOM      3  C   LIG    1        9.805  -1.892  -3.548  0.00  0.00    +0.007 A 
ATOM      4  C   LIG    1        9.633  -1.548  -4.881  0.00  0.00    -0.045 A 
ATOM      5  C   LIG    1        8.390  -1.874  -5.464  0.00  0.00    +0.007 A 
ATOM      6  C   LIG    1        7.496  -2.726  -4.773  0.00  0.00    +0.046 A 
ENDROOT
BRANCH   1   7
ATOM      7  O   LIG    1        6.869  -4.050  -2.894  0.00  0.00    -0.489 OA
BRANCH   7   8
ATOM      8  C   LIG    1        7.256  -5.285  -2.221  0.00  0.00    +0.261 C 
BRANCH   8   9
ATOM      9  C   LIG    1        8.197  -5.217  -0.990  0.00  0.00    +0.166 C 
BRANCH   9  10
ATOM     10  O   LIG    1        7.627  -4.396   0.049  0.00  0.00    -0.387 OA
ATOM     11  H   LIG    1        6.744  -4.739   0.270  0.00  0.00    +0.210 HD
ENDBRANCH   9  10
BRANCH   9  12
ATOM     12  C   LIG    1        8.582  -6.621  -0.397  0.00  0.00    +0.115 C 
BRANCH  12  13
ATOM     13  N   LIG    1        9.416  -6.427   0.803  0.00  0.00    -0.311 NA
ATOM     14  H   LIG    1        9.065  -5.589   1.279  0.00  0.00    +0.122 HD
BRANCH  13  16
ATOM     15  C   LIG    1       10.469  -8.652   1.322  0.00  0.00    +0.024 C 
ATOM     16  C   LIG    1        9.512  -7.537   1.762  0.00  0.00    +0.048 C 
ATOM     17  C   LIG    1        9.957  -6.936   3.112  0.00  0.00    +0.024 C 
ENDBRANCH  13  16
ENDBRANCH  12  13
ENDBRANCH   9  12
ENDBRANCH   8   9
ENDBRANCH   7   8
ENDBRANCH   1   7
BRANCH   4  18
ATOM     18  C   LIG    1       10.741  -0.835  -5.640  0.00  0.00    +0.063 C 
BRANCH  18  19
ATOM     19  C   LIG    1       11.748  -1.737  -6.402  0.00  0.00    +0.164 C 
BRANCH  19  20
ATOM     20  O   LIG    1       12.526  -2.579  -5.534  0.00  0.00    -0.379 OA
BRANCH  20  21
ATOM     21  C   LIG    1       13.520  -3.325  -6.256  0.00  0.00    +0.163 C 
BRANCH  21  22
ATOM     22  C   LIG    1       14.194  -4.318  -5.347  0.00  0.00    +0.015 C 
ATOM     23  C   LIG    1       15.706  -4.404  -5.304  0.00  0.00    +0.006 C 
ATOM     24  C   LIG    1       14.950  -3.885  -4.115  0.00  0.00    +0.006 C 
ENDBRANCH  21  22
ENDBRANCH  20  21
ENDBRANCH  19  20
ENDBRANCH  18  19
ENDBRANCH   4  18
TORSDOF 12
