REMARK  Name = *****
REMARK                            x       y       z     vdW  Elec       q    Type
REMARK                         _______ _______ _______ _____ _____    ______ ____
ROOT
ATOM      1  C   LIG    1        2.548  -0.128  -2.924  0.00  0.00    +0.153 A 
ATOM      2  C   LIG    1        2.191   0.278  -4.215  0.00  0.00    +0.085 A 
ATOM      3  C   LIG    1        2.802   1.536  -4.530  0.00  0.00    +0.228 A 
ATOM      4  N   LIG    1        3.688   2.165  -3.727  0.00  0.00    -0.201 NA
ATOM      5  C   LIG    1        3.983   1.598  -2.566  0.00  0.00    +0.227 A 
ATOM      6  N   LIG    1        3.424   0.484  -2.100  0.00  0.00    -0.219 NA
ENDROOT
BRANCH   2   7
ATOM      7  C   LIG    1        1.326  -0.601  -5.108  0.00  0.00    -0.009 A 
ATOM      8  C   LIG    1        0.465  -1.637  -4.882  0.00  0.00    +0.010 A 
ATOM      9  C   LIG    1       -0.269  -2.301  -5.925  0.00  0.00    +0.016 A 
ATOM     10  C   LIG    1       -0.153  -1.939  -7.262  0.00  0.00    +0.018 A 
ATOM     11 BR   LIG    1       -1.167  -2.702  -8.641  0.00  0.00    -0.050 Br
ATOM     12  C   LIG    1        0.572  -0.834  -7.518  0.00  0.00    +0.016 A 
ATOM     13  C   LIG    1        1.015  -0.193  -6.366  0.00  0.00    +0.010 A 
ENDBRANCH   2   7
BRANCH   1  14
ATOM     14  N   LIG    1        1.771  -1.095  -2.244  0.00  0.00    -0.189 N 
ATOM     15  H   LIG    1        0.797  -0.886  -2.078  0.00  0.00    +0.176 HD
BRANCH  14  16
ATOM     16  S   LIG    1        2.329  -2.631  -2.063  0.00  0.00    +0.110 S 
ATOM     17  O   LIG    1        3.351  -2.931  -2.967  0.00  0.00    -0.138 OA
ATOM     18  O   LIG    1        2.361  -2.961  -0.626  0.00  0.00    -0.138 OA
BRANCH  16  19
ATOM     19  N   LIG    1        0.994  -3.464  -2.682  0.00  0.00    -0.177 NA
ATOM     20  H   LIG    1        1.208  -3.467  -3.683  0.00  0.00    +0.149 HD
BRANCH  19  21
ATOM     21  C   LIG    1        0.910  -4.880  -2.295  0.00  0.00    +0.107 C 
BRANCH  21  23
ATOM     22  C   LIG    1       -0.205  -5.549  -4.489  0.00  0.00    +0.005 C 
ATOM     23  C   LIG    1       -0.283  -5.554  -2.970  0.00  0.00    +0.013 C 
ENDBRANCH  21  23
ENDBRANCH  19  21
ENDBRANCH  16  19
ENDBRANCH  14  16
ENDBRANCH   1  14
BRANCH   3  24
ATOM     24  O   LIG    1        2.596   2.391  -5.586  0.00  0.00    -0.472 OA
BRANCH  24  25
ATOM     25  C   LIG    1        2.311   1.802  -6.816  0.00  0.00    +0.271 C 
BRANCH  25  26
ATOM     26  C   LIG    1        2.647   2.323  -8.166  0.00  0.00    +0.273 C 
BRANCH  26  27
ATOM     27  O   LIG    1        2.273   3.658  -8.470  0.00  0.00    -0.459 OA
BRANCH  27  28
ATOM     28  C   LIG    1        1.505   4.328  -7.536  0.00  0.00    +0.318 A 
ATOM     29  N   LIG    1        0.496   3.704  -6.888  0.00  0.00    -0.202 NA
ATOM     30  C   LIG    1        0.013   4.292  -5.774  0.00  0.00    +0.133 A 
ATOM     31  C   LIG    1        0.340   5.573  -5.434  0.00  0.00    +0.054 A 
ATOM     32 BR   LIG    1       -0.452   6.437  -3.972  0.00  0.00    -0.047 Br
ATOM     33  C   LIG    1        1.245   6.186  -6.274  0.00  0.00    +0.133 A 
ATOM     34  N   LIG    1        1.878   5.580  -7.303  0.00  0.00    -0.202 NA
ENDBRANCH  27  28
ENDBRANCH  26  27
ENDBRANCH  25  26
ENDBRANCH  24  25
ENDBRANCH   3  24
TORSDOF 11
