REMARK  Name = *****
REMARK                            x       y       z     vdW  Elec       q    Type
REMARK                         _______ _______ _______ _____ _____    ______ ____
ROOT
ATOM      1  O   LIG    1        4.493   1.476  -2.042  0.00  0.00    -0.458 OA
ENDROOT
BRANCH   1   2
ATOM      2  C   LIG    1        5.042   0.143  -2.095  0.00  0.00    +0.180 C 
ATOM      3  C   LIG    1        5.503  -0.224  -0.594  0.00  0.00    +0.063 C 
ATOM      4  C   LIG    1        4.419  -0.947   0.300  0.00  0.00    +0.061 C 
ATOM      5  N   LIG    1        3.245  -0.974  -0.560  0.00  0.00    -0.289 NA
ATOM      6  C   LIG    1        3.728  -1.849  -1.663  0.00  0.00    +0.061 C 
ATOM      7  C   LIG    1        3.283  -3.271  -1.437  0.00  0.00    +0.030 C 
ATOM      8  C   LIG    1        3.526  -3.425   0.118  0.00  0.00    +0.060 C 
ATOM      9  C   LIG    1        2.272  -2.822   0.695  0.00  0.00    +0.150 C 
ATOM     10  O   LIG    1        1.537  -3.399   1.488  0.00  0.00    -0.296 OA
ATOM     11  C   LIG    1        2.026  -1.425   0.153  0.00  0.00    +0.159 C 
ATOM     12  C   LIG    1        4.678  -2.471   0.690  0.00  0.00    +0.030 C 
ATOM     13  C   LIG    1        4.004  -0.871  -2.762  0.00  0.00    +0.063 C 
ENDBRANCH   1   2
BRANCH   1  15
ATOM     14  O   LIG    1        4.882   1.744  -4.282  0.00  0.00    -0.245 OA
ATOM     15  C   LIG    1        4.483   2.178  -3.214  0.00  0.00    +0.342 C 
BRANCH  15  16
ATOM     16  C   LIG    1        3.911   3.507  -3.036  0.00  0.00    +0.084 C 
ATOM     17  C   LIG    1        3.248   4.310  -4.020  0.00  0.00    +0.014 C 
ATOM     18  C   LIG    1        2.804   5.471  -3.384  0.00  0.00    +0.047 C 
ATOM     19  C   LIG    1        2.053   6.455  -4.038  0.00  0.00    +0.026 C 
ATOM     20  C   LIG    1        1.744   6.245  -5.385  0.00  0.00    +0.002 C 
ATOM     21  C   LIG    1        2.186   5.107  -6.054  0.00  0.00    +0.001 C 
ATOM     22  N   LIG    1        3.234   5.410  -2.080  0.00  0.00    -0.360 NA
ATOM     23  H   LIG    1        3.066   6.126  -1.387  0.00  0.00    +0.165 HD
ATOM     24  C   LIG    1        2.941   4.136  -5.386  0.00  0.00    +0.011 C 
ATOM     25  C   LIG    1        3.884   4.228  -1.853  0.00  0.00    +0.098 C 
ENDBRANCH  15  16
ENDBRANCH   1  15
TORSDOF 3
