REMARK  Name = *****
REMARK                            x       y       z     vdW  Elec       q    Type
REMARK                         _______ _______ _______ _____ _____    ______ ____
ROOT
ATOM      1  C   LIG    1       -4.217  14.637   1.481  0.00  0.00    +0.064 C 
ATOM      2  C   LIG    1       -3.236  13.465   1.798  0.00  0.00    +0.119 C 
ATOM      3  C   LIG    1       -3.017  12.442   0.681  0.00  0.00    +0.074 C 
ATOM      4  C   LIG    1       -3.783  11.209   1.125  0.00  0.00    +0.239 C 
ATOM      5  O   LIG    1       -3.819  11.278   2.538  0.00  0.00    -0.464 OA
ATOM      6  C   LIG    1       -3.441  12.916  -0.696  0.00  0.00    +0.159 C 
ATOM      7  C   LIG    1       -4.886  13.384  -0.623  0.00  0.00    -0.011 A 
ATOM      8  C   LIG    1       -5.841  12.932  -1.554  0.00  0.00    +0.056 A 
ATOM      9  C   LIG    1       -7.103  13.485  -1.504  0.00  0.00    +0.167 A 
ATOM     10  O   LIG    1       -8.152  13.157  -2.305  0.00  0.00    -0.453 OA
ATOM     11  C   LIG    1       -9.168  14.055  -1.804  0.00  0.00    +0.466 C 
ATOM     12  O   LIG    1       -8.680  14.954  -0.787  0.00  0.00    -0.453 OA
ATOM     13  C   LIG    1       -7.414  14.486  -0.620  0.00  0.00    +0.167 A 
ATOM     14  C   LIG    1       -6.512  14.927   0.325  0.00  0.00    +0.054 A 
ATOM     15  C   LIG    1       -3.596  12.558   2.955  0.00  0.00    +0.312 C 
ATOM     16  O   LIG    1       -3.624  12.881   4.127  0.00  0.00    -0.251 OA
ATOM     17  C   LIG    1       -5.255  14.301   0.401  0.00  0.00    -0.030 A 
ENDROOT
BRANCH   1  22
ATOM     18  C   LIG    1       -4.664  17.422   4.088  0.00  0.00    +0.165 A 
ATOM     19  C   LIG    1       -5.810  16.998   4.754  0.00  0.00    +0.201 A 
ATOM     20  C   LIG    1       -6.399  15.757   4.465  0.00  0.00    +0.165 A 
ATOM     21  C   LIG    1       -5.854  14.946   3.464  0.00  0.00    +0.053 A 
ATOM     22  C   LIG    1       -4.749  15.393   2.706  0.00  0.00    -0.032 A 
ATOM     23  C   LIG    1       -4.156  16.625   3.055  0.00  0.00    +0.053 A 
BRANCH  18  25
ATOM     24  C   LIG    1       -3.970  19.085   5.622  0.00  0.00    +0.277 C 
ATOM     25  O   LIG    1       -3.999  18.605   4.281  0.00  0.00    -0.491 OA
ENDBRANCH  18  25
BRANCH  19  26
ATOM     26  O   LIG    1       -6.439  17.793   5.681  0.00  0.00    -0.501 OA
ATOM     27  H   LIG    1       -7.225  17.284   5.960  0.00  0.00    +0.292 HD
ENDBRANCH  19  26
BRANCH  20  28
ATOM     28  O   LIG    1       -7.516  15.494   5.219  0.00  0.00    -0.491 OA
ATOM     29  C   LIG    1       -8.176  14.256   5.006  0.00  0.00    +0.277 C 
ENDBRANCH  20  28
ENDBRANCH   1  22
BRANCH   6  30
ATOM     30  O   LIG    1       -2.671  14.045  -1.128  0.00  0.00    -0.340 OA
BRANCH  30  31
ATOM     31  C   LIG    1       -1.267  13.855  -1.367  0.00  0.00    +0.282 C 
ATOM     32  C   LIG    1       -0.966  12.845  -2.499  0.00  0.00    +0.201 C 
ATOM     33  C   LIG    1       -0.987  13.535  -3.873  0.00  0.00    +0.179 C 
ATOM     34  C   LIG    1       -1.902  14.764  -3.842  0.00  0.00    +0.183 C 
ATOM     35  C   LIG    1       -1.375  15.760  -2.784  0.00  0.00    +0.178 C 
ATOM     36  C   LIG    1       -0.535  16.823  -3.506  0.00  0.00    +0.197 C 
ATOM     37  O   LIG    1       -1.268  17.488  -4.549  0.00  0.00    -0.349 OA
ATOM     38  C   LIG    1       -2.391  16.725  -4.989  0.00  0.00    +0.248 C 
ATOM     39  C   LIG    1       -2.934  17.276  -6.291  0.00  0.00    +0.070 C 
ATOM     40  O   LIG    1       -2.018  15.356  -5.145  0.00  0.00    -0.343 OA
ATOM     41  O   LIG    1       -0.671  15.123  -1.716  0.00  0.00    -0.341 OA
BRANCH  32  42
ATOM     42  O   LIG    1        0.310  12.218  -2.290  0.00  0.00    -0.384 OA
ATOM     43  H   LIG    1        0.429  11.588  -3.026  0.00  0.00    +0.210 HD
ENDBRANCH  32  42
BRANCH  33  44
ATOM     44  O   LIG    1       -1.457  12.587  -4.854  0.00  0.00    -0.386 OA
ATOM     45  H   LIG    1       -1.675  13.107  -5.634  0.00  0.00    +0.210 HD
ENDBRANCH  33  44
ENDBRANCH  30  31
ENDBRANCH   6  30
TORSDOF 8
