REMARK  Name = *****
REMARK                            x       y       z     vdW  Elec       q    Type
REMARK                         _______ _______ _______ _____ _____    ______ ____
ROOT
ATOM      1  C   LIG    1        4.242  -1.401  -1.046  0.00  0.00    +0.005 C 
ATOM      2  C   LIG    1        5.578  -1.385  -0.915  0.00  0.00    +0.006 C 
ENDROOT
BRANCH   2   3
ATOM      3  C   LIG    1        6.396  -0.184  -0.668  0.00  0.00    -0.022 A 
ATOM      4  C   LIG    1        6.052   1.084  -1.161  0.00  0.00    +0.057 A 
ATOM      5  C   LIG    1        6.908   2.138  -0.904  0.00  0.00    +0.167 A 
ATOM      6  O   LIG    1        6.727   3.424  -1.310  0.00  0.00    -0.453 OA
ATOM      7  C   LIG    1        7.922   4.043  -0.787  0.00  0.00    +0.466 C 
ATOM      8  O   LIG    1        8.772   3.131  -0.062  0.00  0.00    -0.453 OA
ATOM      9  C   LIG    1        8.073   1.973  -0.195  0.00  0.00    +0.166 A 
ATOM     10  C   LIG    1        8.450   0.745   0.299  0.00  0.00    +0.050 A 
ATOM     11  C   LIG    1        7.603  -0.341   0.052  0.00  0.00    +0.012 A 
ENDBRANCH   2   3
BRANCH   1  12
ATOM     12  C   LIG    1        3.369  -2.620  -1.264  0.00  0.00    +0.143 C 
BRANCH  12  14
ATOM     13  C   LIG    1        1.243  -1.634  -0.235  0.00  0.00    +0.013 C 
ATOM     14  C   LIG    1        2.231  -2.818  -0.206  0.00  0.00    -0.008 C 
ATOM     15  C   LIG    1        1.438  -4.102  -0.533  0.00  0.00    +0.013 C 
ATOM     16  C   LIG    1        2.793  -2.956   1.224  0.00  0.00    +0.013 C 
ENDBRANCH  12  14
BRANCH  12  17
ATOM     17  O   LIG    1        4.183  -3.791  -1.336  0.00  0.00    -0.387 OA
ATOM     18  H   LIG    1        4.610  -3.900  -0.471  0.00  0.00    +0.210 HD
ENDBRANCH  12  17
ENDBRANCH   1  12
TORSDOF 4
