REMARK  Name = *****
REMARK                            x       y       z     vdW  Elec       q    Type
REMARK                         _______ _______ _______ _____ _____    ______ ____
ROOT
ATOM      1  C   LIG    1        5.821   3.208   0.143  0.00  0.00    +0.192 A 
ATOM      2  N   LIG    1        4.801   4.085   0.213  0.00  0.00    -0.205 NA
ATOM      3  C   LIG    1        5.069   5.430   0.241  0.00  0.00    +0.153 A 
ATOM      4  C   LIG    1        6.413   5.817   0.182  0.00  0.00    +0.171 A 
ATOM      5  N   LIG    1        7.064   7.022   0.227  0.00  0.00    -0.124 NA
ATOM      6  N   LIG    1        8.377   6.791   0.195  0.00  0.00    -0.063 NA
ATOM      7  N   LIG    1        8.549   5.451   0.054  0.00  0.00    -0.221 N 
ATOM      8  C   LIG    1        7.354   4.792   0.082  0.00  0.00    +0.185 A 
ATOM      9  N   LIG    1        7.132   3.478   0.066  0.00  0.00    -0.201 NA
ENDROOT
BRANCH   7  10
ATOM     10  C   LIG    1        9.851   4.829   0.120  0.00  0.00    +0.145 C 
ATOM     11  C   LIG    1       10.928   5.541  -0.701  0.00  0.00    +0.170 C 
ATOM     12  C   LIG    1       12.204   5.330   0.122  0.00  0.00    +0.174 C 
ATOM     13  C   LIG    1       11.710   5.507   1.568  0.00  0.00    +0.151 C 
ATOM     14  C   LIG    1       10.374   4.754   1.566  0.00  0.00    +0.064 C 
BRANCH  11  15
ATOM     15  O   LIG    1       11.055   4.960  -2.001  0.00  0.00    -0.387 OA
ATOM     16  H   LIG    1       11.646   4.186  -1.890  0.00  0.00    +0.210 HD
ENDBRANCH  11  15
BRANCH  12  17
ATOM     17  O   LIG    1       12.662   3.988  -0.108  0.00  0.00    -0.387 OA
ATOM     18  H   LIG    1       13.536   3.906   0.315  0.00  0.00    +0.210 HD
ENDBRANCH  12  17
BRANCH  13  19
ATOM     19  O   LIG    1       11.555   6.900   1.858  0.00  0.00    -0.372 OA
BRANCH  19  20
ATOM     20  C   LIG    1       11.061   7.155   3.176  0.00  0.00    +0.188 C 
BRANCH  20  21
ATOM     21  C   LIG    1       11.001   8.651   3.462  0.00  0.00    +0.184 C 
BRANCH  21  22
ATOM     22  O   LIG    1       10.331   8.884   4.698  0.00  0.00    -0.393 OA
ATOM     23  H   LIG    1        9.390   8.675   4.557  0.00  0.00    +0.209 HD
ENDBRANCH  21  22
ENDBRANCH  20  21
ENDBRANCH  19  20
ENDBRANCH  13  19
ENDBRANCH   7  10
BRANCH   3  24
ATOM     24  N   LIG    1        4.044   6.367   0.385  0.00  0.00    -0.324 N 
ATOM     25  H   LIG    1        4.350   7.332   0.475  0.00  0.00    +0.148 HD
BRANCH  24  26
ATOM     26  C   LIG    1        2.647   5.977   0.443  0.00  0.00    +0.080 C 
ATOM     27  C   LIG    1        2.029   5.442   1.716  0.00  0.00    +0.041 C 
ATOM     28  C   LIG    1        1.684   6.825   1.217  0.00  0.00    +0.033 C 
BRANCH  27  29
ATOM     29  C   LIG    1        0.973   4.360   1.678  0.00  0.00    -0.040 A 
ATOM     30  C   LIG    1       -0.214   4.487   2.421  0.00  0.00    +0.045 A 
ATOM     31  C   LIG    1       -1.182   3.485   2.403  0.00  0.00    +0.159 A 
ATOM     32  F   LIG    1       -2.303   3.642   3.122  0.00  0.00    -0.203 F 
ATOM     33  C   LIG    1       -0.989   2.335   1.652  0.00  0.00    +0.158 A 
ATOM     34  F   LIG    1       -1.921   1.372   1.636  0.00  0.00    -0.203 F 
ATOM     35  C   LIG    1        0.177   2.172   0.916  0.00  0.00    +0.041 A 
ATOM     36  C   LIG    1        1.150   3.178   0.934  0.00  0.00    +0.007 A 
ENDBRANCH  27  29
ENDBRANCH  24  26
ENDBRANCH   3  24
BRANCH   1  37
ATOM     37  S   LIG    1        5.396   1.480   0.124  0.00  0.00    -0.086 S 
BRANCH  37  38
ATOM     38  C   LIG    1        6.085   1.070  -1.516  0.00  0.00    +0.077 C 
BRANCH  38  40
ATOM     39  C   LIG    1        3.939   1.618  -2.774  0.00  0.00    +0.004 C 
ATOM     40  C   LIG    1        5.438   1.858  -2.658  0.00  0.00    +0.008 C 
ENDBRANCH  38  40
ENDBRANCH  37  38
ENDBRANCH   1  37
TORSDOF 13
