REMARK  Name = *****
REMARK                            x       y       z     vdW  Elec       q    Type
REMARK                         _______ _______ _______ _____ _____    ______ ____
ROOT
ATOM      1  C   LIG    1        6.699  -0.667  -2.931  0.00  0.00    +0.173 A 
ATOM      2  C   LIG    1        7.423  -0.308  -1.720  0.00  0.00    +0.206 A 
ATOM      3  C   LIG    1        8.876  -0.404  -1.646  0.00  0.00    +0.187 A 
ATOM      4  C   LIG    1        9.558  -0.979  -2.756  0.00  0.00    +0.085 A 
ATOM      5  C   LIG    1        8.803  -1.266  -3.912  0.00  0.00    +0.094 A 
ATOM      6  C   LIG    1        9.272  -1.924  -5.099  0.00  0.00    +0.342 C 
ATOM      7  O   LIG    1        8.322  -1.950  -6.014  0.00  0.00    -0.451 OA
ATOM      8  C   LIG    1        7.122  -1.258  -5.529  0.00  0.00    +0.233 C 
ATOM      9  O   LIG    1       10.414  -2.514  -5.209  0.00  0.00    -0.245 OA
ATOM     10  C   LIG    1        7.431  -1.038  -4.065  0.00  0.00    +0.056 A 
ENDROOT
BRANCH   8  11
ATOM     11  C   LIG    1        6.876  -0.030  -6.559  0.00  0.00    +0.136 C 
ATOM     12  N   LIG    1        6.350  -0.597  -7.855  0.00  0.00    -0.295 NA
ATOM     13  C   LIG    1        4.857  -0.639  -7.897  0.00  0.00    +0.105 C 
ATOM     14  C   LIG    1        6.863   0.202  -8.961  0.00  0.00    +0.089 C 
ATOM     15  C   LIG    1        8.395   0.321  -8.836  0.00  0.00    +0.051 C 
ATOM     16  C   LIG    1        8.825   1.039  -7.579  0.00  0.00    -0.034 A 
ATOM     17  C   LIG    1       10.034   1.716  -7.471  0.00  0.00    +0.053 A 
ATOM     18  C   LIG    1       10.323   2.391  -6.299  0.00  0.00    +0.170 A 
ATOM     19  O   LIG    1       11.456   3.091  -6.029  0.00  0.00    -0.453 OA
ATOM     20  C   LIG    1       11.204   3.504  -4.669  0.00  0.00    +0.467 C 
ATOM     21  O   LIG    1        9.868   3.258  -4.250  0.00  0.00    -0.449 OA
ATOM     22  C   LIG    1        9.437   2.477  -5.268  0.00  0.00    +0.208 A 
ATOM     23  C   LIG    1        8.235   1.846  -5.330  0.00  0.00    +0.170 A 
ATOM     24  C   LIG    1        7.989   0.996  -6.465  0.00  0.00    +0.022 A 
BRANCH  23  25
ATOM     25  O   LIG    1        7.294   2.225  -4.421  0.00  0.00    -0.491 OA
ATOM     26  C   LIG    1        7.662   2.363  -3.039  0.00  0.00    +0.277 C 
ENDBRANCH  23  25
ENDBRANCH   8  11
BRANCH   4  27
ATOM     27  N   LIG    1       10.959  -1.201  -2.827  0.00  0.00    -0.354 N 
ATOM     28  H   LIG    1       11.272  -1.784  -2.057  0.00  0.00    +0.142 HD
ATOM     29  H   LIG    1       11.208  -1.686  -3.704  0.00  0.00    +0.142 HD
ENDBRANCH   4  27
BRANCH   1  30
ATOM     30  O   LIG    1        5.332  -0.545  -2.840  0.00  0.00    -0.488 OA
BRANCH  30  32
ATOM     31  C   LIG    1        4.952   0.708  -4.762  0.00  0.00    +0.048 C 
ATOM     32  C   LIG    1        4.378  -0.268  -3.862  0.00  0.00    +0.226 C 
ENDBRANCH  30  32
ENDBRANCH   1  30
BRANCH   2  33
ATOM     33  O   LIG    1        6.806   0.514  -0.774  0.00  0.00    -0.485 OA
BRANCH  33  34
ATOM     34  C   LIG    1        5.472   0.279  -0.318  0.00  0.00    +0.226 C 
ATOM     35  C   LIG    1        4.686   1.585  -0.247  0.00  0.00    +0.048 C 
ENDBRANCH  33  34
ENDBRANCH   2  33
BRANCH   3  36
ATOM     36  O   LIG    1        9.659   0.251  -0.668  0.00  0.00    -0.487 OA
BRANCH  36  37
ATOM     37  C   LIG    1        9.173   0.172   0.680  0.00  0.00    +0.226 C 
ATOM     38  C   LIG    1        9.520   1.268   1.692  0.00  0.00    +0.048 C 
ENDBRANCH  36  37
ENDBRANCH   3  36
TORSDOF 9
