REMARK  Name = *****
REMARK                            x       y       z     vdW  Elec       q    Type
REMARK                         _______ _______ _______ _____ _____    ______ ____
ROOT
ATOM      1  N   LIG    1        5.366  -0.888   7.486  0.00  0.00    -0.298 N 
ATOM      2  C   LIG    1        5.581  -0.765   6.095  0.00  0.00    +0.247 C 
ATOM      3  O   LIG    1        4.637  -0.850   5.309  0.00  0.00    -0.270 OA
ENDROOT
BRANCH   2   4
ATOM      4  C   LIG    1        7.005  -0.545   5.494  0.00  0.00    +0.037 A 
ATOM      5  C   LIG    1        7.095  -0.579   4.075  0.00  0.00    +0.016 A 
ATOM      6  C   LIG    1        8.356  -0.527   3.424  0.00  0.00    -0.050 A 
ATOM      7  C   LIG    1        8.466  -0.544   1.930  0.00  0.00    +0.044 C 
ATOM      8  C   LIG    1        9.533  -0.521   4.171  0.00  0.00    +0.003 A 
ATOM      9  C   LIG    1        9.455  -0.440   5.542  0.00  0.00    +0.001 A 
ATOM     10  C   LIG    1        8.205  -0.362   6.155  0.00  0.00    +0.013 A 
ENDBRANCH   2   4
BRANCH   1  12
ATOM     11  C   LIG    1        3.549  -2.541   8.180  0.00  0.00    +0.024 C 
ATOM     12  C   LIG    1        3.968  -1.082   7.981  0.00  0.00    +0.104 C 
ENDBRANCH   1  12
BRANCH   1  13
ATOM     13  C   LIG    1        6.356  -0.951   8.559  0.00  0.00    +0.104 C 
ATOM     14  C   LIG    1        6.354   0.251   9.494  0.00  0.00    +0.024 C 
ENDBRANCH   1  13
TORSDOF 3
