REMARK  Name = *****
REMARK                            x       y       z     vdW  Elec       q    Type
REMARK                         _______ _______ _______ _____ _____    ______ ____
ROOT
ATOM      1  C   LIG    1        8.902  -3.926   4.347  0.00  0.00    +0.144 C 
ATOM      2  C   LIG    1       10.226  -4.041   4.706  0.00  0.00    +0.014 C 
ENDROOT
BRANCH   2   3
ATOM      3  C   LIG    1       11.408  -3.554   3.917  0.00  0.00    -0.016 A 
ATOM      4  C   LIG    1       11.460  -3.601   2.524  0.00  0.00    +0.012 A 
ATOM      5  C   LIG    1       12.606  -3.234   1.818  0.00  0.00    +0.046 A 
ATOM      6  C   LIG    1       13.768  -2.870   2.487  0.00  0.00    +0.120 A 
ATOM      7  C   LIG    1       13.769  -2.883   3.878  0.00  0.00    +0.046 A 
ATOM      8  C   LIG    1       12.596  -3.191   4.582  0.00  0.00    +0.012 A 
BRANCH   6   9
ATOM      9  O   LIG    1       14.935  -2.488   1.885  0.00  0.00    -0.495 OA
ATOM     10  C   LIG    1       14.901  -2.435   0.461  0.00  0.00    +0.277 C 
ENDBRANCH   6   9
ENDBRANCH   2   3
BRANCH   2  11
ATOM     11  C   LIG    1       10.531  -4.819   5.990  0.00  0.00    -0.016 A 
ATOM     12  C   LIG    1       10.511  -4.185   7.243  0.00  0.00    +0.008 A 
ATOM     13  C   LIG    1       10.785  -4.903   8.416  0.00  0.00    +0.001 A 
ATOM     14  C   LIG    1       11.087  -6.261   8.356  0.00  0.00    +0.000 A 
ATOM     15  C   LIG    1       11.121  -6.904   7.120  0.00  0.00    +0.001 A 
ATOM     16  C   LIG    1       10.844  -6.190   5.944  0.00  0.00    +0.008 A 
ENDBRANCH   2  11
BRANCH   1  17
ATOM     17  C   LIG    1        8.298  -3.316   3.127  0.00  0.00    +0.350 C 
ATOM     18  O   LIG    1        8.867  -2.674   2.296  0.00  0.00    -0.244 OA
BRANCH  17  19
ATOM     19  O   LIG    1        6.943  -3.542   3.130  0.00  0.00    -0.460 OA
BRANCH  19  20
ATOM     20  C   LIG    1        6.140  -2.741   2.246  0.00  0.00    +0.236 C 
BRANCH  20  21
ATOM     21  C   LIG    1        5.655  -1.486   3.002  0.00  0.00    +0.026 C 
BRANCH  21  22
ATOM     22  C   LIG    1        4.567  -0.717   2.237  0.00  0.00    +0.003 C 
ATOM     23  C   LIG    1        3.293  -1.471   1.906  0.00  0.00    +0.004 C 
ENDBRANCH  21  22
BRANCH  21  24
ATOM     24  C   LIG    1        6.848  -0.564   3.392  0.00  0.00    +0.007 C 
BRANCH  24  25
ATOM     25  C   LIG    1        7.666   0.078   2.251  0.00  0.00    +0.000 C 
BRANCH  25  27
ATOM     26  C   LIG    1        7.878   1.816   0.416  0.00  0.00    +0.004 C 
ATOM     27  C   LIG    1        7.003   1.244   1.521  0.00  0.00    -0.003 C 
ENDBRANCH  25  27
ENDBRANCH  24  25
ENDBRANCH  21  24
ENDBRANCH  20  21
ENDBRANCH  19  20
ENDBRANCH  17  19
ENDBRANCH   1  17
BRANCH   1  28
ATOM     28  C   LIG    1        7.988  -4.639   5.144  0.00  0.00    +0.107 C 
ATOM     29  N   LIG    1        7.240  -5.222   5.796  0.00  0.00    -0.191 NA
ENDBRANCH   1  28
TORSDOF 12
