REMARK  Name = *****
REMARK                            x       y       z     vdW  Elec       q    Type
REMARK                         _______ _______ _______ _____ _____    ______ ____
ROOT
ATOM      1  C   LIG    1        5.409  -2.138   4.355  0.00  0.00    +0.161 C 
ATOM      2  C   LIG    1        5.630  -3.631   4.145  0.00  0.00    +0.179 C 
ATOM      3  O   LIG    1        6.114  -4.185   3.179  0.00  0.00    -0.291 OA
ATOM      4  C   LIG    1        5.178  -4.342   5.344  0.00  0.00    +0.029 A 
ATOM      5  C   LIG    1        4.782  -3.430   6.310  0.00  0.00    +0.029 A 
ATOM      6  C   LIG    1        4.279  -3.833   7.533  0.00  0.00    +0.012 A 
ATOM      7  C   LIG    1        4.186  -5.208   7.771  0.00  0.00    +0.001 A 
ATOM      8  C   LIG    1        4.599  -6.137   6.795  0.00  0.00    +0.001 A 
ATOM      9  C   LIG    1        5.105  -5.706   5.563  0.00  0.00    +0.012 A 
ATOM     10  C   LIG    1        4.956  -2.070   5.806  0.00  0.00    +0.179 C 
ATOM     11  O   LIG    1        4.741  -1.075   6.475  0.00  0.00    -0.291 OA
ENDROOT
BRANCH   1  15
ATOM     12  C   LIG    1        2.612  -0.469   1.481  0.00  0.00    +0.120 A 
ATOM     13  C   LIG    1        2.143  -1.019   2.672  0.00  0.00    +0.046 A 
ATOM     14  C   LIG    1        3.031  -1.559   3.607  0.00  0.00    +0.008 A 
ATOM     15  C   LIG    1        4.416  -1.549   3.373  0.00  0.00    -0.029 A 
ATOM     16  C   LIG    1        4.877  -1.001   2.168  0.00  0.00    +0.008 A 
ATOM     17  C   LIG    1        3.983  -0.465   1.232  0.00  0.00    +0.046 A 
BRANCH  12  19
ATOM     18  C   LIG    1        2.099   0.579  -0.583  0.00  0.00    +0.277 C 
ATOM     19  O   LIG    1        1.646   0.029   0.649  0.00  0.00    -0.495 OA
ENDBRANCH  12  19
ENDBRANCH   1  15
TORSDOF 2
