REMARK  Name = *****
REMARK                            x       y       z     vdW  Elec       q    Type
REMARK                         _______ _______ _______ _____ _____    ______ ____
ROOT
ATOM      1  CA  LIG    1        2.847  -0.983   0.978  0.00  0.00    +0.299 C 
ATOM      2  C   LIG    1        3.611  -0.291   2.097  0.00  0.00    +0.253 C 
ATOM      3  O   LIG    1        3.497   0.898   2.388  0.00  0.00    -0.273 OA
ATOM      4  N   LIG    1        4.529  -1.050   2.787  0.00  0.00    -0.283 N 
ATOM      5  H   LIG    1        5.159  -0.489   3.350  0.00  0.00    +0.155 HD
ATOM      6  C   LIG    1        4.766  -2.425   2.646  0.00  0.00    +0.043 A 
ATOM      7  C   LIG    1        3.800  -3.352   2.220  0.00  0.00    +0.023 A 
ATOM      8  C   LIG    1        4.169  -4.687   1.982  0.00  0.00    +0.032 A 
ATOM      9  C   LIG    1        5.467  -5.108   2.255  0.00  0.00    +0.042 A 
ATOM     10  C   LIG    1        6.404  -4.215   2.765  0.00  0.00    +0.022 A 
ATOM     11 CL   LIG    1        5.902  -6.751   1.998  0.00  0.00    -0.084 Cl
ATOM     12  C   LIG    1        2.346  -2.998   2.147  0.00  0.00    +0.076 C 
ATOM     13  C   LIG    1        6.054  -2.876   2.961  0.00  0.00    +0.025 A 
ATOM     14  N   LIG    1        1.873  -1.938   1.574  0.00  0.00    -0.259 NA
ENDROOT
BRANCH  12  15
ATOM     15  C   LIG    1        1.358  -3.920   2.808  0.00  0.00    +0.001 A 
ATOM     16  C   LIG    1        0.067  -4.035   2.279  0.00  0.00    +0.010 A 
ATOM     17  C   LIG    1       -0.865  -4.884   2.881  0.00  0.00    +0.001 A 
ATOM     18  C   LIG    1       -0.514  -5.618   4.013  0.00  0.00    +0.000 A 
ATOM     19  C   LIG    1        0.763  -5.493   4.557  0.00  0.00    +0.001 A 
ATOM     20  C   LIG    1        1.694  -4.637   3.965  0.00  0.00    +0.010 A 
ENDBRANCH  12  15
BRANCH   1  22
ATOM     21  O   LIG    1        2.549   0.876  -0.580  0.00  0.00    -0.248 OA
ATOM     22  C   LIG    1        2.063  -0.013   0.101  0.00  0.00    +0.339 C 
BRANCH  22  23
ATOM     23  OXT LIG    1        0.733  -0.310   0.081  0.00  0.00    -0.479 OA
ATOM     24  HXT LIG    1        0.612  -1.063   0.710  0.00  0.00    +0.295 HD
ENDBRANCH  22  23
ENDBRANCH   1  22
TORSDOF 3
