REMARK  Name = *****
REMARK                            x       y       z     vdW  Elec       q    Type
REMARK                         _______ _______ _______ _____ _____    ______ ____
ROOT
ATOM      1  C   LIG    1        0.580   4.391   0.790  0.00  0.00    +0.213 C 
ENDROOT
BRANCH   1   2
ATOM      2  C   LIG    1        0.896   5.448   1.857  0.00  0.00    -0.025 A 
ATOM      3  C   LIG    1        1.142   5.096   3.196  0.00  0.00    +0.005 A 
ATOM      4  C   LIG    1        1.391   6.078   4.160  0.00  0.00    +0.000 A 
ATOM      5  C   LIG    1        1.419   7.422   3.799  0.00  0.00    +0.000 A 
ATOM      6  C   LIG    1        1.220   7.785   2.469  0.00  0.00    +0.000 A 
ATOM      7  C   LIG    1        0.965   6.806   1.503  0.00  0.00    +0.005 A 
ENDBRANCH   1   2
BRANCH   1  10
ATOM      8  N   LIG    1       -1.726   3.932   1.529  0.00  0.00    -0.301 N 
ATOM      9  H   LIG    1       -1.907   4.892   1.250  0.00  0.00    +0.150 HD
ATOM     10  C   LIG    1       -0.471   3.398   1.296  0.00  0.00    +0.232 C 
ATOM     11  O   LIG    1       -0.250   2.206   1.499  0.00  0.00    -0.275 OA
BRANCH   8  17
ATOM     12  C   LIG    1       -3.960   6.266   4.224  0.00  0.00    +0.025 C 
ATOM     13  C   LIG    1       -4.034   4.923   4.977  0.00  0.00    +0.042 C 
ATOM     14  CA  LIG    1       -5.118   3.994   4.377  0.00  0.00    +0.201 C 
ATOM     15  N   LIG    1       -4.487   3.201   3.311  0.00  0.00    -0.271 N 
ATOM     16  C   LIG    1       -3.061   2.836   3.517  0.00  0.00    +0.165 C 
ATOM     17  CA  LIG    1       -2.852   3.075   1.995  0.00  0.00    +0.190 C 
ATOM     18  C   LIG    1       -4.233   3.757   2.086  0.00  0.00    +0.240 C 
ATOM     19  O   LIG    1       -4.841   4.602   1.457  0.00  0.00    -0.273 OA
ATOM     20  S   LIG    1       -2.408   4.071   4.707  0.00  0.00    -0.127 S 
ATOM     21  C   LIG    1       -4.214   5.232   6.468  0.00  0.00    +0.025 C 
BRANCH  14  22
ATOM     22  C   LIG    1       -5.818   3.022   5.354  0.00  0.00    +0.327 C 
ATOM     23  O   LIG    1       -6.112   3.257   6.516  0.00  0.00    -0.249 OA
BRANCH  22  24
ATOM     24  OXT LIG    1       -6.255   1.883   4.757  0.00  0.00    -0.479 OA
ATOM     25  HXT LIG    1       -6.068   1.889   3.798  0.00  0.00    +0.295 HD
ENDBRANCH  22  24
ENDBRANCH  14  22
ENDBRANCH   8  17
ENDBRANCH   1  10
BRANCH   1  26
ATOM     26  C   LIG    1        1.831   3.703   0.259  0.00  0.00    +0.329 C 
ATOM     27  O   LIG    1        2.981   4.057   0.503  0.00  0.00    -0.249 OA
BRANCH  26  28
ATOM     28  O   LIG    1        1.488   2.664  -0.621  0.00  0.00    -0.425 OA
BRANCH  28  29
ATOM     29  C   LIG    1        2.423   1.616  -0.786  0.00  0.00    +0.132 A 
ATOM     30  C   LIG    1        2.477   0.951  -2.018  0.00  0.00    +0.050 A 
ATOM     31  C   LIG    1        3.350  -0.125  -2.136  0.00  0.00    -0.041 A 
ATOM     32  C   LIG    1        3.585  -1.018  -3.318  0.00  0.00    +0.036 C 
ATOM     33  C   LIG    1        4.900  -1.713  -2.924  0.00  0.00    +0.009 C 
ATOM     34  C   LIG    1        4.932  -1.759  -1.392  0.00  0.00    +0.036 C 
ATOM     35  C   LIG    1        4.129  -0.545  -1.049  0.00  0.00    -0.044 A 
ATOM     36  C   LIG    1        4.062   0.097   0.174  0.00  0.00    +0.007 A 
ATOM     37  C   LIG    1        3.192   1.176   0.305  0.00  0.00    +0.046 A 
ENDBRANCH  28  29
ENDBRANCH  26  28
ENDBRANCH   1  26
TORSDOF 8
