REMARK  Name = *****
REMARK                            x       y       z     vdW  Elec       q    Type
REMARK                         _______ _______ _______ _____ _____    ______ ____
ROOT
ATOM      1  N   LIG    1        4.130   3.678  -2.539  0.00  0.00    -0.283 NA
ENDROOT
BRANCH   1   2
ATOM      2  C   LIG    1        5.536   3.089  -2.440  0.00  0.00    +0.181 C 
BRANCH   2   5
ATOM      3  C   LIG    1        7.294   0.697  -2.635  0.00  0.00    +0.132 C 
ATOM      4  N   LIG    1        7.378   1.657  -3.731  0.00  0.00    -0.298 N 
ATOM      5  C   LIG    1        6.405   2.729  -3.788  0.00  0.00    +0.230 C 
ATOM      6  O   LIG    1        6.335   3.414  -4.763  0.00  0.00    -0.274 OA
BRANCH   4   7
ATOM      7  C   LIG    1        8.488   1.288  -4.878  0.00  0.00    +0.035 C 
ATOM      8  C   LIG    1        9.398   0.147  -4.315  0.00  0.00    +0.032 C 
ATOM      9  C   LIG    1        9.485   2.437  -5.206  0.00  0.00    +0.032 C 
BRANCH   7  10
ATOM     10  C   LIG    1        7.821   0.732  -6.215  0.00  0.00    +0.060 C 
BRANCH  10  11
ATOM     11  C   LIG    1        8.635   0.300  -7.463  0.00  0.00    -0.045 A 
ATOM     12  C   LIG    1        8.748   1.155  -8.579  0.00  0.00    +0.003 A 
ATOM     13  C   LIG    1        9.414   0.762  -9.756  0.00  0.00    +0.000 A 
ATOM     14  C   LIG    1        9.940  -0.520  -9.874  0.00  0.00    +0.000 A 
ATOM     15  C   LIG    1        9.792  -1.407  -8.812  0.00  0.00    +0.000 A 
ATOM     16  C   LIG    1        9.160  -0.999  -7.617  0.00  0.00    +0.003 A 
ENDBRANCH  10  11
ENDBRANCH   7  10
ENDBRANCH   4   7
ENDBRANCH   2   5
ENDBRANCH   1   2
BRANCH   1  17
ATOM     17  C   LIG    1        3.522   3.517  -1.173  0.00  0.00    +0.181 C 
BRANCH  17  18
ATOM     18  C   LIG    1        3.973   4.215   0.100  0.00  0.00    +0.230 C 
ATOM     19  N   LIG    1        3.212   5.389   0.371  0.00  0.00    -0.298 N 
ATOM     20  C   LIG    1        3.701   6.096   1.590  0.00  0.00    +0.132 C 
ATOM     21  O   LIG    1        4.691   3.693   0.873  0.00  0.00    -0.274 OA
BRANCH  19  22
ATOM     22  C   LIG    1        2.376   6.129  -0.688  0.00  0.00    +0.035 C 
ATOM     23  C   LIG    1        3.363   7.183  -1.372  0.00  0.00    +0.032 C 
ATOM     24  C   LIG    1        1.384   7.067   0.084  0.00  0.00    +0.032 C 
BRANCH  22  25
ATOM     25  C   LIG    1        1.145   5.171  -1.725  0.00  0.00    +0.060 C 
BRANCH  25  26
ATOM     26  C   LIG    1        1.088   3.775  -2.846  0.00  0.00    -0.045 A 
ATOM     27  C   LIG    1        1.316   2.425  -2.465  0.00  0.00    +0.003 A 
ATOM     28  C   LIG    1        1.746   1.427  -3.409  0.00  0.00    +0.000 A 
ATOM     29  C   LIG    1        1.804   1.655  -4.780  0.00  0.00    +0.000 A 
ATOM     30  C   LIG    1        1.399   2.883  -5.225  0.00  0.00    +0.000 A 
ATOM     31  C   LIG    1        0.969   3.861  -4.293  0.00  0.00    +0.003 A 
ENDBRANCH  25  26
ENDBRANCH  22  25
ENDBRANCH  19  22
ENDBRANCH  17  18
ENDBRANCH   1  17
BRANCH   1  32
ATOM     32  C   LIG    1        3.962   4.885  -3.470  0.00  0.00    +0.113 C 
BRANCH  32  33
ATOM     33  C   LIG    1        2.747   5.935  -3.939  0.00  0.00    +0.171 C 
BRANCH  33  34
ATOM     34  O   LIG    1        2.866   6.624  -5.182  0.00  0.00    -0.394 OA
ATOM     35  H   LIG    1        2.211   6.237  -5.798  0.00  0.00    +0.209 HD
ENDBRANCH  33  34
ENDBRANCH  32  33
ENDBRANCH   1  32
TORSDOF 13
