REMARK  Name = *****
REMARK                            x       y       z     vdW  Elec       q    Type
REMARK                         _______ _______ _______ _____ _____    ______ ____
ROOT
ATOM      1  N   LIG    1        3.789  -1.299  -0.485  0.00  0.00    -0.109 NA
ATOM      2  C   LIG    1        4.370  -1.826  -1.506  0.00  0.00    +0.201 C 
ATOM      3  N   LIG    1        5.755  -1.834  -1.660  0.00  0.00    -0.326 N 
ATOM      4  H   LIG    1        6.353  -1.274  -1.079  0.00  0.00    +0.169 HD
ATOM      5  C   LIG    1        6.072  -2.256  -2.953  0.00  0.00    +0.066 A 
ATOM      6  C   LIG    1        4.868  -2.635  -3.576  0.00  0.00    +0.065 A 
ATOM      7  C   LIG    1        4.855  -3.198  -4.828  0.00  0.00    +0.028 A 
ATOM      8  C   LIG    1        6.093  -3.362  -5.470  0.00  0.00    +0.014 A 
ATOM      9  C   LIG    1        7.309  -2.976  -4.848  0.00  0.00    +0.024 A 
ATOM     10  C   LIG    1        7.297  -2.442  -3.551  0.00  0.00    +0.039 A 
ATOM     11  N   LIG    1        3.848  -2.428  -2.650  0.00  0.00    -0.326 N 
ATOM     12  H   LIG    1        2.857  -2.436  -2.846  0.00  0.00    +0.169 HD
ENDROOT
BRANCH   1  13
ATOM     13  C   LIG    1        2.424  -1.309  -0.458  0.00  0.00    +0.427 C 
ATOM     14  O   LIG    1        1.676  -1.738  -1.324  0.00  0.00    -0.224 OA
BRANCH  13  16
ATOM     15  C   LIG    1        0.580  -0.646   0.803  0.00  0.00    +0.282 C 
ATOM     16  O   LIG    1        1.998  -0.728   0.698  0.00  0.00    -0.452 OA
ENDBRANCH  13  16
ENDBRANCH   1  13
BRANCH   9  17
ATOM     17  C   LIG    1        8.591  -3.217  -5.579  0.00  0.00    +0.193 C 
ATOM     18  O   LIG    1        8.655  -4.149  -6.377  0.00  0.00    -0.287 OA
BRANCH  17  19
ATOM     19  C   LIG    1        9.798  -2.363  -5.374  0.00  0.00    +0.022 A 
ATOM     20  C   LIG    1        9.681  -0.997  -5.082  0.00  0.00    +0.014 A 
ATOM     21  C   LIG    1       10.825  -0.216  -4.899  0.00  0.00    +0.039 A 
ATOM     22  C   LIG    1       12.083  -0.796  -5.018  0.00  0.00    +0.123 A 
ATOM     23  F   LIG    1       13.175  -0.043  -4.838  0.00  0.00    -0.205 F 
ATOM     24  C   LIG    1       12.220  -2.142  -5.338  0.00  0.00    +0.039 A 
ATOM     25  C   LIG    1       11.076  -2.925  -5.534  0.00  0.00    +0.014 A 
ENDBRANCH  17  19
ENDBRANCH   9  17
TORSDOF 4
