REMARK  Name = *****
REMARK                            x       y       z     vdW  Elec       q    Type
REMARK                         _______ _______ _______ _____ _____    ______ ____
ROOT
ATOM      1  C   LIG    1        7.940   1.584  -3.036  0.00  0.00    +0.037 A 
ATOM      2  C   LIG    1        7.819   0.584  -4.009  0.00  0.00    +0.015 A 
ATOM      3  C   LIG    1        8.557   0.670  -5.192  0.00  0.00    +0.030 A 
ATOM      4  C   LIG    1        9.376   1.776  -5.443  0.00  0.00    +0.086 A 
ATOM      5  C   LIG    1        9.502   2.761  -4.450  0.00  0.00    +0.030 A 
ATOM      6  C   LIG    1        8.787   2.672  -3.256  0.00  0.00    +0.015 A 
ENDROOT
BRANCH   1   9
ATOM      7  N   LIG    1        7.464   2.212  -0.724  0.00  0.00    -0.311 N 
ATOM      8  H   LIG    1        8.417   2.551  -0.686  0.00  0.00    +0.149 HD
ATOM      9  C   LIG    1        7.051   1.540  -1.852  0.00  0.00    +0.244 C 
ATOM     10  O   LIG    1        5.944   1.021  -1.963  0.00  0.00    -0.270 OA
BRANCH   7  11
ATOM     11  C   LIG    1        6.685   2.359   0.500  0.00  0.00    +0.115 C 
BRANCH  11  12
ATOM     12  C   LIG    1        5.176   2.480   0.345  0.00  0.00    +0.139 C 
BRANCH  12  14
ATOM     13  O   LIG    1        4.632   4.791  -0.046  0.00  0.00    -0.251 OA
ATOM     14  C   LIG    1        4.813   3.670  -0.501  0.00  0.00    +0.306 C 
BRANCH  14  15
ATOM     15  O   LIG    1        4.737   3.404  -1.823  0.00  0.00    -0.481 OA
ATOM     16  H   LIG    1        4.951   2.461  -2.027  0.00  0.00    +0.295 HD
ENDBRANCH  14  15
ENDBRANCH  12  14
ENDBRANCH  11  12
ENDBRANCH   7  11
ENDBRANCH   1   9
BRANCH   4  17
ATOM     17  N   LIG    1        9.991   1.884  -6.707  0.00  0.00    -0.149 NA
ATOM     18  N   LIG    1        9.946   3.068  -7.109  0.00  0.00    -0.149 NA
BRANCH  18  19
ATOM     19  C   LIG    1       10.285   3.201  -8.463  0.00  0.00    +0.087 A 
ATOM     20  C   LIG    1       11.007   4.329  -8.858  0.00  0.00    +0.048 A 
ATOM     21  C   LIG    1       11.326   4.542 -10.205  0.00  0.00    +0.102 A 
ATOM     22  C   LIG    1       10.902   3.614 -11.166  0.00  0.00    +0.131 A 
ATOM     23  C   LIG    1       10.142   2.507 -10.793  0.00  0.00    +0.048 A 
ATOM     24  C   LIG    1        9.837   2.306  -9.446  0.00  0.00    +0.033 A 
BRANCH  21  25
ATOM     25  C   LIG    1       12.099   5.778 -10.521  0.00  0.00    +0.340 C 
ATOM     26  O   LIG    1       12.046   6.776  -9.846  0.00  0.00    -0.245 OA
BRANCH  25  27
ATOM     27  O   LIG    1       12.930   5.630 -11.577  0.00  0.00    -0.477 OA
ATOM     28  H   LIG    1       12.771   4.796 -12.074  0.00  0.00    +0.295 HD
ENDBRANCH  25  27
ENDBRANCH  21  25
BRANCH  22  29
ATOM     29  O   LIG    1       11.257   3.779 -12.477  0.00  0.00    -0.506 OA
ATOM     30  H   LIG    1       10.775   3.125 -13.017  0.00  0.00    +0.292 HD
ENDBRANCH  22  29
ENDBRANCH  18  19
ENDBRANCH   4  17
TORSDOF 10
