REMARK  Name = *****
REMARK                            x       y       z     vdW  Elec       q    Type
REMARK                         _______ _______ _______ _____ _____    ______ ____
ROOT
ATOM      1  C   LIG    1       -0.805  -6.044  -1.582  0.00  0.00    +0.030 A 
ATOM      2  C   LIG    1        0.441  -5.528  -1.265  0.00  0.00    +0.003 A 
ATOM      3  C   LIG    1        1.632  -6.200  -0.665  0.00  0.00    +0.146 C 
ATOM      4  N   LIG    1        2.637  -5.143  -0.666  0.00  0.00    -0.281 N 
ATOM      5  C   LIG    1        2.114  -3.928  -1.076  0.00  0.00    +0.248 C 
ATOM      6  O   LIG    1        2.674  -2.850  -1.119  0.00  0.00    -0.270 OA
ATOM      7  C   LIG    1        0.725  -4.176  -1.474  0.00  0.00    +0.043 A 
ATOM      8  C   LIG    1       -0.203  -3.277  -1.960  0.00  0.00    +0.013 A 
ATOM      9  C   LIG    1       -1.479  -3.768  -2.226  0.00  0.00    +0.003 A 
ATOM     10  C   LIG    1       -1.777  -5.129  -2.018  0.00  0.00    +0.023 A 
ENDROOT
BRANCH   4  11
ATOM     11  C   LIG    1        3.986  -5.282  -0.114  0.00  0.00    +0.163 C 
ATOM     12  C   LIG    1        4.220  -6.623   0.597  0.00  0.00    +0.240 C 
ATOM     13  O   LIG    1        3.666  -6.924   1.654  0.00  0.00    -0.273 OA
ATOM     14  N   LIG    1        4.945  -7.568  -0.089  0.00  0.00    -0.255 N 
ATOM     15  H   LIG    1        5.018  -8.470   0.362  0.00  0.00    +0.158 HD
ATOM     16  C   LIG    1        5.280  -7.549  -1.418  0.00  0.00    +0.219 C 
ATOM     17  O   LIG    1        5.627  -8.577  -1.993  0.00  0.00    -0.275 OA
ATOM     18  C   LIG    1        5.100  -6.240  -2.147  0.00  0.00    +0.098 C 
ATOM     19  C   LIG    1        5.070  -5.069  -1.177  0.00  0.00    +0.041 C 
ENDBRANCH   4  11
BRANCH   1  20
ATOM     20  N   LIG    1       -1.167  -7.353  -1.263  0.00  0.00    -0.358 N 
ATOM     21  H   LIG    1       -0.410  -8.028  -1.281  0.00  0.00    +0.142 HD
ATOM     22  H   LIG    1       -1.982  -7.690  -1.768  0.00  0.00    +0.142 HD
ENDBRANCH   1  20
TORSDOF 2
