REMARK  Name = *****
REMARK                            x       y       z     vdW  Elec       q    Type
REMARK                         _______ _______ _______ _____ _____    ______ ____
ROOT
ATOM      1  C   LIG    1        5.543  -1.127  -5.056  0.00  0.00    +0.328 C 
ATOM      2  N   LIG    1        5.738  -2.200  -4.096  0.00  0.00    -0.208 N 
ATOM      3  C   LIG    1        6.982  -2.104  -3.464  0.00  0.00    +0.275 C 
ATOM      4  O   LIG    1        7.508  -2.823  -2.633  0.00  0.00    -0.268 OA
ATOM      5  C   LIG    1        7.621  -0.883  -3.971  0.00  0.00    +0.152 A 
ATOM      6  N   LIG    1        8.815  -0.386  -3.594  0.00  0.00    -0.247 NA
ATOM      7  C   LIG    1        9.130   0.777  -4.216  0.00  0.00    +0.131 A 
ATOM      8  C   LIG    1        8.293   1.387  -5.152  0.00  0.00    +0.131 A 
ATOM      9  N   LIG    1        7.094   0.866  -5.520  0.00  0.00    -0.251 NA
ATOM     10  C   LIG    1        6.785  -0.290  -4.889  0.00  0.00    +0.131 A 
ENDROOT
BRANCH   2  11
ATOM     11  C   LIG    1        4.804  -3.232  -3.870  0.00  0.00    +0.131 A 
ATOM     12  N   LIG    1        5.148  -4.229  -3.030  0.00  0.00    -0.238 NA
ATOM     13  C   LIG    1        4.270  -5.235  -2.804  0.00  0.00    +0.133 A 
ATOM     14  C   LIG    1        3.021  -5.302  -3.386  0.00  0.00    +0.059 A 
ATOM     15 CL   LIG    1        1.955  -6.604  -3.059  0.00  0.00    -0.082 Cl
ATOM     16  C   LIG    1        2.655  -4.279  -4.247  0.00  0.00    +0.025 A 
ATOM     17  C   LIG    1        3.554  -3.234  -4.494  0.00  0.00    +0.045 A 
ENDBRANCH   2  11
BRANCH   1  18
ATOM     18  O   LIG    1        5.533  -1.705  -6.353  0.00  0.00    -0.422 OA
BRANCH  18  24
ATOM     19  C   LIG    1        7.111  -1.937 -11.668  0.00  0.00    +0.105 C 
ATOM     20  N   LIG    1        7.302  -1.154 -10.450  0.00  0.00    -0.302 NA
ATOM     21  C   LIG    1        6.219  -0.157 -10.263  0.00  0.00    +0.103 C 
ATOM     22  C   LIG    1        4.880  -0.738  -9.754  0.00  0.00    +0.126 C 
ATOM     23  N   LIG    1        5.114  -1.554  -8.566  0.00  0.00    -0.265 N 
ATOM     24  C   LIG    1        4.974  -0.956  -7.328  0.00  0.00    +0.405 C 
ATOM     25  O   LIG    1        4.402   0.110  -7.125  0.00  0.00    -0.226 OA
ATOM     26  C   LIG    1        6.091  -2.626  -8.767  0.00  0.00    +0.126 C 
ATOM     27  C   LIG    1        7.424  -2.028  -9.260  0.00  0.00    +0.103 C 
ENDBRANCH  18  24
ENDBRANCH   1  18
TORSDOF 3
