REMARK  Name = *****
REMARK                            x       y       z     vdW  Elec       q    Type
REMARK                         _______ _______ _______ _____ _____    ______ ____
ROOT
ATOM      1  C   LIG    1        4.827  -2.569  -1.230  0.00  0.00    +0.236 C 
ATOM      2  N   LIG    1        6.075  -2.853  -0.713  0.00  0.00    -0.310 N 
ATOM      3  H   LIG    1        6.607  -2.078  -0.315  0.00  0.00    +0.149 HD
ATOM      4  O   LIG    1        4.301  -3.280  -2.091  0.00  0.00    -0.274 OA
ENDROOT
BRANCH   1   5
ATOM      5  C   LIG    1        4.188  -1.243  -0.745  0.00  0.00    +0.185 C 
BRANCH   5   6
ATOM      6  N   LIG    1        4.426  -1.056   0.695  0.00  0.00    -0.302 N 
ATOM      7  H   LIG    1        3.658  -1.228   1.327  0.00  0.00    +0.149 HD
ATOM      8  C   LIG    1        5.606  -0.533   1.170  0.00  0.00    +0.211 C 
ATOM      9  O   LIG    1        6.537  -0.222   0.442  0.00  0.00    -0.276 OA
ATOM     10  C   LIG    1        5.691  -0.443   2.670  0.00  0.00    +0.109 C 
ENDBRANCH   5   6
BRANCH   5  11
ATOM     11  C   LIG    1        2.681  -1.233  -1.088  0.00  0.00    +0.191 C 
BRANCH  11  13
ATOM     12  C   LIG    1        0.671   0.023  -0.982  0.00  0.00    +0.194 C 
ATOM     13  O   LIG    1        2.065  -0.002  -0.674  0.00  0.00    -0.381 OA
ENDBRANCH  11  13
ENDBRANCH   5  11
ENDBRANCH   1   5
BRANCH   2  14
ATOM     14  C   LIG    1        6.790  -4.049  -1.084  0.00  0.00    +0.139 C 
BRANCH  14  15
ATOM     15  C   LIG    1        7.740  -4.507  -0.006  0.00  0.00    -0.030 A 
ATOM     16  C   LIG    1        9.114  -4.599  -0.271  0.00  0.00    +0.005 A 
ATOM     17  C   LIG    1        9.998  -5.076   0.700  0.00  0.00    +0.000 A 
ATOM     18  C   LIG    1        9.520  -5.465   1.949  0.00  0.00    +0.000 A 
ATOM     19  C   LIG    1        8.159  -5.370   2.232  0.00  0.00    +0.000 A 
ATOM     20  C   LIG    1        7.273  -4.895   1.260  0.00  0.00    +0.005 A 
ENDBRANCH  14  15
ENDBRANCH   2  14
TORSDOF 6
