REMARK  Name = *****
REMARK                            x       y       z     vdW  Elec       q    Type
REMARK                         _______ _______ _______ _____ _____    ______ ____
ROOT
ATOM      1  C   LIG    1        2.281   4.089  -2.336  0.00  0.00    +0.059 C 
ENDROOT
BRANCH   1   2
ATOM      2  C   LIG    1        0.711   3.769  -2.262  0.00  0.00    -0.033 A 
ATOM      3  C   LIG    1       -0.277   4.736  -1.986  0.00  0.00    +0.005 A 
ATOM      4  C   LIG    1       -1.651   4.435  -2.043  0.00  0.00    +0.000 A 
ATOM      5  C   LIG    1       -2.087   3.176  -2.439  0.00  0.00    +0.000 A 
ATOM      6  C   LIG    1       -1.148   2.198  -2.719  0.00  0.00    +0.000 A 
ATOM      7  C   LIG    1        0.219   2.484  -2.599  0.00  0.00    +0.005 A 
ENDBRANCH   1   2
BRANCH   1   8
ATOM      8  C   LIG    1        2.708   5.412  -1.573  0.00  0.00    -0.033 A 
ATOM      9  C   LIG    1        3.750   6.242  -2.052  0.00  0.00    +0.005 A 
ATOM     10  C   LIG    1        4.181   7.390  -1.370  0.00  0.00    +0.000 A 
ATOM     11  C   LIG    1        3.575   7.763  -0.181  0.00  0.00    +0.000 A 
ATOM     12  C   LIG    1        2.547   6.977   0.327  0.00  0.00    +0.000 A 
ATOM     13  C   LIG    1        2.143   5.805  -0.340  0.00  0.00    +0.005 A 
ENDBRANCH   1   8
BRANCH   1  14
ATOM     14  C   LIG    1        2.646   4.214  -3.913  0.00  0.00    +0.191 C 
BRANCH  14  16
ATOM     15  C   LIG    1        2.713   3.101  -6.271  0.00  0.00    +0.007 C 
ATOM     16  C   LIG    1        2.289   2.998  -4.807  0.00  0.00    +0.042 C 
ENDBRANCH  14  16
BRANCH  14  17
ATOM     17  O   LIG    1        1.925   5.340  -4.489  0.00  0.00    -0.460 OA
BRANCH  17  18
ATOM     18  C   LIG    1        2.618   6.112  -5.390  0.00  0.00    +0.304 C 
ATOM     19  O   LIG    1        3.802   6.084  -5.577  0.00  0.00    -0.251 OA
ATOM     20  C   LIG    1        1.660   6.952  -6.202  0.00  0.00    +0.136 C 
ENDBRANCH  17  18
ENDBRANCH  14  17
ENDBRANCH   1  14
BRANCH   1  21
ATOM     21  C   LIG    1        3.066   2.850  -1.656  0.00  0.00    +0.038 C 
BRANCH  21  22
ATOM     22  C   LIG    1        4.632   2.741  -1.692  0.00  0.00    +0.054 C 
ATOM     23  C   LIG    1        5.104   1.319  -1.279  0.00  0.00    +0.024 C 
BRANCH  22  24
ATOM     24  N   LIG    1        5.310   3.780  -0.901  0.00  0.00    -0.306 NA
ATOM     25  C   LIG    1        6.724   3.935  -1.237  0.00  0.00    +0.105 C 
ATOM     26  C   LIG    1        5.144   3.658   0.547  0.00  0.00    +0.105 C 
ENDBRANCH  22  24
ENDBRANCH  21  22
ENDBRANCH   1  21
TORSDOF 9
