REMARK  Name = *****
REMARK                            x       y       z     vdW  Elec       q    Type
REMARK                         _______ _______ _______ _____ _____    ______ ____
ROOT
ATOM      1  C   LIG    1        5.330   1.230  -1.656  0.00  0.00    -0.014 A 
ATOM      2  C   LIG    1        6.174   1.177  -2.780  0.00  0.00    +0.055 A 
ATOM      3  C   LIG    1        7.524   1.463  -2.644  0.00  0.00    +0.159 A 
ATOM      4  C   LIG    1        8.063   1.785  -1.404  0.00  0.00    +0.158 A 
ATOM      5  C   LIG    1        7.253   1.831  -0.276  0.00  0.00    +0.049 A 
ATOM      6  C   LIG    1        5.886   1.559  -0.407  0.00  0.00    +0.010 A 
ENDROOT
BRANCH   3   7
ATOM      7  O   LIG    1        8.321   1.435  -3.752  0.00  0.00    -0.503 OA
ATOM      8  H   LIG    1        9.210   1.669  -3.416  0.00  0.00    +0.292 HD
ENDBRANCH   3   7
BRANCH   4   9
ATOM      9  O   LIG    1        9.402   2.050  -1.345  0.00  0.00    -0.503 OA
ATOM     10  H   LIG    1        9.633   2.219  -0.415  0.00  0.00    +0.292 HD
ENDBRANCH   4   9
BRANCH   1  11
ATOM     11  C   LIG    1        3.850   0.970  -1.831  0.00  0.00    +0.161 C 
BRANCH  11  13
ATOM     12  C   LIG    1        3.421   3.022  -3.341  0.00  0.00    +0.027 C 
ATOM     13  C   LIG    1        3.007   2.255  -2.087  0.00  0.00    +0.081 C 
BRANCH  13  14
ATOM     14  N   LIG    1        1.576   1.875  -2.183  0.00  0.00    -0.325 NA
ATOM     15  H   LIG    1        1.022   2.720  -2.338  0.00  0.00    +0.118 HD
ATOM     16  H   LIG    1        1.438   1.311  -3.025  0.00  0.00    +0.118 HD
ENDBRANCH  13  14
ENDBRANCH  11  13
BRANCH  11  17
ATOM     17  O   LIG    1        3.327   0.326  -0.659  0.00  0.00    -0.386 OA
ATOM     18  H   LIG    1        2.363   0.491  -0.712  0.00  0.00    +0.210 HD
ENDBRANCH  11  17
ENDBRANCH   1  11
TORSDOF 6
