REMARK  Name = *****
REMARK                            x       y       z     vdW  Elec       q    Type
REMARK                         _______ _______ _______ _____ _____    ______ ____
ROOT
ATOM      1  P   LIG    1        2.430  -1.624  -2.432  0.00  0.00    +0.359 P 
ATOM      2  O   LIG    1        3.426  -1.075  -3.446  0.00  0.00    -0.256 OA
ENDROOT
BRANCH   1   5
ATOM      3  C   LIG    1        2.256  -2.140   0.812  0.00  0.00    +0.041 C 
ATOM      4  C   LIG    1        3.200  -1.101   0.319  0.00  0.00    +0.157 C 
ATOM      5  C   LIG    1        3.345  -0.709  -1.139  0.00  0.00    +0.260 C 
ATOM      6  O   LIG    1        2.540   0.051  -0.202  0.00  0.00    -0.356 OA
ENDBRANCH   1   5
BRANCH   1   7
ATOM      7  O   LIG    1        1.565  -2.489  -3.655  0.00  0.00    -0.322 OA
ATOM      8  H   LIG    1        2.139  -2.458  -4.446  0.00  0.00    +0.220 HD
ENDBRANCH   1   7
BRANCH   1   9
ATOM      9  O   LIG    1        3.112  -3.036  -1.966  0.00  0.00    -0.322 OA
ATOM     10  H   LIG    1        3.857  -3.251  -2.556  0.00  0.00    +0.220 HD
ENDBRANCH   1   9
TORSDOF 3
