REMARK  Name = *****
REMARK                            x       y       z     vdW  Elec       q    Type
REMARK                         _______ _______ _______ _____ _____    ______ ____
ROOT
ATOM      1  C   LIG    1        6.399  -2.539   0.416  0.00  0.00    +0.057 A 
ATOM      2  C   LIG    1        6.490  -3.929   0.609  0.00  0.00    +0.048 A 
ATOM      3  C   LIG    1        7.753  -4.529   0.678  0.00  0.00    +0.047 A 
ATOM      4  C   LIG    1        8.926  -3.819   0.395  0.00  0.00    +0.029 A 
ATOM      5  C   LIG    1        8.813  -2.441   0.188  0.00  0.00    +0.025 A 
ATOM      6  C   LIG    1        7.566  -1.801   0.209  0.00  0.00    +0.027 A 
ENDROOT
BRANCH   1   8
ATOM      7  C   LIG    1        4.758  -0.664   0.285  0.00  0.00    +0.405 C 
ATOM      8  N   LIG    1        5.118  -1.973   0.454  0.00  0.00    -0.249 N 
ATOM      9  H   LIG    1        4.350  -2.573   0.698  0.00  0.00    +0.158 HD
ATOM     10  O   LIG    1        5.487   0.287   0.061  0.00  0.00    -0.226 OA
BRANCH   7  11
ATOM     11  O   LIG    1        3.410  -0.569   0.408  0.00  0.00    -0.450 OA
BRANCH  11  13
ATOM     12  C   LIG    1        2.963   1.415   1.696  0.00  0.00    +0.048 C 
ATOM     13  C   LIG    1        2.876   0.759   0.330  0.00  0.00    +0.230 C 
ENDBRANCH  11  13
ENDBRANCH   7  11
ENDBRANCH   1   8
BRANCH   2  14
ATOM     14  N   LIG    1        5.343  -4.716   0.876  0.00  0.00    -0.356 N 
ATOM     15  H   LIG    1        4.573  -4.484   0.257  0.00  0.00    +0.142 HD
ATOM     16  H   LIG    1        5.539  -5.712   0.830  0.00  0.00    +0.142 HD
ENDBRANCH   2  14
BRANCH   4  17
ATOM     17  N   LIG    1       10.202  -4.396   0.405  0.00  0.00    -0.340 N 
ATOM     18  H   LIG    1       10.777  -4.037  -0.356  0.00  0.00    +0.146 HD
BRANCH  17  19
ATOM     19  C   LIG    1       10.323  -5.834   0.588  0.00  0.00    +0.137 C 
BRANCH  19  20
ATOM     20  C   LIG    1       11.771  -6.251   0.547  0.00  0.00    -0.030 A 
ATOM     21  C   LIG    1       12.382  -6.599  -0.668  0.00  0.00    +0.008 A 
ATOM     22  C   LIG    1       13.720  -6.996  -0.693  0.00  0.00    +0.039 A 
ATOM     23  C   LIG    1       14.446  -7.038   0.492  0.00  0.00    +0.123 A 
ATOM     24  F   LIG    1       15.730  -7.418   0.464  0.00  0.00    -0.205 F 
ATOM     25  C   LIG    1       13.862  -6.690   1.703  0.00  0.00    +0.039 A 
ATOM     26  C   LIG    1       12.526  -6.293   1.731  0.00  0.00    +0.008 A 
ENDBRANCH  19  20
ENDBRANCH  17  19
ENDBRANCH   4  17
TORSDOF 7
