REMARK  Name = *****
REMARK                            x       y       z     vdW  Elec       q    Type
REMARK                         _______ _______ _______ _____ _____    ______ ____
ROOT
ATOM      1  C   LIG    1        0.740  -0.097   3.473  0.00  0.00    +0.166 A 
ATOM      2  C   LIG    1        1.695   0.726   2.846  0.00  0.00    +0.204 A 
ATOM      3  C   LIG    1        2.974   0.196   2.557  0.00  0.00    +0.173 A 
ATOM      4  C   LIG    1        3.272  -1.168   2.836  0.00  0.00    +0.031 A 
ATOM      5  C   LIG    1        4.520  -1.844   2.333  0.00  0.00    -0.009 A 
ATOM      6  C   LIG    1        5.377  -2.639   3.237  0.00  0.00    -0.016 A 
ATOM      7  C   LIG    1        5.168  -2.355   4.730  0.00  0.00    +0.104 C 
ATOM      8  C   LIG    1        3.881  -3.022   5.277  0.00  0.00    +0.032 C 
ATOM      9  C   LIG    1        2.758  -3.231   4.244  0.00  0.00    +0.038 C 
ATOM     10  C   LIG    1        6.179  -3.640   2.831  0.00  0.00    +0.060 A 
ATOM     11  C   LIG    1        6.633  -3.992   1.468  0.00  0.00    +0.221 A 
ATOM     12  O   LIG    1        6.966  -5.148   1.229  0.00  0.00    -0.284 OA
ATOM     13  C   LIG    1        6.877  -2.886   0.494  0.00  0.00    +0.167 A 
ATOM     14  C   LIG    1        5.984  -1.910   0.313  0.00  0.00    +0.050 A 
ATOM     15  C   LIG    1        4.751  -1.676   1.015  0.00  0.00    +0.012 A 
ATOM     16  C   LIG    1        2.364  -1.916   3.613  0.00  0.00    -0.032 A 
ATOM     17  C   LIG    1        1.097  -1.388   3.881  0.00  0.00    +0.053 A 
ENDROOT
BRANCH   7  18
ATOM     18  N   LIG    1        6.338  -2.762   5.521  0.00  0.00    -0.309 N 
ATOM     19  H   LIG    1        6.164  -3.239   6.399  0.00  0.00    +0.149 HD
ATOM     20  C   LIG    1        7.585  -2.205   5.359  0.00  0.00    +0.210 C 
ATOM     21  O   LIG    1        7.854  -1.339   4.517  0.00  0.00    -0.276 OA
ATOM     22  C   LIG    1        8.629  -2.755   6.295  0.00  0.00    +0.109 C 
ENDBRANCH   7  18
BRANCH   1  24
ATOM     23  C   LIG    1       -1.083   1.473   3.467  0.00  0.00    +0.277 C 
ATOM     24  O   LIG    1       -0.561   0.196   3.800  0.00  0.00    -0.491 OA
ENDBRANCH   1  24
BRANCH   2  25
ATOM     25  O   LIG    1        1.280   1.979   2.486  0.00  0.00    -0.488 OA
ATOM     26  C   LIG    1        2.202   3.055   2.469  0.00  0.00    +0.277 C 
ENDBRANCH   2  25
BRANCH   3  27
ATOM     27  O   LIG    1        3.877   1.020   1.918  0.00  0.00    -0.491 OA
ATOM     28  C   LIG    1        5.174   1.091   2.524  0.00  0.00    +0.277 C 
ENDBRANCH   3  27
BRANCH  13  29
ATOM     29  O   LIG    1        8.024  -2.876  -0.295  0.00  0.00    -0.491 OA
ATOM     30  C   LIG    1        9.204  -3.241   0.419  0.00  0.00    +0.277 C 
ENDBRANCH  13  29
TORSDOF 5
