REMARK  Name = *****
REMARK                            x       y       z     vdW  Elec       q    Type
REMARK                         _______ _______ _______ _____ _____    ______ ____
ROOT
ATOM      1  O   LIG    1        5.319   3.429  -5.495  0.00  0.00    -0.375 OA
ENDROOT
BRANCH   1   2
ATOM      2  C   LIG    1        6.143   3.921  -6.574  0.00  0.00    +0.135 C 
ATOM      3  C   LIG    1        7.300   2.891  -6.834  0.00  0.00    +0.086 C 
ATOM      4  C   LIG    1        6.648   1.552  -7.269  0.00  0.00    +0.021 C 
ATOM      5  C   LIG    1        5.740   1.696  -8.491  0.00  0.00    +0.002 C 
ATOM      6  C   LIG    1        4.702   2.803  -8.325  0.00  0.00    +0.003 C 
ATOM      7  C   LIG    1        5.330   4.116  -7.865  0.00  0.00    +0.033 C 
BRANCH   3   8
ATOM      8  N   LIG    1        8.308   3.364  -7.826  0.00  0.00    -0.294 NA
ATOM      9  C   LIG    1        8.918   4.660  -7.455  0.00  0.00    +0.116 C 
ATOM     10  C   LIG    1       10.284   4.642  -8.134  0.00  0.00    +0.130 C 
ATOM     11  C   LIG    1       10.718   3.206  -7.936  0.00  0.00    +0.048 C 
ATOM     12  C   LIG    1        9.418   2.416  -8.048  0.00  0.00    +0.087 C 
BRANCH  10  13
ATOM     13  O   LIG    1       10.172   4.931  -9.526  0.00  0.00    -0.391 OA
ATOM     14  H   LIG    1        9.389   4.443  -9.844  0.00  0.00    +0.210 HD
ENDBRANCH  10  13
ENDBRANCH   3   8
ENDBRANCH   1   2
BRANCH   1  15
ATOM     15  C   LIG    1        4.258   4.313  -5.121  0.00  0.00    +0.165 C 
BRANCH  15  16
ATOM     16  C   LIG    1        3.470   3.705  -3.964  0.00  0.00    +0.063 C 
BRANCH  16  20
ATOM     17  C   LIG    1        0.146   6.188  -2.757  0.00  0.00    +0.162 A 
ATOM     18  C   LIG    1        1.408   6.372  -2.143  0.00  0.00    +0.162 A 
ATOM     19  C   LIG    1        2.482   5.565  -2.553  0.00  0.00    +0.053 A 
ATOM     20  C   LIG    1        2.318   4.582  -3.541  0.00  0.00    -0.042 A 
ATOM     21  C   LIG    1        1.065   4.432  -4.147  0.00  0.00    +0.007 A 
ATOM     22  C   LIG    1        0.001   5.215  -3.748  0.00  0.00    +0.050 A 
BRANCH  17  24
ATOM     23  C   LIG    1       -1.923   7.197  -3.321  0.00  0.00    +0.277 C 
ATOM     24  O   LIG    1       -0.935   6.920  -2.330  0.00  0.00    -0.491 OA
ENDBRANCH  17  24
BRANCH  18  25
ATOM     25  O   LIG    1        1.732   7.279  -1.170  0.00  0.00    -0.491 OA
ATOM     26  C   LIG    1        0.686   8.095  -0.653  0.00  0.00    +0.277 C 
ENDBRANCH  18  25
ENDBRANCH  16  20
ENDBRANCH  15  16
ENDBRANCH   1  15
TORSDOF 8
