REMARK  Name = *****
REMARK                            x       y       z     vdW  Elec       q    Type
REMARK                         _______ _______ _______ _____ _____    ______ ____
ROOT
ATOM      1  C   LIG    1        1.962  -7.309  11.043  0.00  0.00    +0.201 C 
ATOM      2  C   LIG    1        0.908  -7.297  11.897  0.00  0.00    +0.169 C 
ATOM      3  C   LIG    1       -0.410  -7.948  11.501  0.00  0.00    +0.270 C 
ATOM      4  O   LIG    1       -0.500  -8.834  10.658  0.00  0.00    -0.268 OA
ATOM      5  N   LIG    1       -1.526  -7.461  12.186  0.00  0.00    -0.272 N 
ATOM      6  C   LIG    1       -1.361  -6.340  13.098  0.00  0.00    +0.206 C 
ATOM      7  N   LIG    1       -0.202  -6.606  13.992  0.00  0.00    -0.236 NA
ATOM      8  C   LIG    1       -2.682  -5.813  13.702  0.00  0.00    +0.203 C 
ATOM      9  O   LIG    1       -3.684  -6.814  13.835  0.00  0.00    -0.375 OA
ATOM     10  C   LIG    1       -4.029  -7.433  12.597  0.00  0.00    +0.179 C 
ATOM     11  C   LIG    1       -2.857  -7.703  11.639  0.00  0.00    +0.138 C 
ATOM     12  N   LIG    1        0.935  -6.605  13.124  0.00  0.00    -0.260 NA
ATOM     13  C   LIG    1        1.919  -5.674  13.368  0.00  0.00    +0.113 C 
ATOM     14  C   LIG    1        3.010  -5.554  12.610  0.00  0.00    +0.074 C 
ATOM     15  C   LIG    1        3.167  -6.503  11.483  0.00  0.00    +0.224 C 
ATOM     16  O   LIG    1        4.264  -6.574  10.938  0.00  0.00    -0.284 OA
ENDROOT
BRANCH   7  17
ATOM     17  C   LIG    1       -0.220  -7.870  14.834  0.00  0.00    +0.154 C 
ATOM     18  C   LIG    1        1.157  -8.215  15.492  0.00  0.00    -0.014 C 
ATOM     19  C   LIG    1        1.716  -7.616  16.647  0.00  0.00    +0.006 C 
ATOM     20  C   LIG    1        3.032  -7.989  17.033  0.00  0.00    +0.163 C 
ATOM     21  C   LIG    1        3.762  -8.957  16.363  0.00  0.00    +0.159 C 
ATOM     22  C   LIG    1        3.210  -9.592  15.271  0.00  0.00    +0.041 C 
ATOM     23  F   LIG    1        4.985  -9.299  16.791  0.00  0.00    -0.203 F 
ATOM     24  F   LIG    1        3.592  -7.406  18.108  0.00  0.00    -0.202 F 
ATOM     25  C   LIG    1        1.065  -6.695  17.649  0.00  0.00    +0.112 C 
ATOM     26  S   LIG    1       -0.434  -5.785  17.252  0.00  0.00    -0.120 S 
ATOM     27  C   LIG    1       -1.575  -7.098  16.884  0.00  0.00    +0.013 C 
ATOM     28  C   LIG    1       -2.777  -7.141  17.613  0.00  0.00    +0.015 C 
ATOM     29  C   LIG    1       -3.758  -8.095  17.336  0.00  0.00    +0.001 C 
ATOM     30  C   LIG    1       -3.530  -9.046  16.352  0.00  0.00    +0.000 C 
ATOM     31  C   LIG    1       -2.353  -8.995  15.602  0.00  0.00    +0.007 C 
ATOM     32  C   LIG    1        1.935  -9.214  14.834  0.00  0.00    +0.009 C 
ATOM     33  C   LIG    1       -1.381  -7.989  15.819  0.00  0.00    -0.008 C 
ENDBRANCH   7  17
BRANCH   1  34
ATOM     34  O   LIG    1        1.920  -7.971   9.827  0.00  0.00    -0.450 OA
BRANCH  34  35
ATOM     35  C   LIG    1        3.064  -7.902   8.976  0.00  0.00    +0.473 C 
BRANCH  35  36
ATOM     36  O   LIG    1        2.816  -8.602   7.754  0.00  0.00    -0.397 OA
BRANCH  36  37
ATOM     37  C   LIG    1        2.078  -7.876   6.871  0.00  0.00    +0.513 C 
ATOM     38  O   LIG    1        1.667  -6.757   7.032  0.00  0.00    -0.203 OA
BRANCH  37  40
ATOM     39  C   LIG    1        1.085  -8.056   4.744  0.00  0.00    +0.284 C 
ATOM     40  O   LIG    1        1.888  -8.648   5.765  0.00  0.00    -0.437 OA
ENDBRANCH  37  40
ENDBRANCH  36  37
ENDBRANCH  35  36
ENDBRANCH  34  35
ENDBRANCH   1  34
TORSDOF 6
