REMARK  Name = *****
REMARK                            x       y       z     vdW  Elec       q    Type
REMARK                         _______ _______ _______ _____ _____    ______ ____
ROOT
ATOM      1  O   LIG    1        6.516  -4.365   3.548  0.00  0.00    -0.350 OA
ENDROOT
BRANCH   1   2
ATOM      2  C   LIG    1        5.497  -3.391   3.283  0.00  0.00    +0.183 C 
BRANCH   2   3
ATOM      3  C   LIG    1        5.876  -2.089   4.031  0.00  0.00    +0.266 C 
BRANCH   3   4
ATOM      4  O   LIG    1        6.087  -2.396   5.426  0.00  0.00    -0.461 OA
BRANCH   4   5
ATOM      5  C   LIG    1        4.955  -2.797   6.098  0.00  0.00    +0.324 C 
ATOM      6  O   LIG    1        3.880  -2.227   6.014  0.00  0.00    -0.249 OA
BRANCH   5   7
ATOM      7  C   LIG    1        5.240  -4.148   6.805  0.00  0.00    +0.163 C 
BRANCH   7   9
ATOM      8  C   LIG    1        4.488  -6.149   8.192  0.00  0.00    +0.009 C 
ATOM      9  C   LIG    1        4.085  -4.818   7.530  0.00  0.00    +0.011 C 
ATOM     10  C   LIG    1        2.968  -5.090   6.522  0.00  0.00    +0.009 C 
ENDBRANCH   7   9
BRANCH   7  11
ATOM     11  N   LIG    1        6.370  -3.903   7.691  0.00  0.00    -0.318 NA
ATOM     12  H   LIG    1        7.062  -3.824   6.949  0.00  0.00    +0.119 HD
ATOM     13  H   LIG    1        6.672  -4.765   8.148  0.00  0.00    +0.119 HD
ENDBRANCH   7  11
ENDBRANCH   5   7
ENDBRANCH   4   5
ENDBRANCH   3   4
ENDBRANCH   2   3
BRANCH   2  14
ATOM     14  C   LIG    1        5.323  -3.193   1.775  0.00  0.00    +0.191 C 
BRANCH  14  15
ATOM     15  O   LIG    1        6.505  -2.784   1.097  0.00  0.00    -0.392 OA
ATOM     16  H   LIG    1        7.209  -2.586   1.739  0.00  0.00    +0.209 HD
ENDBRANCH  14  15
ENDBRANCH   2  14
ENDBRANCH   1   2
BRANCH   1  17
ATOM     17  C   LIG    1        6.246  -5.691   3.084  0.00  0.00    +0.287 C 
BRANCH  17  18
ATOM     18  N   LIG    1        7.263  -6.603   3.587  0.00  0.00    -0.291 N 
ATOM     19  C   LIG    1        8.022  -6.450   4.716  0.00  0.00    +0.171 A 
ATOM     20  N   LIG    1        7.906  -5.475   5.648  0.00  0.00    -0.196 NA
ATOM     21  C   LIG    1        8.935  -5.358   6.429  0.00  0.00    +0.195 C 
ATOM     22  N   LIG    1       10.030  -6.205   6.386  0.00  0.00    -0.293 N 
ATOM     23  H   LIG    1       10.787  -6.049   6.996  0.00  0.00    +0.172 HD
ATOM     24  C   LIG    1       10.146  -7.234   5.474  0.00  0.00    +0.280 C 
ATOM     25  O   LIG    1       11.181  -7.930   5.447  0.00  0.00    -0.265 OA
ATOM     26  C   LIG    1        9.042  -7.365   4.570  0.00  0.00    +0.172 A 
ATOM     27  N   LIG    1        8.846  -8.173   3.477  0.00  0.00    -0.229 NA
ATOM     28  C   LIG    1        7.758  -7.694   2.907  0.00  0.00    +0.203 A 
BRANCH  21  29
ATOM     29  N   LIG    1        9.046  -4.371   7.358  0.00  0.00    -0.329 N 
ATOM     30  H   LIG    1        9.960  -4.128   7.698  0.00  0.00    +0.145 HD
ATOM     31  H   LIG    1        8.545  -3.508   7.186  0.00  0.00    +0.145 HD
ENDBRANCH  21  29
ENDBRANCH  17  18
ENDBRANCH   1  17
TORSDOF 12
