REMARK  Name = *****
REMARK                            x       y       z     vdW  Elec       q    Type
REMARK                         _______ _______ _______ _____ _____    ______ ____
ROOT
ATOM      1  C   LIG    1       -1.893  -0.037   0.753  0.00  0.00    +0.008 C 
ATOM      2  C   LIG    1       -3.135  -0.482  -0.016  0.00  0.00    -0.003 C 
ATOM      3  C   LIG    1       -3.131   0.030  -1.479  0.00  0.00    +0.067 C 
ATOM      4  C   LIG    1       -3.728  -1.145  -2.303  0.00  0.00    -0.017 C 
ATOM      5  C   LIG    1       -5.274  -1.171  -2.200  0.00  0.00    +0.012 C 
ATOM      6  C   LIG    1       -3.129  -2.389  -1.583  0.00  0.00    -0.000 C 
ATOM      7  C   LIG    1       -1.660  -2.699  -1.983  0.00  0.00    +0.002 C 
ATOM      8  C   LIG    1       -1.473  -2.854  -3.510  0.00  0.00    +0.035 C 
ATOM      9  C   LIG    1       -1.950  -1.535  -4.167  0.00  0.00    +0.119 C 
ATOM     10  C   LIG    1       -1.915  -4.255  -4.136  0.00  0.00    +0.016 C 
ATOM     11  C   LIG    1       -1.062  -4.498  -5.417  0.00  0.00    +0.020 C 
ATOM     12  C   LIG    1       -1.664  -5.453  -3.176  0.00  0.00    -0.023 C 
ATOM     13  C   LIG    1       -2.089  -6.683  -3.557  0.00  0.00    +0.053 C 
ATOM     14  C   LIG    1       -3.588  -6.656  -3.735  0.00  0.00    +0.179 C 
ATOM     15  O   LIG    1       -4.287  -7.629  -3.483  0.00  0.00    -0.288 OA
ATOM     16  C   LIG    1       -4.156  -5.421  -4.344  0.00  0.00    +0.047 C 
ATOM     17  C   LIG    1       -1.711  -5.205  -1.687  0.00  0.00    +0.193 C 
ATOM     18  F   LIG    1       -1.054  -6.208  -1.031  0.00  0.00    -0.241 F 
ATOM     19  C   LIG    1       -3.378  -4.345  -4.564  0.00  0.00    -0.012 C 
ATOM     20  C   LIG    1       -1.043  -3.911  -1.283  0.00  0.00    +0.045 C 
ATOM     21  C   LIG    1       -3.369  -1.101  -3.798  0.00  0.00    +0.039 C 
ATOM     22  C   LIG    1       -3.253  -2.014  -0.095  0.00  0.00    +0.008 C 
ENDROOT
BRANCH   3  23
ATOM     23  C   LIG    1       -3.868   1.369  -1.621  0.00  0.00    +0.162 C 
ATOM     24  O   LIG    1       -4.773   1.718  -0.860  0.00  0.00    -0.295 OA
BRANCH  23  25
ATOM     25  C   LIG    1       -3.471   2.267  -2.790  0.00  0.00    +0.230 C 
BRANCH  25  26
ATOM     26  O   LIG    1       -3.734   3.635  -2.526  0.00  0.00    -0.388 OA
ATOM     27  H   LIG    1       -4.599   3.664  -2.069  0.00  0.00    +0.210 HD
ENDBRANCH  25  26
ENDBRANCH  23  25
ENDBRANCH   3  23
BRANCH   9  28
ATOM     28  O   LIG    1       -1.838  -1.581  -5.580  0.00  0.00    -0.391 OA
ATOM     29  H   LIG    1       -1.981  -0.685  -5.931  0.00  0.00    +0.210 HD
ENDBRANCH   9  28
TORSDOF 4
