REMARK  Name = *****
REMARK                            x       y       z     vdW  Elec       q    Type
REMARK                         _______ _______ _______ _____ _____    ______ ____
ROOT
ATOM      1  C   LIG    1        3.329   0.400  -1.308  0.00  0.00    +0.125 C 
ATOM      2  C   LIG    1        2.112   1.322  -1.713  0.00  0.00    +0.104 C 
ATOM      3  N   LIG    1        3.059   2.464  -1.567  0.00  0.00    -0.260 N 
ATOM      4  C   LIG    1        2.585   3.333  -0.595  0.00  0.00    +0.131 C 
ATOM      5  C   LIG    1        1.316   3.037  -0.246  0.00  0.00    +0.019 C 
ATOM      6  C   LIG    1        0.898   1.705  -0.847  0.00  0.00    +0.046 C 
ATOM      7  C   LIG    1        0.603   0.615   0.179  0.00  0.00    +0.015 C 
ATOM      8  C   LIG    1        4.161   1.685  -1.410  0.00  0.00    +0.228 C 
ATOM      9  O   LIG    1        5.310   2.016  -1.223  0.00  0.00    -0.275 OA
ENDROOT
BRANCH   1  11
ATOM     10  C   LIG    1        5.183  -1.157  -2.014  0.00  0.00    +0.038 C 
ATOM     11  C   LIG    1        3.739  -0.720  -2.249  0.00  0.00    +0.125 C 
BRANCH  11  12
ATOM     12  O   LIG    1        2.865  -1.825  -2.025  0.00  0.00    -0.391 OA
ATOM     13  H   LIG    1        3.177  -2.317  -1.244  0.00  0.00    +0.210 HD
ENDBRANCH  11  12
ENDBRANCH   1  11
BRANCH   4  14
ATOM     14  C   LIG    1        3.423   4.416   0.016  0.00  0.00    +0.352 C 
ATOM     15  O   LIG    1        2.961   5.364   0.633  0.00  0.00    -0.244 OA
BRANCH  14  16
ATOM     16  O   LIG    1        4.759   4.289  -0.134  0.00  0.00    -0.476 OA
ATOM     17  H   LIG    1        5.105   3.490  -0.591  0.00  0.00    +0.295 HD
ENDBRANCH  14  16
ENDBRANCH   4  14
BRANCH   5  18
ATOM     18  S   LIG    1        0.285   3.855   0.880  0.00  0.00    -0.122 S 
BRANCH  18  19
ATOM     19  C   LIG    1       -0.584   5.099  -0.162  0.00  0.00    +0.066 C 
ATOM     20  C   LIG    1       -1.480   4.453  -1.207  0.00  0.00    +0.036 C 
ATOM     21  C   LIG    1       -2.663   5.408  -1.375  0.00  0.00    +0.070 C 
ATOM     22  N   LIG    1       -2.875   5.926  -0.017  0.00  0.00    -0.311 NA
ATOM     23  H   LIG    1       -3.291   6.858  -0.051  0.00  0.00    +0.122 HD
ATOM     24  C   LIG    1       -1.558   5.975   0.645  0.00  0.00    +0.095 C 
BRANCH  21  25
ATOM     25  C   LIG    1       -3.921   4.693  -1.922  0.00  0.00    +0.125 C 
BRANCH  25  26
ATOM     26  N   LIG    1       -3.720   4.071  -3.259  0.00  0.00    -0.179 NA
ATOM     27  H   LIG    1       -4.433   3.374  -3.485  0.00  0.00    +0.149 HD
BRANCH  26  28
ATOM     28  S   LIG    1       -3.454   5.062  -4.570  0.00  0.00    +0.092 S 
ATOM     29  O   LIG    1       -4.251   6.268  -4.463  0.00  0.00    -0.141 OA
ATOM     30  O   LIG    1       -3.408   4.247  -5.745  0.00  0.00    -0.141 OA
BRANCH  28  31
ATOM     31  N   LIG    1       -1.891   5.480  -4.222  0.00  0.00    -0.193 NA
ATOM     32  H   LIG    1       -1.701   6.438  -4.504  0.00  0.00    +0.145 HD
ATOM     33  H   LIG    1       -1.254   4.789  -4.615  0.00  0.00    +0.145 HD
ENDBRANCH  28  31
ENDBRANCH  26  28
ENDBRANCH  25  26
ENDBRANCH  21  25
ENDBRANCH  18  19
ENDBRANCH   5  18
TORSDOF 10
