REMARK  Name = *****
REMARK                            x       y       z     vdW  Elec       q    Type
REMARK                         _______ _______ _______ _____ _____    ______ ____
ROOT
ATOM      1  O   LIG    1        4.932   2.473  -4.101  0.00  0.00    -0.186 OA
ENDROOT
BRANCH   1   2
ATOM      2  P   LIG    1        6.344   1.804  -4.347  0.00  0.00    +0.483 P 
ATOM      3  O   LIG    1        6.501   0.411  -3.838  0.00  0.00    -0.227 OA
BRANCH   2   4
ATOM      4  O   LIG    1        7.388   2.818  -3.674  0.00  0.00    -0.302 OA
ATOM      5  H   LIG    1        7.695   2.520  -2.797  0.00  0.00    +0.222 HD
ENDBRANCH   2   4
BRANCH   2   6
ATOM      6  O   LIG    1        6.670   1.960  -5.915  0.00  0.00    -0.284 OA
BRANCH   6   7
ATOM      7  C   LIG    1        7.896   1.382  -6.357  0.00  0.00    +0.206 C 
BRANCH   7   8
ATOM      8  C   LIG    1        8.150   1.702  -7.837  0.00  0.00    +0.178 C 
ATOM      9  C   LIG    1        9.448   1.087  -8.363  0.00  0.00    +0.178 C 
ATOM     10  C   LIG    1       10.485   2.143  -8.010  0.00  0.00    +0.195 C 
ATOM     11  C   LIG    1        9.691   3.446  -8.197  0.00  0.00    +0.253 C 
ATOM     12  O   LIG    1        8.298   3.130  -7.979  0.00  0.00    -0.346 OA
BRANCH  11  13
ATOM     13  N   LIG    1       10.044   4.528  -7.298  0.00  0.00    -0.285 N 
ATOM     14  C   LIG    1       10.032   5.861  -7.616  0.00  0.00    +0.167 A 
ATOM     15  N   LIG    1        9.690   6.434  -8.782  0.00  0.00    -0.216 NA
ATOM     16  C   LIG    1        9.787   7.777  -8.704  0.00  0.00    +0.225 A 
ATOM     17  N   LIG    1       10.188   8.534  -7.659  0.00  0.00    -0.219 NA
ATOM     18  C   LIG    1       10.550   7.907  -6.519  0.00  0.00    +0.147 A 
ATOM     19  C   LIG    1       10.451   6.507  -6.463  0.00  0.00    +0.147 A 
ATOM     20  N   LIG    1       10.684   5.604  -5.448  0.00  0.00    -0.231 NA
ATOM     21  C   LIG    1       10.405   4.433  -5.978  0.00  0.00    +0.203 A 
BRANCH  18  22
ATOM     22  N   LIG    1       10.984   8.678  -5.446  0.00  0.00    -0.341 N 
ATOM     23  H   LIG    1       10.904   8.200  -4.556  0.00  0.00    +0.144 HD
ATOM     24  H   LIG    1       10.645   9.629  -5.503  0.00  0.00    +0.144 HD
ENDBRANCH  18  22
ENDBRANCH  11  13
BRANCH  10  25
ATOM     25  O   LIG    1       11.635   2.043  -8.845  0.00  0.00    -0.385 OA
ATOM     26  H   LIG    1       11.304   1.746  -9.719  0.00  0.00    +0.210 HD
ENDBRANCH  10  25
BRANCH   9  27
ATOM     27  O   LIG    1        9.433   0.966  -9.795  0.00  0.00    -0.386 OA
ATOM     28  H   LIG    1        8.787   0.277 -10.034  0.00  0.00    +0.210 HD
ENDBRANCH   9  27
ENDBRANCH   7   8
ENDBRANCH   6   7
ENDBRANCH   2   6
ENDBRANCH   1   2
BRANCH   1  29
ATOM     29  P   LIG    1        3.429   1.627  -3.973  0.00  0.00    +0.483 P 
ATOM     30  O   LIG    1        2.675   2.893  -4.374  0.00  0.00    -0.227 OA
BRANCH  29  31
ATOM     31  O   LIG    1        3.522   1.706  -2.346  0.00  0.00    -0.302 OA
ATOM     32  H   LIG    1        3.035   2.508  -2.070  0.00  0.00    +0.222 HD
ENDBRANCH  29  31
BRANCH  29  33
ATOM     33  O   LIG    1        1.925   0.780  -3.845  0.00  0.00    -0.284 OA
BRANCH  33  34
ATOM     34  C   LIG    1        2.075  -0.591  -3.490  0.00  0.00    +0.206 C 
BRANCH  34  38
ATOM     35  C   LIG    1        2.210  -3.531  -5.005  0.00  0.00    +0.241 C 
ATOM     36  C   LIG    1        1.408  -2.547  -5.887  0.00  0.00    +0.193 C 
ATOM     37  C   LIG    1        2.310  -1.332  -5.922  0.00  0.00    +0.178 C 
ATOM     38  C   LIG    1        2.914  -1.345  -4.525  0.00  0.00    +0.178 C 
ATOM     39  O   LIG    1        3.032  -2.717  -4.133  0.00  0.00    -0.348 OA
BRANCH  35  44
ATOM     40  C   LIG    1       -0.663  -5.765  -3.985  0.00  0.00    +0.032 C 
ATOM     41  C   LIG    1       -0.225  -6.309  -2.656  0.00  0.00    +0.070 C 
ATOM     42  C   LIG    1        1.119  -5.801  -2.215  0.00  0.00    -0.007 C 
ATOM     43  C   LIG    1        1.819  -4.951  -2.980  0.00  0.00    +0.073 C 
ATOM     44  N   LIG    1        1.361  -4.445  -4.198  0.00  0.00    -0.285 N 
ATOM     45  C   LIG    1        0.126  -4.920  -4.667  0.00  0.00    +0.086 C 
BRANCH  40  49
ATOM     46  N   LIG    1       -2.745  -6.981  -3.808  0.00  0.00    -0.326 N 
ATOM     47  H   LIG    1       -2.462  -7.387  -2.934  0.00  0.00    +0.145 HD
ATOM     48  H   LIG    1       -3.660  -7.214  -4.168  0.00  0.00    +0.145 HD
ATOM     49  C   LIG    1       -1.992  -6.121  -4.558  0.00  0.00    +0.239 C 
ATOM     50  O   LIG    1       -2.416  -5.680  -5.606  0.00  0.00    -0.271 OA
ENDBRANCH  40  49
ENDBRANCH  35  44
BRANCH  37  51
ATOM     51  O   LIG    1        3.330  -1.556  -6.913  0.00  0.00    -0.386 OA
ATOM     52  H   LIG    1        3.849  -0.736  -6.998  0.00  0.00    +0.210 HD
ENDBRANCH  37  51
BRANCH  36  53
ATOM     53  O   LIG    1        1.151  -3.021  -7.210  0.00  0.00    -0.385 OA
ATOM     54  H   LIG    1        1.979  -2.877  -7.711  0.00  0.00    +0.210 HD
ENDBRANCH  36  53
ENDBRANCH  34  38
ENDBRANCH  33  34
ENDBRANCH  29  33
ENDBRANCH   1  29
TORSDOF 18
