REMARK  Name = *****
REMARK                            x       y       z     vdW  Elec       q    Type
REMARK                         _______ _______ _______ _____ _____    ______ ____
ROOT
ATOM      1  C   LIG    1        1.051   1.102  -2.054  0.00  0.00    -0.011 A 
ATOM      2  C   LIG    1        1.552  -0.024  -2.744  0.00  0.00    +0.043 A 
ATOM      3  C   LIG    1        0.895  -0.446  -3.919  0.00  0.00    +0.040 A 
ATOM      4 BR   LIG    1        1.560  -1.906  -4.937  0.00  0.00    -0.048 Br
ATOM      5  C   LIG    1       -0.281   0.168  -4.350  0.00  0.00    +0.032 A 
ATOM      6  C   LIG    1       -0.795   1.240  -3.632  0.00  0.00    +0.019 A 
ATOM      7 BR   LIG    1       -2.399   2.069  -4.195  0.00  0.00    -0.050 Br
ATOM      8  C   LIG    1       -0.136   1.716  -2.499  0.00  0.00    +0.022 A 
ENDROOT
BRANCH   2   9
ATOM      9  N   LIG    1        2.796  -0.579  -2.367  0.00  0.00    -0.357 N 
ATOM     10  H   LIG    1        2.947  -0.472  -1.355  0.00  0.00    +0.142 HD
ATOM     11  H   LIG    1        2.885  -1.545  -2.655  0.00  0.00    +0.142 HD
ENDBRANCH   2   9
BRANCH   1  12
ATOM     12  C   LIG    1        1.738   1.660  -0.813  0.00  0.00    +0.121 C 
BRANCH  12  14
ATOM     13  C   LIG    1        0.538   0.255   0.754  0.00  0.00    +0.105 C 
ATOM     14  N   LIG    1        1.854   0.675   0.287  0.00  0.00    -0.298 NA
BRANCH  14  15
ATOM     15  C   LIG    1        2.820   1.106   1.328  0.00  0.00    +0.057 C 
ATOM     16  C   LIG    1        2.563   2.448   2.046  0.00  0.00    +0.019 C 
ATOM     17  C   LIG    1        1.618   2.362   3.239  0.00  0.00    +0.002 C 
ATOM     18  C   LIG    1        2.090   1.324   4.247  0.00  0.00    +0.000 C 
ATOM     19  C   LIG    1        2.284  -0.045   3.611  0.00  0.00    +0.002 C 
ATOM     20  C   LIG    1        3.159  -0.002   2.356  0.00  0.00    +0.019 C 
ENDBRANCH  14  15
ENDBRANCH  12  14
ENDBRANCH   1  12
TORSDOF 4
