REMARK  Name = *****
REMARK                            x       y       z     vdW  Elec       q    Type
REMARK                         _______ _______ _______ _____ _____    ______ ____
ROOT
ATOM      1  C   LIG    1        0.028   3.706   0.168  0.00  0.00    +0.213 C 
ENDROOT
BRANCH   1   2
ATOM      2  C   LIG    1        0.728   4.533   1.243  0.00  0.00    -0.025 A 
ATOM      3  C   LIG    1        1.587   3.986   2.209  0.00  0.00    +0.005 A 
ATOM      4  C   LIG    1        2.190   4.798   3.174  0.00  0.00    +0.000 A 
ATOM      5  C   LIG    1        1.955   6.169   3.183  0.00  0.00    +0.000 A 
ATOM      6  C   LIG    1        1.125   6.734   2.220  0.00  0.00    +0.000 A 
ATOM      7  C   LIG    1        0.521   5.925   1.256  0.00  0.00    +0.005 A 
ENDBRANCH   1   2
BRANCH   1  10
ATOM      8  N   LIG    1        2.002   2.805  -0.995  0.00  0.00    -0.301 N 
ATOM      9  H   LIG    1        2.317   2.509  -0.075  0.00  0.00    +0.150 HD
ATOM     10  C   LIG    1        0.850   3.557  -1.099  0.00  0.00    +0.232 C 
ATOM     11  O   LIG    1        0.489   4.035  -2.175  0.00  0.00    -0.275 OA
BRANCH   8  17
ATOM     12  C   LIG    1        5.387   4.526   0.179  0.00  0.00    +0.025 C 
ATOM     13  C   LIG    1        5.413   5.018  -1.282  0.00  0.00    +0.042 C 
ATOM     14  CA  LIG    1        5.973   3.933  -2.236  0.00  0.00    +0.201 C 
ATOM     15  N   LIG    1        4.846   3.094  -2.679  0.00  0.00    -0.271 N 
ATOM     16  C   LIG    1        3.549   3.793  -2.834  0.00  0.00    +0.165 C 
ATOM     17  CA  LIG    1        2.871   2.563  -2.175  0.00  0.00    +0.190 C 
ATOM     18  C   LIG    1        4.322   2.130  -1.866  0.00  0.00    +0.240 C 
ATOM     19  O   LIG    1        4.872   1.375  -1.086  0.00  0.00    -0.273 OA
ATOM     20  S   LIG    1        3.680   5.321  -1.824  0.00  0.00    -0.127 S 
ATOM     21  C   LIG    1        6.146   6.363  -1.306  0.00  0.00    +0.025 C 
BRANCH  14  22
ATOM     22  C   LIG    1        6.678   4.452  -3.505  0.00  0.00    +0.327 C 
ATOM     23  O   LIG    1        7.415   5.424  -3.562  0.00  0.00    -0.249 OA
BRANCH  22  24
ATOM     24  OXT LIG    1        6.520   3.644  -4.586  0.00  0.00    -0.479 OA
ATOM     25  HXT LIG    1        5.950   2.876  -4.378  0.00  0.00    +0.295 HD
ENDBRANCH  22  24
ENDBRANCH  14  22
ENDBRANCH   8  17
ENDBRANCH   1  10
BRANCH   1  26
ATOM     26  C   LIG    1       -0.470   2.341   0.587  0.00  0.00    +0.329 C 
ATOM     27  O   LIG    1        0.117   1.569   1.335  0.00  0.00    -0.249 OA
BRANCH  26  28
ATOM     28  O   LIG    1       -1.640   2.062  -0.130  0.00  0.00    -0.425 OA
BRANCH  28  29
ATOM     29  C   LIG    1       -2.289   0.807  -0.186  0.00  0.00    +0.132 A 
ATOM     30  C   LIG    1       -1.753  -0.372   0.328  0.00  0.00    +0.050 A 
ATOM     31  C   LIG    1       -2.456  -1.544   0.119  0.00  0.00    -0.041 A 
ATOM     32  C   LIG    1       -2.048  -2.931   0.504  0.00  0.00    +0.036 C 
ATOM     33  C   LIG    1       -3.377  -3.681   0.345  0.00  0.00    +0.009 C 
ATOM     34  C   LIG    1       -4.165  -2.952  -0.753  0.00  0.00    +0.036 C 
ATOM     35  C   LIG    1       -3.661  -1.552  -0.592  0.00  0.00    -0.044 A 
ATOM     36  C   LIG    1       -4.199  -0.384  -1.103  0.00  0.00    +0.007 A 
ATOM     37  C   LIG    1       -3.506   0.809  -0.890  0.00  0.00    +0.046 A 
ENDBRANCH  28  29
ENDBRANCH  26  28
ENDBRANCH   1  26
TORSDOF 8
