REMARK  Name = *****
REMARK                            x       y       z     vdW  Elec       q    Type
REMARK                         _______ _______ _______ _____ _____    ______ ____
ROOT
ATOM      1  N   UNK A  0       18.912   8.134  -5.758  0.00  0.00    -0.342 N 
ATOM      2  H   UNK A  0       19.130   7.319  -6.328  0.00  0.00    +0.146 HD
ENDROOT
BRANCH   1   3
ATOM      3  C   UNK A  0       19.038   7.857  -4.393  0.00  0.00    +0.027 A 
ATOM      4  C   UNK A  0       19.069   6.526  -3.956  0.00  0.00    +0.024 A 
ATOM      5  C   UNK A  0       19.106   6.213  -2.588  0.00  0.00    +0.015 A 
ATOM      6  C   UNK A  0       19.079   7.233  -1.631  0.00  0.00    +0.037 A 
ATOM      7  C   UNK A  0       19.045   8.559  -2.054  0.00  0.00    +0.015 A 
ATOM      8  C   UNK A  0       19.001   8.859  -3.417  0.00  0.00    +0.024 A 
BRANCH   6   9
ATOM      9  C   UNK A  0       19.043   6.856  -0.182  0.00  0.00    +0.245 C 
ATOM     10  N   GLU A  1       18.382   7.724   0.664  0.00  0.00    -0.298 N 
ATOM     11  H   GLU A  1       18.149   8.654   0.352  0.00  0.00    +0.150 HD
ATOM     12  O   UNK A  0       19.550   5.819   0.198  0.00  0.00    -0.270 OA
BRANCH  10  13
ATOM     13  CA  GLU A  1       18.305   7.458   2.098  0.00  0.00    +0.182 C 
BRANCH  13  14
ATOM     14  C   GLU A  1       19.474   8.161   2.815  0.00  0.00    +0.325 C 
ATOM     15  O   GLU A  1       19.961   9.219   2.461  0.00  0.00    -0.249 OA
BRANCH  14  16
ATOM     16  OXT GLU A  1       19.872   7.531   3.954  0.00  0.00    -0.479 OA
ATOM     17  HXT GLU A  1       19.436   6.675   4.121  0.00  0.00    +0.295 HD
ENDBRANCH  14  16
ENDBRANCH  13  14
BRANCH  13  18
ATOM     18  CB  GLU A  1       16.981   7.966   2.687  0.00  0.00    +0.045 C 
BRANCH  18  19
ATOM     19  CG  GLU A  1       15.752   7.313   2.064  0.00  0.00    +0.123 C 
BRANCH  19  20
ATOM     20  CD  GLU A  1       14.487   7.813   2.714  0.00  0.00    +0.305 C 
ATOM     21  OE1 GLU A  1       14.396   8.588   3.648  0.00  0.00    -0.251 OA
BRANCH  20  22
ATOM     22  OE2 GLU A  1       13.374   7.290   2.141  0.00  0.00    -0.481 OA
ATOM     23  HE2 GLU A  1       12.638   7.698   2.644  0.00  0.00    +0.295 HD
ENDBRANCH  20  22
ENDBRANCH  19  20
ENDBRANCH  18  19
ENDBRANCH  13  18
ENDBRANCH  10  13
ENDBRANCH   6   9
ENDBRANCH   1   3
BRANCH   1  24
ATOM     24  C   UNK A  0       19.517   9.362  -6.296  0.00  0.00    +0.126 C 
BRANCH  24  32
ATOM     25  C   UNK A  0       20.148   9.789 -11.551  0.00  0.00    +0.195 C 
ATOM     26  N   UNK A  0       20.212   8.445 -11.427  0.00  0.00    -0.294 N 
ATOM     27  H   UNK A  0       20.128   7.866 -12.246  0.00  0.00    +0.172 HD
ATOM     28  C   UNK A  0       20.790   7.860 -10.341  0.00  0.00    +0.276 C 
ATOM     29  O   UNK A  0       21.179   6.701 -10.408  0.00  0.00    -0.266 OA
ATOM     30  C   UNK A  0       20.922   8.732  -9.132  0.00  0.00    +0.142 C 
ATOM     31  N   UNK A  0       21.155   8.228  -7.836  0.00  0.00    -0.261 N 
ATOM     32  C   UNK A  0       21.009   9.188  -6.701  0.00  0.00    +0.115 C 
ATOM     33  C   UNK A  0       21.588  10.564  -7.084  0.00  0.00    +0.127 C 
ATOM     34  N   UNK A  0       20.988  10.982  -8.340  0.00  0.00    -0.326 N 
ATOM     35  H   UNK A  0       21.268  11.887  -8.710  0.00  0.00    +0.148 HD
ATOM     36  C   UNK A  0       21.388   6.901  -7.517  0.00  0.00    +0.333 C 
ATOM     37  O   UNK A  0       21.549   6.468  -6.378  0.00  0.00    -0.279 OA
ATOM     38  C   UNK A  0       20.800  10.068  -9.373  0.00  0.00    +0.149 C 
ATOM     39  N   UNK A  0       20.471  10.594 -10.596  0.00  0.00    -0.199 NA
BRANCH  25  40
ATOM     40  N   UNK A  0       19.715  10.264 -12.743  0.00  0.00    -0.329 N 
ATOM     41  H   UNK A  0       18.976   9.732 -13.186  0.00  0.00    +0.145 HD
ATOM     42  H   UNK A  0       19.487  11.253 -12.685  0.00  0.00    +0.145 HD
ENDBRANCH  25  40
ENDBRANCH  24  32
ENDBRANCH   1  24
TORSDOF 12
