REMARK  Name = *****
REMARK                            x       y       z     vdW  Elec       q    Type
REMARK                         _______ _______ _______ _____ _____    ______ ____
ROOT
ATOM      1  C   LIG    1        2.476   0.499   0.228  0.00  0.00    +0.000 A 
ATOM      2  C   LIG    1        1.329   1.286   0.316  0.00  0.00    +0.004 A 
ATOM      3  C   LIG    1        0.056   0.724   0.136  0.00  0.00    -0.043 A 
ATOM      4  C   LIG    1       -1.155   1.610   0.289  0.00  0.00    +0.035 C 
ATOM      5  C   LIG    1       -2.414   1.025  -0.339  0.00  0.00    +0.006 C 
ATOM      6  C   LIG    1       -2.608  -0.425   0.089  0.00  0.00    +0.020 C 
ATOM      7  C   LIG    1       -1.420  -1.317  -0.306  0.00  0.00    +0.134 C 
ATOM      8  C   LIG    1       -0.064  -0.656  -0.118  0.00  0.00    -0.030 A 
ATOM      9  C   LIG    1        1.103  -1.437  -0.198  0.00  0.00    +0.005 A 
ATOM     10  C   LIG    1        2.363  -0.863  -0.029  0.00  0.00    +0.000 A 
ENDROOT
BRANCH   7  11
ATOM     11  C   LIG    1       -1.602  -1.859  -1.722  0.00  0.00    +0.288 C 
ATOM     12  N   LIG    1       -1.563  -3.212  -1.973  0.00  0.00    -0.233 N 
ATOM     13  H   LIG    1       -0.999  -3.790  -1.363  0.00  0.00    +0.291 HD
ATOM     14  C   LIG    1       -1.413  -3.388  -3.398  0.00  0.00    +0.272 C 
ATOM     15  C   LIG    1       -1.883  -2.026  -3.913  0.00  0.00    +0.333 C 
ATOM     16  N   LIG    1       -1.773  -1.084  -2.765  0.00  0.00    -0.083 NA
ENDBRANCH   7  11
TORSDOF 1
