REMARK  Name = *****
REMARK                            x       y       z     vdW  Elec       q    Type
REMARK                         _______ _______ _______ _____ _____    ______ ____
ROOT
ATOM      1  N   LIG    1        5.822   2.534  -2.804  0.00  0.00    -0.288 N 
ATOM      2  C   LIG    1        6.178   3.726  -3.403  0.00  0.00    +0.162 A 
ATOM      3  N   LIG    1        5.769   4.908  -2.885  0.00  0.00    -0.221 NA
ATOM      4  C   LIG    1        5.958   6.008  -3.532  0.00  0.00    +0.183 C 
ATOM      5  N   LIG    1        6.519   6.335  -4.742  0.00  0.00    -0.332 N 
ATOM      6  H   LIG    1        6.351   7.289  -5.048  0.00  0.00    +0.147 HD
ATOM      7  C   LIG    1        6.678   5.396  -5.855  0.00  0.00    +0.140 C 
ATOM      8  C   LIG    1        7.594   4.213  -5.498  0.00  0.00    +0.183 C 
ATOM      9  C   LIG    1        6.947   3.332  -4.488  0.00  0.00    +0.115 A 
ATOM     10  N   LIG    1        7.041   1.959  -4.567  0.00  0.00    -0.236 NA
ATOM     11  C   LIG    1        6.364   1.515  -3.533  0.00  0.00    +0.203 A 
ENDROOT
BRANCH   1  15
ATOM     12  C4* LIG    1        3.617   0.659  -0.928  0.00  0.00    +0.175 C 
ATOM     13  C3* LIG    1        2.844   1.967  -0.817  0.00  0.00    +0.150 C 
ATOM     14  C2* LIG    1        3.604   2.916  -1.707  0.00  0.00    +0.088 C 
ATOM     15  C1* LIG    1        5.039   2.417  -1.586  0.00  0.00    +0.225 C 
ATOM     16  O4* LIG    1        4.996   1.038  -1.139  0.00  0.00    -0.348 OA
BRANCH  13  17
ATOM     17  O3* LIG    1        2.890   2.455   0.531  0.00  0.00    -0.389 OA
ATOM     18  H3* LIG    1        3.796   2.342   0.871  0.00  0.00    +0.210 HD
ENDBRANCH  13  17
BRANCH  12  19
ATOM     19  C5* LIG    1        3.153  -0.257  -2.068  0.00  0.00    +0.190 C 
BRANCH  19  20
ATOM     20  O5* LIG    1        3.146   0.417  -3.321  0.00  0.00    -0.392 OA
ATOM     21  H5* LIG    1        3.090  -0.263  -4.016  0.00  0.00    +0.209 HD
ENDBRANCH  19  20
ENDBRANCH  12  19
ENDBRANCH   1  15
BRANCH   8  22
ATOM     22  O   LIG    1        8.858   4.720  -5.041  0.00  0.00    -0.384 OA
ATOM     23  H   LIG    1        8.644   5.204  -4.222  0.00  0.00    +0.210 HD
ENDBRANCH   8  22
TORSDOF 5
