REMARK  Name = *****
REMARK                            x       y       z     vdW  Elec       q    Type
REMARK                         _______ _______ _______ _____ _____    ______ ____
ROOT
ATOM      1  C   LIG    1        1.452  -4.028  -3.086  0.00  0.00    +0.267 C 
ENDROOT
BRANCH   1   2
ATOM      2  C   LIG    1        1.657  -5.478  -2.721  0.00  0.00    -0.007 A 
ATOM      3  C   LIG    1        0.711  -6.172  -1.942  0.00  0.00    +0.053 A 
ATOM      4  C   LIG    1        0.875  -7.536  -1.682  0.00  0.00    +0.129 A 
ATOM      5  C   LIG    1        1.971  -8.212  -2.234  0.00  0.00    +0.046 A 
ATOM      6  C   LIG    1        2.953  -7.518  -2.934  0.00  0.00    +0.004 A 
ATOM      7  C   LIG    1        2.798  -6.156  -3.178  0.00  0.00    +0.007 A 
BRANCH   4   8
ATOM      8  O   LIG    1       -0.082  -8.171  -0.906  0.00  0.00    -0.456 OA
BRANCH   8   9
ATOM      9  C   LIG    1        0.332  -9.174  -0.045  0.00  0.00    +0.128 A 
ATOM     10  C   LIG    1       -0.569 -10.195   0.272  0.00  0.00    +0.046 A 
ATOM     11  C   LIG    1       -0.173 -11.232   1.129  0.00  0.00    +0.004 A 
ATOM     12  C   LIG    1        1.123 -11.261   1.647  0.00  0.00    +0.000 A 
ATOM     13  C   LIG    1        2.018 -10.245   1.335  0.00  0.00    +0.004 A 
ATOM     14  C   LIG    1        1.607  -9.188   0.532  0.00  0.00    +0.046 A 
ENDBRANCH   8   9
ENDBRANCH   4   8
ENDBRANCH   1   2
BRANCH   1  15
ATOM     15  O   LIG    1        2.077  -3.180  -2.115  0.00  0.00    -0.460 OA
BRANCH  15  16
ATOM     16  C   LIG    1        3.058  -2.358  -2.580  0.00  0.00    +0.312 C 
ATOM     17  O   LIG    1        3.488  -2.320  -3.712  0.00  0.00    -0.251 OA
BRANCH  16  20
ATOM     18  C   LIG    1        3.785   0.647  -3.072  0.00  0.00    +0.012 C 
ATOM     19  C   LIG    1        3.838   0.011  -1.702  0.00  0.00    -0.014 C 
ATOM     20  C   LIG    1        3.552  -1.473  -1.484  0.00  0.00    +0.111 C 
ATOM     21  C   LIG    1        4.979  -0.971  -1.469  0.00  0.00    +0.035 C 
ATOM     22  C   LIG    1        3.355   0.941  -0.612  0.00  0.00    +0.012 C 
BRANCH  21  23
ATOM     23  C   LIG    1        5.735  -0.900  -0.206  0.00  0.00    +0.010 C 
ATOM     24  C   LIG    1        6.842  -0.180   0.038  0.00  0.00    +0.103 C 
ATOM     25 CL   LIG    1        7.566  -0.205   1.607  0.00  0.00    -0.071 Cl
ATOM     26 CL   LIG    1        7.589   0.804  -1.167  0.00  0.00    -0.071 Cl
ENDBRANCH  21  23
ENDBRANCH  16  20
ENDBRANCH  15  16
ENDBRANCH   1  15
TORSDOF 7
