REMARK  Name = *****
REMARK                            x       y       z     vdW  Elec       q    Type
REMARK                         _______ _______ _______ _____ _____    ______ ____
ROOT
ATOM      1  C   LIG    1       -5.447   2.771   6.214  0.00  0.00    +0.082 C 
ATOM      2  C   LIG    1       -6.558   3.803   5.898  0.00  0.00    +0.143 C 
ATOM      3  O   LIG    1       -6.643   4.908   6.437  0.00  0.00    -0.297 OA
ATOM      4  C   LIG    1       -7.692   3.307   5.011  0.00  0.00    +0.106 C 
ATOM      5  C   LIG    1       -8.239   4.406   4.090  0.00  0.00    +0.128 C 
ATOM      6  C   LIG    1       -8.999   3.800   2.871  0.00  0.00    +0.060 C 
ATOM      7  C   LIG    1       -9.847   4.845   2.136  0.00  0.00    +0.014 C 
ATOM      8  C   LIG    1       -8.003   3.025   1.945  0.00  0.00    +0.207 C 
ATOM      9  O   LIG    1       -8.049   3.388   0.557  0.00  0.00    -0.455 OA
ATOM     10  C   LIG    1       -7.326   4.485   0.188  0.00  0.00    +0.328 C 
ATOM     11  O   LIG    1       -6.863   5.300   0.959  0.00  0.00    -0.249 OA
ATOM     12  C   LIG    1       -7.083   4.445  -1.317  0.00  0.00    +0.185 C 
ATOM     13  N   LIG    1       -5.934   3.624  -1.746  0.00  0.00    -0.281 N 
ATOM     14  C   LIG    1       -6.082   3.204  -3.135  0.00  0.00    +0.109 C 
ATOM     15  C   LIG    1       -6.192   4.438  -4.046  0.00  0.00    +0.019 C 
ATOM     16  C   LIG    1       -7.242   5.462  -3.573  0.00  0.00    +0.004 C 
ATOM     17  C   LIG    1       -4.593   3.716  -1.323  0.00  0.00    +0.288 C 
ATOM     18  O   LIG    1       -3.849   2.737  -1.362  0.00  0.00    -0.267 OA
ATOM     19  C   LIG    1       -3.940   5.065  -1.059  0.00  0.00    +0.276 C 
ATOM     20  O   LIG    1       -4.071   5.939  -1.918  0.00  0.00    -0.281 OA
ATOM     21  C   LIG    1       -2.964   5.211   0.163  0.00  0.00    +0.240 C 
ATOM     22  C   LIG    1       -3.789   5.415   1.446  0.00  0.00    +0.056 C 
ATOM     23  C   LIG    1       -3.392   6.650   2.274  0.00  0.00    +0.013 C 
ATOM     24  C   LIG    1       -3.977   4.160   2.309  0.00  0.00    +0.043 C 
ATOM     25  C   LIG    1       -3.218   2.920   1.849  0.00  0.00    +0.150 C 
ATOM     26  C   LIG    1       -1.850   3.297   1.278  0.00  0.00    +0.179 C 
ATOM     27  C   LIG    1       -0.641   3.530   2.264  0.00  0.00    +0.149 C 
ATOM     28  C   LIG    1       -0.897   4.311   3.581  0.00  0.00    +0.038 C 
ATOM     29  C   LIG    1       -1.048   3.434   4.854  0.00  0.00    -0.008 C 
ATOM     30  C   LIG    1        0.326   2.940   5.327  0.00  0.00    +0.008 C 
ATOM     31  C   LIG    1       -1.736   4.192   6.027  0.00  0.00    +0.033 C 
ATOM     32  C   LIG    1       -3.262   4.251   5.981  0.00  0.00    -0.076 C 
ATOM     33  C   LIG    1       -3.853   5.624   5.852  0.00  0.00    +0.038 C 
ATOM     34  O   LIG    1       -1.930   4.264   0.225  0.00  0.00    -0.334 OA
ATOM     35  C   LIG    1       -7.171   5.765  -2.067  0.00  0.00    +0.034 C 
ATOM     36  C   LIG    1       -3.972   3.113   6.136  0.00  0.00    -0.017 C 
ENDROOT
BRANCH   8  37
ATOM     37  C   LIG    1       -8.157   1.502   1.943  0.00  0.00    -0.036 C 
ATOM     38  C   LIG    1       -9.365   0.901   1.940  0.00  0.00    -0.021 C 
ATOM     39  C   LIG    1       -6.848   0.752   1.872  0.00  0.00    +0.042 C 
BRANCH  38  40
ATOM     40  C   LIG    1       -9.658  -0.584   1.992  0.00  0.00    +0.014 C 
ATOM     41  C   LIG    1      -10.942  -0.844   2.804  0.00  0.00    +0.042 C 
ATOM     42  C   LIG    1      -12.186  -1.152   1.956  0.00  0.00    +0.147 C 
ATOM     43  C   LIG    1      -12.173  -0.387   0.622  0.00  0.00    +0.143 C 
ATOM     44  C   LIG    1      -10.934  -0.679  -0.224  0.00  0.00    +0.034 C 
ATOM     45  C   LIG    1       -9.746  -1.192   0.589  0.00  0.00    +0.010 C 
BRANCH  42  46
ATOM     46  O   LIG    1      -13.406  -0.789   2.631  0.00  0.00    -0.377 OA
ATOM     47  C   LIG    1      -13.583  -1.428   3.890  0.00  0.00    +0.194 C 
ENDBRANCH  42  46
BRANCH  43  48
ATOM     48  O   LIG    1      -13.337  -0.724  -0.138  0.00  0.00    -0.389 OA
ATOM     49  H   LIG    1      -14.078  -0.669   0.498  0.00  0.00    +0.210 HD
ENDBRANCH  43  48
ENDBRANCH  38  40
ENDBRANCH   8  37
BRANCH   5  50
ATOM     50  O   LIG    1       -9.141   5.210   4.854  0.00  0.00    -0.391 OA
ATOM     51  H   LIG    1       -8.609   5.629   5.562  0.00  0.00    +0.210 HD
ENDBRANCH   5  50
BRANCH  27  52
ATOM     52  O   LIG    1        0.486   4.165   1.616  0.00  0.00    -0.377 OA
ATOM     53  C   LIG    1        0.909   3.551   0.403  0.00  0.00    +0.194 C 
ENDBRANCH  27  52
BRANCH  25  54
ATOM     54  O   LIG    1       -3.224   1.956   2.905  0.00  0.00    -0.377 OA
ATOM     55  C   LIG    1       -2.567   0.730   2.599  0.00  0.00    +0.194 C 
ENDBRANCH  25  54
BRANCH  21  56
ATOM     56  O   LIG    1       -2.275   6.452  -0.090  0.00  0.00    -0.358 OA
ATOM     57  H   LIG    1       -2.090   6.471  -1.046  0.00  0.00    +0.213 HD
ENDBRANCH  21  56
BRANCH   1  58
ATOM     58  C   LIG    1       -5.801   2.071   7.547  0.00  0.00    +0.041 C 
BRANCH  58  60
ATOM     59  C   LIG    1       -4.651   2.514   9.736  0.00  0.00    +0.004 C 
ATOM     60  C   LIG    1       -5.502   2.890   8.773  0.00  0.00    -0.034 C 
ENDBRANCH  58  60
ENDBRANCH   1  58
TORSDOF 10
