REMARK  Name = *****
REMARK                            x       y       z     vdW  Elec       q    Type
REMARK                         _______ _______ _______ _____ _____    ______ ____
ROOT
ATOM      1  C   LIG    1        6.300   1.437  -0.395  0.00  0.00    +0.084 C 
ATOM      2  C   LIG    1        7.569   0.658  -0.015  0.00  0.00    +0.027 C 
ENDROOT
BRANCH   1   3
ATOM      3  N   LIG    1        5.118   0.869   0.308  0.00  0.00    -0.305 NA
ATOM      4  H   LIG    1        4.282   1.413   0.066  0.00  0.00    +0.123 HD
BRANCH   3   6
ATOM      5  C   LIG    1        4.610  -0.872  -1.468  0.00  0.00    +0.027 C 
ATOM      6  C   LIG    1        4.809  -0.557   0.018  0.00  0.00    +0.088 C 
BRANCH   6   7
ATOM      7  C   LIG    1        3.575  -1.010   0.832  0.00  0.00    +0.247 C 
BRANCH   7   8
ATOM      8  O   LIG    1        2.433  -0.214   0.510  0.00  0.00    -0.490 OA
BRANCH   8   9
ATOM      9  C   LIG    1        1.770   0.439   1.510  0.00  0.00    +0.121 A 
ATOM     10  C   LIG    1        0.643   1.155   1.103  0.00  0.00    +0.045 A 
ATOM     11  C   LIG    1       -0.124   1.872   2.026  0.00  0.00    +0.004 A 
ATOM     12  C   LIG    1        0.234   1.873   3.375  0.00  0.00    +0.000 A 
ATOM     13  C   LIG    1        1.357   1.172   3.787  0.00  0.00    +0.004 A 
ATOM     14  C   LIG    1        2.124   0.462   2.863  0.00  0.00    +0.045 A 
ENDBRANCH   8   9
ENDBRANCH   7   8
ENDBRANCH   6   7
ENDBRANCH   3   6
ENDBRANCH   1   3
BRANCH   1  15
ATOM     15  C   LIG    1        6.467   2.965  -0.032  0.00  0.00    +0.161 C 
BRANCH  15  16
ATOM     16  C   LIG    1        7.570   3.670  -0.810  0.00  0.00    -0.018 A 
ATOM     17  C   LIG    1        8.905   3.674  -0.360  0.00  0.00    +0.010 A 
ATOM     18  C   LIG    1        9.911   4.289  -1.113  0.00  0.00    +0.046 A 
ATOM     19  C   LIG    1        9.596   4.916  -2.304  0.00  0.00    +0.117 A 
ATOM     20  C   LIG    1        8.281   4.946  -2.766  0.00  0.00    +0.046 A 
ATOM     21  C   LIG    1        7.277   4.319  -2.018  0.00  0.00    +0.010 A 
BRANCH  19  22
ATOM     22  O   LIG    1       10.606   5.504  -3.009  0.00  0.00    -0.507 OA
ATOM     23  H   LIG    1       10.236   5.909  -3.807  0.00  0.00    +0.292 HD
ENDBRANCH  19  22
ENDBRANCH  15  16
BRANCH  15  24
ATOM     24  O   LIG    1        6.693   3.120   1.375  0.00  0.00    -0.386 OA
ATOM     25  H   LIG    1        6.129   2.445   1.795  0.00  0.00    +0.210 HD
ENDBRANCH  15  24
ENDBRANCH   1  15
TORSDOF 9
