REMARK  Name = *****
REMARK                            x       y       z     vdW  Elec       q    Type
REMARK                         _______ _______ _______ _____ _____    ______ ____
ROOT
ATOM      1  C   LIG    1       -3.144  11.900   1.507  0.00  0.00    -0.007 A 
ATOM      2  C   LIG    1       -3.757  10.775   2.068  0.00  0.00    +0.010 A 
ATOM      3  C   LIG    1       -3.947   9.627   1.292  0.00  0.00    +0.010 A 
ATOM      4  C   LIG    1       -3.511   9.611  -0.037  0.00  0.00    -0.007 A 
ATOM      5  C   LIG    1       -2.890  10.734  -0.594  0.00  0.00    +0.010 A 
ATOM      6  C   LIG    1       -2.712  11.882   0.177  0.00  0.00    +0.010 A 
ENDROOT
BRANCH   1   8
ATOM      7  N   LIG    1       -3.054  13.164   3.574  0.00  0.00    -0.276 NA
ATOM      8  C   LIG    1       -2.926  13.133   2.290  0.00  0.00    +0.113 C 
BRANCH   7  11
ATOM      9  O   LIG    1       -4.276  15.780   2.770  0.00  0.00    -0.271 OA
ATOM     10  C   LIG    1       -3.804  15.517   3.870  0.00  0.00    +0.263 C 
ATOM     11  C   LIG    1       -2.757  14.479   4.179  0.00  0.00    +0.220 C 
ATOM     12  C   LIG    1       -2.889  14.392   5.694  0.00  0.00    +0.226 C 
ATOM     13  O   LIG    1       -3.480  15.614   6.157  0.00  0.00    -0.277 OA
ATOM     14  N   LIG    1       -4.102  16.183   5.027  0.00  0.00    -0.193 N 
ATOM     15  H   LIG    1       -4.875  16.826   5.137  0.00  0.00    +0.182 HD
ENDBRANCH   7  11
ENDBRANCH   1   8
BRANCH   4  16
ATOM     16  C   LIG    1       -3.712   8.393  -0.842  0.00  0.00    +0.113 C 
ATOM     17  N   LIG    1       -3.308   8.319  -2.066  0.00  0.00    -0.276 NA
BRANCH  17  18
ATOM     18  C   LIG    1       -3.575   7.015  -2.705  0.00  0.00    +0.220 C 
ATOM     19  C   LIG    1       -2.690   5.944  -2.126  0.00  0.00    +0.263 C 
ATOM     20  O   LIG    1       -2.876   5.349  -1.074  0.00  0.00    -0.271 OA
ATOM     21  N   LIG    1       -1.606   5.793  -2.948  0.00  0.00    -0.193 N 
ATOM     22  H   LIG    1       -0.878   5.100  -2.846  0.00  0.00    +0.182 HD
ATOM     23  O   LIG    1       -1.726   6.543  -4.138  0.00  0.00    -0.277 OA
ATOM     24  C   LIG    1       -3.081   7.021  -4.146  0.00  0.00    +0.226 C 
ENDBRANCH  17  18
ENDBRANCH   4  16
TORSDOF 4
