REMARK  Name = *****
REMARK                            x       y       z     vdW  Elec       q    Type
REMARK                         _______ _______ _______ _____ _____    ______ ____
ROOT
ATOM      1  C   LIG    1        1.314   0.332  -0.335  0.00  0.00    +0.105 C 
ATOM      2  N   LIG    1        2.704   0.155   0.043  0.00  0.00    -0.298 NA
ATOM      3  C   LIG    1        3.164   0.908   1.220  0.00  0.00    +0.088 C 
ATOM      4  C   LIG    1        4.530   0.261   1.482  0.00  0.00    +0.025 C 
ATOM      5  C   LIG    1        4.438  -1.155   0.917  0.00  0.00    +0.017 C 
ATOM      6  C   LIG    1        3.079  -1.240   0.237  0.00  0.00    +0.085 C 
ENDROOT
BRANCH   3   7
ATOM      7  C   LIG    1        2.232   0.925   2.417  0.00  0.00    -0.012 A 
ATOM      8  C   LIG    1        2.143  -0.110   3.345  0.00  0.00    +0.115 A 
ATOM      9  N   LIG    1        1.314  -0.114   4.417  0.00  0.00    -0.263 NA
ATOM     10  C   LIG    1        0.525   0.968   4.579  0.00  0.00    +0.111 A 
ATOM     11  C   LIG    1        0.525   2.051   3.720  0.00  0.00    +0.020 A 
ATOM     12  C   LIG    1        1.388   2.025   2.628  0.00  0.00    +0.008 A 
ENDBRANCH   3   7
TORSDOF 1
