REMARK  Name = *****
REMARK                            x       y       z     vdW  Elec       q    Type
REMARK                         _______ _______ _______ _____ _____    ______ ____
ROOT
ATOM      1  C   LIG    1        9.381 -10.063  -3.971  0.00  0.00    +0.221 A 
ATOM      2  N   LIG    1       10.169  -9.996  -2.895  0.00  0.00    -0.180 NA
ATOM      3  C   LIG    1        9.587 -10.178  -1.721  0.00  0.00    +0.216 A 
ATOM      4  N   LIG    1        8.289 -10.413  -1.549  0.00  0.00    -0.214 NA
ATOM      5  C   LIG    1        7.490 -10.412  -2.641  0.00  0.00    +0.080 A 
ATOM      6  C   LIG    1        8.020 -10.222  -3.907  0.00  0.00    +0.095 A 
ENDROOT
BRANCH   5   7
ATOM      7  C   LIG    1        6.049 -10.670  -2.373  0.00  0.00    +0.001 A 
ATOM      8  C   LIG    1        5.570 -10.905  -1.066  0.00  0.00    +0.010 A 
ATOM      9  C   LIG    1        4.214 -11.158  -0.807  0.00  0.00    +0.004 A 
ATOM     10  C   LIG    1        3.285 -11.186  -1.852  0.00  0.00    -0.045 A 
ATOM     11  C   LIG    1        3.739 -10.960  -3.151  0.00  0.00    +0.004 A 
ATOM     12  C   LIG    1        5.092 -10.701  -3.401  0.00  0.00    +0.010 A 
BRANCH  10  13
ATOM     13  C   LIG    1        1.821 -11.471  -1.598  0.00  0.00    +0.065 C 
BRANCH  13  14
ATOM     14  CA  LIG    1        1.476 -12.965  -1.693  0.00  0.00    +0.165 C 
BRANCH  14  15
ATOM     15  N   LIG    1        0.015 -13.185  -1.538  0.00  0.00    -0.318 NA
ATOM     16  H1  LIG    1       -0.179 -14.188  -1.551  0.00  0.00    +0.119 HD
ATOM     17  H2  LIG    1       -0.254 -12.887  -0.595  0.00  0.00    +0.119 HD
ENDBRANCH  14  15
BRANCH  14  18
ATOM     18  C   LIG    1        2.227 -13.738  -0.607  0.00  0.00    +0.322 C 
ATOM     19  O   LIG    1        2.002 -13.607   0.606  0.00  0.00    -0.249 OA
BRANCH  18  20
ATOM     20  OXT LIG    1        3.151 -14.602  -1.068  0.00  0.00    -0.479 OA
ATOM     21  HXT LIG    1        3.254 -14.593  -2.042  0.00  0.00    +0.295 HD
ENDBRANCH  18  20
ENDBRANCH  14  18
ENDBRANCH  13  14
ENDBRANCH  10  13
ENDBRANCH   5   7
BRANCH   3  22
ATOM     22  N   LIG    1       10.412 -10.224  -0.618  0.00  0.00    -0.327 N 
ATOM     23  H   LIG    1       11.352 -10.448  -0.919  0.00  0.00    +0.145 HD
ATOM     24  H   LIG    1       10.000 -10.834   0.074  0.00  0.00    +0.145 HD
ENDBRANCH   3  22
BRANCH   1  25
ATOM     25  O   LIG    1        9.976  -9.999  -5.219  0.00  0.00    -0.459 OA
BRANCH  25  26
ATOM     26  C   LIG    1       11.360 -10.489  -5.189  0.00  0.00    +0.311 C 
BRANCH  26  28
ATOM     27  C   LIG    1       13.701  -9.561  -4.457  0.00  0.00    +0.074 A 
ATOM     28  C   LIG    1       12.370  -9.351  -4.918  0.00  0.00    +0.027 A 
ATOM     29  C   LIG    1       11.926  -8.006  -5.021  0.00  0.00    +0.011 A 
ATOM     30  C   LIG    1       12.719  -6.926  -4.611  0.00  0.00    +0.020 A 
ATOM     31  C   LIG    1       13.994  -7.158  -4.127  0.00  0.00    +0.043 A 
ATOM     32 CL   LIG    1       14.961  -5.848  -3.570  0.00  0.00    -0.084 Cl
ATOM     33  C   LIG    1       14.492  -8.454  -4.069  0.00  0.00    +0.048 A 
BRANCH  27  37
ATOM     34  C   LIG    1       14.076 -14.355  -3.687  0.00  0.00    +0.067 C 
ATOM     35  C   LIG    1       14.485 -12.953  -3.950  0.00  0.00    +0.060 A 
ATOM     36  N   LIG    1       13.581 -11.980  -4.122  0.00  0.00    -0.172 NA
ATOM     37  N   LIG    1       14.305 -10.849  -4.304  0.00  0.00    -0.239 N 
ATOM     38  C   LIG    1       15.658 -11.127  -4.292  0.00  0.00    +0.115 A 
ATOM     39  C   LIG    1       15.801 -12.474  -4.079  0.00  0.00    +0.044 A 
ENDBRANCH  27  37
ENDBRANCH  26  28
BRANCH  26  40
ATOM     40  C   LIG    1       11.599 -11.396  -6.419  0.00  0.00    +0.431 C 
ATOM     41  F   LIG    1       10.781 -11.091  -7.459  0.00  0.00    -0.167 F 
ATOM     42  F   LIG    1       11.334 -12.694  -6.105  0.00  0.00    -0.167 F 
ATOM     43  F   LIG    1       12.863 -11.350  -6.897  0.00  0.00    -0.167 F 
ENDBRANCH  26  40
ENDBRANCH  25  26
ENDBRANCH   1  25
TORSDOF 12
