REMARK  Name = *****
REMARK                            x       y       z     vdW  Elec       q    Type
REMARK                         _______ _______ _______ _____ _____    ______ ____
ROOT
ATOM      1  C   LIG    1        3.218   0.197  -0.275  0.00  0.00    +0.155 C 
ATOM      2  N   LIG    1        3.971  -0.723  -1.208  0.00  0.00    -0.254 NA
ATOM      3  C   LIG    1        4.087   0.014  -2.268  0.00  0.00    +0.153 C 
ATOM      4  N   LIG    1        3.595   1.287  -2.278  0.00  0.00    -0.307 N 
ATOM      5  C   LIG    1        4.322   2.166  -3.172  0.00  0.00    +0.118 C 
ATOM      6  C   LIG    1        4.692   1.298  -4.384  0.00  0.00    +0.096 C 
ATOM      7  S   LIG    1        4.972  -0.382  -3.703  0.00  0.00    -0.089 S 
ATOM      8  C   LIG    1        3.338   1.623  -0.894  0.00  0.00    +0.138 C 
ENDROOT
BRANCH   1  12
ATOM      9  C   LIG    1        4.588   0.178   3.825  0.00  0.00    +0.000 A 
ATOM     10  C   LIG    1        5.435  -0.265   2.811  0.00  0.00    +0.000 A 
ATOM     11  C   LIG    1        4.997  -0.270   1.485  0.00  0.00    +0.006 A 
ATOM     12  C   LIG    1        3.705   0.164   1.157  0.00  0.00    -0.022 A 
ATOM     13  C   LIG    1        2.863   0.609   2.189  0.00  0.00    +0.006 A 
ATOM     14  C   LIG    1        3.302   0.614   3.514  0.00  0.00    +0.000 A 
ENDBRANCH   1  12
TORSDOF 1
