REMARK  Name = *****
REMARK                            x       y       z     vdW  Elec       q    Type
REMARK                         _______ _______ _______ _____ _____    ______ ____
ROOT
ATOM      1  C   LIG    1        0.949   0.067  -0.085  0.00  0.00    +0.138 C 
ATOM      2  N   LIG    1        2.398   0.062   0.063  0.00  0.00    -0.270 N 
ATOM      3  C   LIG    1        3.031  -1.189   0.043  0.00  0.00    +0.271 C 
ATOM      4  O   LIG    1        2.393  -2.249   0.037  0.00  0.00    -0.270 OA
ATOM      5  C   LIG    1        4.585  -1.196  -0.031  0.00  0.00    +0.320 C 
ATOM      6  N   LIG    1        5.071  -0.797   1.281  0.00  0.00    -0.243 NA
ATOM      7  C   LIG    1        4.923   0.436   1.632  0.00  0.00    +0.078 C 
ATOM      8  C   LIG    1        4.328   1.490   0.756  0.00  0.00    +0.023 A 
ATOM      9  C   LIG    1        5.016   2.715   0.674  0.00  0.00    +0.032 A 
ATOM     10  C   LIG    1        4.465   3.779  -0.031  0.00  0.00    +0.042 A 
ATOM     11 CL   LIG    1        5.302   5.278  -0.113  0.00  0.00    -0.084 Cl
ATOM     12  C   LIG    1        3.235   3.637  -0.658  0.00  0.00    +0.022 A 
ATOM     13  C   LIG    1        2.560   2.413  -0.600  0.00  0.00    +0.025 A 
ATOM     14  C   LIG    1        3.103   1.307   0.081  0.00  0.00    +0.045 A 
ENDROOT
BRANCH   7  15
ATOM     15  C   LIG    1        5.384   0.817   3.006  0.00  0.00    +0.001 A 
ATOM     16  C   LIG    1        4.703   1.780   3.764  0.00  0.00    +0.010 A 
ATOM     17  C   LIG    1        5.157   2.110   5.043  0.00  0.00    +0.001 A 
ATOM     18  C   LIG    1        6.280   1.474   5.572  0.00  0.00    +0.000 A 
ATOM     19  C   LIG    1        6.949   0.502   4.830  0.00  0.00    +0.001 A 
ATOM     20  C   LIG    1        6.500   0.170   3.551  0.00  0.00    +0.010 A 
ENDBRANCH   7  15
BRANCH   5  21
ATOM     21  O   LIG    1        5.056  -2.481  -0.406  0.00  0.00    -0.364 OA
ATOM     22  H   LIG    1        4.685  -3.068   0.277  0.00  0.00    +0.212 HD
ENDBRANCH   5  21
TORSDOF 2
