REMARK  Name = *****
REMARK                            x       y       z     vdW  Elec       q    Type
REMARK                         _______ _______ _______ _____ _____    ______ ____
ROOT
ATOM      1  C   LIG    1        7.728  -6.703  -0.180  0.00  0.00    +0.117 C 
ENDROOT
BRANCH   1   2
ATOM      2  C   LIG    1        7.015  -8.002  -0.602  0.00  0.00    -0.026 A 
ATOM      3  C   LIG    1        6.692  -9.021   0.309  0.00  0.00    +0.007 A 
ATOM      4  C   LIG    1        6.020 -10.175  -0.114  0.00  0.00    +0.020 A 
ATOM      5  C   LIG    1        5.636 -10.311  -1.446  0.00  0.00    +0.041 A 
ATOM      6 CL   LIG    1        4.783 -11.714  -1.960  0.00  0.00    -0.084 Cl
ATOM      7  C   LIG    1        5.935  -9.312  -2.366  0.00  0.00    +0.020 A 
ATOM      8  C   LIG    1        6.634  -8.177  -1.950  0.00  0.00    +0.007 A 
ENDBRANCH   1   2
BRANCH   1  12
ATOM      9  N   LIG    1        6.810  -3.319  -1.531  0.00  0.00    -0.298 NA
ATOM     10  C   LIG    1        7.912  -3.614  -0.595  0.00  0.00    +0.100 C 
ATOM     11  C   LIG    1        7.492  -4.385   0.674  0.00  0.00    +0.100 C 
ATOM     12  N   LIG    1        6.802  -5.677   0.407  0.00  0.00    -0.289 NA
ATOM     13  C   LIG    1        5.649  -5.345  -0.466  0.00  0.00    +0.100 C 
ATOM     14  C   LIG    1        6.004  -4.541  -1.747  0.00  0.00    +0.100 C 
BRANCH   9  15
ATOM     15  C   LIG    1        5.960  -2.189  -1.107  0.00  0.00    +0.112 C 
BRANCH  15  16
ATOM     16  C   LIG    1        6.732  -0.872  -0.916  0.00  0.00    +0.175 C 
BRANCH  16  17
ATOM     17  O   LIG    1        5.840   0.182  -0.544  0.00  0.00    -0.376 OA
BRANCH  17  18
ATOM     18  C   LIG    1        6.575   1.388  -0.320  0.00  0.00    +0.187 C 
BRANCH  18  19
ATOM     19  C   LIG    1        5.629   2.484   0.143  0.00  0.00    +0.184 C 
BRANCH  19  20
ATOM     20  O   LIG    1        6.349   3.694   0.344  0.00  0.00    -0.393 OA
ATOM     21  H   LIG    1        5.700   4.363   0.633  0.00  0.00    +0.209 HD
ENDBRANCH  19  20
ENDBRANCH  18  19
ENDBRANCH  17  18
ENDBRANCH  16  17
ENDBRANCH  15  16
ENDBRANCH   9  15
ENDBRANCH   1  12
BRANCH   1  22
ATOM     22  C   LIG    1        8.949  -6.993   0.722  0.00  0.00    -0.026 A 
ATOM     23  C   LIG    1        8.861  -6.936   2.125  0.00  0.00    +0.005 A 
ATOM     24  C   LIG    1        9.988  -7.129   2.924  0.00  0.00    +0.000 A 
ATOM     25  C   LIG    1       11.217  -7.409   2.335  0.00  0.00    +0.000 A 
ATOM     26  C   LIG    1       11.316  -7.507   0.948  0.00  0.00    +0.000 A 
ATOM     27  C   LIG    1       10.193  -7.304   0.143  0.00  0.00    +0.005 A 
ENDBRANCH   1  22
TORSDOF 9
