REMARK  Name = *****
REMARK                            x       y       z     vdW  Elec       q    Type
REMARK                         _______ _______ _______ _____ _____    ______ ____
ROOT
ATOM      1  O   LIG    1        0.720   0.454  -0.020  0.00  0.00    -0.285 OA
ATOM      2  C   LIG    1        1.923   0.286   0.004  0.00  0.00    +0.211 C 
ATOM      3  C   LIG    1        3.013   1.331   0.039  0.00  0.00    +0.104 C 
ATOM      4  C   LIG    1        2.710   2.630   0.038  0.00  0.00    +0.104 C 
ATOM      5  C   LIG    1        3.798   3.677   0.014  0.00  0.00    +0.211 C 
ATOM      6  O   LIG    1        5.001   3.512  -0.002  0.00  0.00    -0.285 OA
ATOM      7  C   LIG    1        3.075   4.963  -0.025  0.00  0.00    +0.047 A 
ATOM      8  C   LIG    1        1.704   4.656  -0.040  0.00  0.00    +0.043 A 
ATOM      9  C   LIG    1        0.767   5.668  -0.051  0.00  0.00    +0.026 A 
ATOM     10  C   LIG    1        1.227   6.992  -0.072  0.00  0.00    +0.031 A 
ATOM     11  C   LIG    1        2.612   7.272  -0.063  0.00  0.00    +0.118 A 
ATOM     12  C   LIG    1        3.567   6.252  -0.045  0.00  0.00    +0.043 A 
ATOM     13  N   LIG    1        1.498   3.287   0.034  0.00  0.00    -0.309 N 
ATOM     14  H   LIG    1        0.626   2.784  -0.082  0.00  0.00    +0.152 HD
ATOM     15  N   LIG    1        4.223   0.671   0.048  0.00  0.00    -0.309 N 
ATOM     16  H   LIG    1        5.097   1.171  -0.065  0.00  0.00    +0.152 HD
ATOM     17  C   LIG    1        4.014  -0.698  -0.033  0.00  0.00    +0.043 A 
ATOM     18  C   LIG    1        4.947  -1.713  -0.037  0.00  0.00    +0.026 A 
ATOM     19  C   LIG    1        4.483  -3.036  -0.066  0.00  0.00    +0.031 A 
ATOM     20  C   LIG    1        3.097  -3.311  -0.072  0.00  0.00    +0.118 A 
ATOM     21  C   LIG    1        2.146  -2.288  -0.060  0.00  0.00    +0.043 A 
ATOM     22  C   LIG    1        2.642  -1.001  -0.031  0.00  0.00    +0.047 A 
ENDROOT
BRANCH  11  23
ATOM     23  S   LIG    1        3.154   8.958  -0.099  0.00  0.00    +0.110 S 
ATOM     24  O   LIG    1        3.564   9.312   1.240  0.00  0.00    -0.142 OA
ATOM     25  O   LIG    1        2.177   9.732  -0.833  0.00  0.00    -0.142 OA
BRANCH  23  26
ATOM     26  O   LIG    1        4.470   8.949  -1.032  0.00  0.00    -0.250 OA
ATOM     27  H   LIG    1        4.454   9.766  -1.575  0.00  0.00    +0.245 HD
ENDBRANCH  23  26
ENDBRANCH  11  23
BRANCH  20  28
ATOM     28  S   LIG    1        2.546  -4.995  -0.121  0.00  0.00    +0.110 S 
ATOM     29  O   LIG    1        2.089  -5.342   1.204  0.00  0.00    -0.142 OA
ATOM     30  O   LIG    1        3.543  -5.777  -0.820  0.00  0.00    -0.142 OA
BRANCH  28  31
ATOM     31  O   LIG    1        1.264  -4.979  -1.099  0.00  0.00    -0.250 OA
ATOM     32  H   LIG    1        1.317  -5.774  -1.670  0.00  0.00    +0.245 HD
ENDBRANCH  28  31
ENDBRANCH  20  28
TORSDOF 4
