REMARK  Name = *****
REMARK                            x       y       z     vdW  Elec       q    Type
REMARK                         _______ _______ _______ _____ _____    ______ ____
ROOT
ATOM      1  C   LIG    1        4.992   2.903  -1.037  0.00  0.00    +0.123 C 
ATOM      2  C   LIG    1        3.951   3.969  -1.346  0.00  0.00    +0.235 C 
ATOM      3  O   LIG    1        3.449   4.135  -2.456  0.00  0.00    -0.274 OA
ATOM      4  N   LIG    1        3.528   4.721  -0.287  0.00  0.00    -0.239 N 
ATOM      5  H   LIG    1        2.822   5.413  -0.500  0.00  0.00    +0.159 HD
ATOM      6  C   LIG    1        4.307   5.020   0.786  0.00  0.00    +0.312 C 
ATOM      7  O   LIG    1        4.086   6.002   1.484  0.00  0.00    -0.252 OA
ATOM      8  N   LIG    1        5.397   4.234   0.991  0.00  0.00    -0.239 N 
ATOM      9  H   LIG    1        6.021   4.535   1.727  0.00  0.00    +0.159 HD
ATOM     10  C   LIG    1        5.926   3.365   0.077  0.00  0.00    +0.235 C 
ATOM     11  O   LIG    1        7.071   2.942   0.227  0.00  0.00    -0.274 OA
ENDROOT
BRANCH   1  12
ATOM     12  C   LIG    1        5.811   2.542  -2.301  0.00  0.00    +0.022 C 
ATOM     13  C   LIG    1        6.639   3.696  -2.870  0.00  0.00    +0.005 C 
ENDBRANCH   1  12
BRANCH   1  14
ATOM     14  C   LIG    1        4.254   1.651  -0.465  0.00  0.00    +0.025 C 
BRANCH  14  15
ATOM     15  C   LIG    1        3.254   0.967  -1.412  0.00  0.00    +0.001 C 
BRANCH  15  17
ATOM     16  C   LIG    1        1.597  -0.931  -1.659  0.00  0.00    +0.004 C 
ATOM     17  C   LIG    1        2.592  -0.240  -0.738  0.00  0.00    -0.003 C 
ENDBRANCH  15  17
ENDBRANCH  14  15
ENDBRANCH   1  14
TORSDOF 4
