REMARK  Name = *****
REMARK                            x       y       z     vdW  Elec       q    Type
REMARK                         _______ _______ _______ _____ _____    ______ ____
ROOT
ATOM      1  C   LIG    1        4.681  -1.928  -2.535  0.00  0.00    +0.084 C 
ATOM      2  C   LIG    1        5.231  -2.485  -3.860  0.00  0.00    +0.027 C 
ENDROOT
BRANCH   1   3
ATOM      3  N   LIG    1        3.209  -2.213  -2.589  0.00  0.00    -0.308 NA
ATOM      4  H   LIG    1        2.845  -1.708  -3.403  0.00  0.00    +0.122 HD
BRANCH   3   6
ATOM      5  C   LIG    1        2.884  -2.481  -0.132  0.00  0.00    +0.024 C 
ATOM      6  C   LIG    1        2.405  -1.816  -1.422  0.00  0.00    +0.051 C 
BRANCH   6   7
ATOM      7  C   LIG    1        0.886  -2.091  -1.643  0.00  0.00    +0.023 C 
BRANCH   7   8
ATOM      8  C   LIG    1        0.473  -3.562  -1.815  0.00  0.00    +0.036 C 
BRANCH   8   9
ATOM      9  C   LIG    1       -1.031  -3.739  -1.939  0.00  0.00    -0.047 A 
ATOM     10  C   LIG    1       -1.661  -3.705  -3.192  0.00  0.00    +0.003 A 
ATOM     11  C   LIG    1       -3.043  -3.895  -3.301  0.00  0.00    +0.000 A 
ATOM     12  C   LIG    1       -3.814  -4.114  -2.161  0.00  0.00    +0.000 A 
ATOM     13  C   LIG    1       -3.203  -4.135  -0.909  0.00  0.00    +0.000 A 
ATOM     14  C   LIG    1       -1.822  -3.947  -0.799  0.00  0.00    +0.003 A 
ENDBRANCH   8   9
ENDBRANCH   7   8
ENDBRANCH   6   7
ENDBRANCH   3   6
ENDBRANCH   1   3
BRANCH   1  15
ATOM     15  C   LIG    1        5.079  -0.420  -2.346  0.00  0.00    +0.161 C 
BRANCH  15  16
ATOM     16  C   LIG    1        6.579  -0.113  -2.283  0.00  0.00    -0.018 A 
ATOM     17  C   LIG    1        7.274  -0.200  -1.069  0.00  0.00    +0.010 A 
ATOM     18  C   LIG    1        8.627   0.146  -0.980  0.00  0.00    +0.046 A 
ATOM     19  C   LIG    1        9.311   0.581  -2.118  0.00  0.00    +0.117 A 
ATOM     20  C   LIG    1        8.657   0.654  -3.336  0.00  0.00    +0.046 A 
ATOM     21  C   LIG    1        7.304   0.306  -3.424  0.00  0.00    +0.010 A 
BRANCH  19  22
ATOM     22  O   LIG    1       10.617   0.923  -1.984  0.00  0.00    -0.507 OA
ATOM     23  H   LIG    1       10.963   1.224  -2.841  0.00  0.00    +0.292 HD
ENDBRANCH  19  22
ENDBRANCH  15  16
BRANCH  15  24
ATOM     24  O   LIG    1        4.439   0.371  -3.355  0.00  0.00    -0.386 OA
ATOM     25  H   LIG    1        4.912   1.221  -3.393  0.00  0.00    +0.210 HD
ENDBRANCH  15  24
ENDBRANCH   1  15
TORSDOF 9
