REMARK  Name = *****
REMARK                            x       y       z     vdW  Elec       q    Type
REMARK                         _______ _______ _______ _____ _____    ______ ____
ROOT
ATOM      1  CB  TYR A  1        2.427  -1.390   0.162  0.00  0.00    +0.065 C 
ENDROOT
BRANCH   1   2
ATOM      2  CG  TYR A  1        1.451  -2.324   0.845  0.00  0.00    -0.045 A 
ATOM      3  CD2 TYR A  1        0.542  -3.074   0.085  0.00  0.00    +0.007 A 
ATOM      4  CE2 TYR A  1       -0.335  -3.967   0.704  0.00  0.00    +0.045 A 
ATOM      5  CZ  TYR A  1       -0.304  -4.119   2.084  0.00  0.00    +0.117 A 
ATOM      6  CE1 TYR A  1        0.591  -3.390   2.859  0.00  0.00    +0.045 A 
ATOM      7  CD1 TYR A  1        1.468  -2.494   2.239  0.00  0.00    +0.007 A 
BRANCH   5   8
ATOM      8  OH  TYR A  1       -1.172  -5.008   2.644  0.00  0.00    -0.507 OA
ATOM      9  HH  TYR A  1       -1.023  -5.028   3.604  0.00  0.00    +0.292 HD
ENDBRANCH   5   8
ENDBRANCH   1   2
BRANCH   1  10
ATOM     10  CA  TYR A  1        2.305   0.085   0.576  0.00  0.00    +0.165 C 
BRANCH  10  11
ATOM     11  N   TYR A  1        0.966   0.689   0.288  0.00  0.00    -0.318 NA
ATOM     12  H1  TYR A  1        0.738   0.498  -0.694  0.00  0.00    +0.119 HD
ATOM     13  H2  TYR A  1        0.269   0.140   0.804  0.00  0.00    +0.119 HD
ENDBRANCH  10  11
BRANCH  10  14
ATOM     14  C   TYR A  1        3.363   0.935  -0.147  0.00  0.00    +0.322 C 
ATOM     15  O   TYR A  1        4.472   0.555  -0.499  0.00  0.00    -0.249 OA
BRANCH  14  16
ATOM     16  OXT TYR A  1        2.918   2.207  -0.329  0.00  0.00    -0.479 OA
ATOM     17  HXT TYR A  1        1.988   2.224   0.009  0.00  0.00    +0.295 HD
ENDBRANCH  14  16
ENDBRANCH  10  14
ENDBRANCH   1  10
TORSDOF 6
