REMARK  Name = *****
REMARK                            x       y       z     vdW  Elec       q    Type
REMARK                         _______ _______ _______ _____ _____    ______ ____
ROOT
ATOM      1  C   LIG    1        6.112  -0.203  -0.543  0.00  0.00    +0.005 C 
ATOM      2  C   LIG    1        6.748   0.986  -0.675  0.00  0.00    -0.001 C 
ENDROOT
BRANCH   1   7
ATOM      3  C   LIG    1        0.549   0.142   0.939  0.00  0.00    +0.044 C 
ATOM      4  C   LIG    1        1.971  -0.129   0.545  0.00  0.00    -0.050 A 
ATOM      5  C   LIG    1        2.345  -0.136  -0.804  0.00  0.00    +0.004 A 
ATOM      6  C   LIG    1        3.693  -0.209  -1.165  0.00  0.00    +0.009 A 
ATOM      7  C   LIG    1        4.685  -0.267  -0.179  0.00  0.00    -0.016 A 
ATOM      8  C   LIG    1        4.307  -0.333   1.167  0.00  0.00    +0.009 A 
ATOM      9  C   LIG    1        2.960  -0.260   1.526  0.00  0.00    +0.004 A 
ENDBRANCH   1   7
BRANCH   1  10
ATOM     10  C   LIG    1        6.929  -1.409  -0.783  0.00  0.00    +0.072 A 
ATOM     11  N   LIG    1        7.606  -1.897   0.291  0.00  0.00    -0.247 NA
ATOM     12  C   LIG    1        8.481  -2.901   0.067  0.00  0.00    +0.065 A 
ATOM     13  C   LIG    1        8.675  -3.462  -1.192  0.00  0.00    +0.028 A 
ATOM     14  C   LIG    1        7.932  -2.983  -2.268  0.00  0.00    +0.004 A 
ATOM     15  C   LIG    1        7.043  -1.937  -2.063  0.00  0.00    +0.028 A 
BRANCH  12  16
ATOM     16  C   LIG    1        9.260  -3.373   1.220  0.00  0.00    +0.035 C 
ATOM     17  C   LIG    1        9.209  -3.040   2.520  0.00  0.00    +0.093 C 
BRANCH  17  18
ATOM     18  C   LIG    1        8.363  -2.131   3.329  0.00  0.00    +0.330 C 
ATOM     19  O   LIG    1        8.700  -1.800   4.449  0.00  0.00    -0.246 OA
BRANCH  18  20
ATOM     20  O   LIG    1        7.162  -1.821   2.804  0.00  0.00    -0.477 OA
ATOM     21  H   LIG    1        7.116  -1.993   1.840  0.00  0.00    +0.295 HD
ENDBRANCH  18  20
ENDBRANCH  17  18
ENDBRANCH  12  16
ENDBRANCH   1  10
BRANCH   2  22
ATOM     22  C   LIG    1        6.185   2.376  -0.513  0.00  0.00    +0.112 C 
BRANCH  22  23
ATOM     23  N   LIG    1        6.390   3.202  -1.713  0.00  0.00    -0.299 NA
ATOM     24  C   LIG    1        5.691   2.687  -2.892  0.00  0.00    +0.085 C 
ATOM     25  C   LIG    1        5.749   3.868  -3.842  0.00  0.00    +0.017 C 
ATOM     26  C   LIG    1        5.545   5.071  -2.937  0.00  0.00    +0.017 C 
ATOM     27  C   LIG    1        5.878   4.571  -1.531  0.00  0.00    +0.085 C 
ENDBRANCH  22  23
ENDBRANCH   2  22
TORSDOF 7
