REMARK  Name = *****
REMARK                            x       y       z     vdW  Elec       q    Type
REMARK                         _______ _______ _______ _____ _____    ______ ____
ROOT
ATOM      1  O   LIG    1        1.080   0.028   0.212  0.00  0.00    -0.247 OA
ATOM      2  C   LIG    1        2.301  -0.002   0.108  0.00  0.00    +0.327 C 
ATOM      3  N   LIG    1        3.005  -1.175   0.058  0.00  0.00    -0.273 N 
ATOM      4  H   LIG    1        2.474  -2.031   0.098  0.00  0.00    +0.173 HD
ATOM      5  C   LIG    1        4.361  -1.284  -0.131  0.00  0.00    +0.289 C 
ATOM      6  O   LIG    1        4.920  -2.368  -0.250  0.00  0.00    -0.265 OA
ATOM      7  C   LIG    1        5.091   0.003  -0.191  0.00  0.00    +0.203 C 
ATOM      8  F   LIG    1        6.427  -0.040  -0.340  0.00  0.00    -0.198 F 
ATOM      9  C   LIG    1        4.413   1.148  -0.111  0.00  0.00    +0.131 C 
ATOM     10  N   LIG    1        3.050   1.145   0.028  0.00  0.00    -0.311 N 
ATOM     11  H   LIG    1        2.532   2.016   0.070  0.00  0.00    +0.170 HD
ENDROOT
TORSDOF 0
