REMARK  Name = *****
REMARK                            x       y       z     vdW  Elec       q    Type
REMARK                         _______ _______ _______ _____ _____    ______ ____
ROOT
ATOM      1  C   LIG    1       -0.619   0.218  -0.405  0.00  0.00    +0.086 C 
ENDROOT
BRANCH   1   2
ATOM      2  C   LIG    1       -1.719   1.071  -1.094  0.00  0.00    -0.027 A 
ATOM      3  C   LIG    1       -2.527   1.957  -0.351  0.00  0.00    +0.005 A 
ATOM      4  C   LIG    1       -3.556   2.689  -0.959  0.00  0.00    +0.000 A 
ATOM      5  C   LIG    1       -3.796   2.564  -2.324  0.00  0.00    +0.000 A 
ATOM      6  C   LIG    1       -3.002   1.715  -3.083  0.00  0.00    +0.000 A 
ATOM      7  C   LIG    1       -1.977   0.980  -2.478  0.00  0.00    +0.005 A 
ENDBRANCH   1   2
BRANCH   1   9
ATOM      8  C   LIG    1       -0.209  -1.574   1.475  0.00  0.00    +0.009 C 
ATOM      9  C   LIG    1       -1.250  -0.694   0.742  0.00  0.00    +0.007 C 
ATOM     10  C   LIG    1       -2.378  -1.613   0.239  0.00  0.00    +0.009 C 
ENDBRANCH   1   9
BRANCH   1  11
ATOM     11  C   LIG    1        0.051  -0.724  -1.347  0.00  0.00    +0.074 C 
ATOM     12  N   LIG    1        0.563  -1.466  -2.070  0.00  0.00    -0.196 NA
ENDBRANCH   1  11
BRANCH   1  13
ATOM     13  C   LIG    1        0.453   1.155   0.258  0.00  0.00    +0.045 C 
BRANCH  13  14
ATOM     14  C   LIG    1        1.246   2.177  -0.609  0.00  0.00    +0.055 C 
ATOM     15  C   LIG    1        1.981   1.529  -1.792  0.00  0.00    +0.024 C 
BRANCH  14  16
ATOM     16  N   LIG    1        2.216   2.987   0.182  0.00  0.00    -0.306 NA
ATOM     17  C   LIG    1        3.368   2.246   0.700  0.00  0.00    +0.105 C 
ATOM     18  C   LIG    1        1.595   3.764   1.255  0.00  0.00    +0.105 C 
ENDBRANCH  14  16
ENDBRANCH  13  14
ENDBRANCH   1  13
TORSDOF 6
