REMARK  Name = *****
REMARK                            x       y       z     vdW  Elec       q    Type
REMARK                         _______ _______ _______ _____ _____    ______ ____
ROOT
ATOM      1  C   UNK A  0        6.882   0.686   3.020  0.00  0.00    +0.071 A 
ATOM      2  N   UNK A  1        7.532  -0.456   3.386  0.00  0.00    -0.248 NA
ATOM      3  C   UNK A  1        8.902  -0.439   3.358  0.00  0.00    +0.108 A 
ATOM      4  C   UNK A  1        9.635   0.685   2.989  0.00  0.00    +0.140 A 
ATOM      5  C   UNK A  1        8.958   1.845   2.632  0.00  0.00    +0.049 A 
ATOM      6  C   UNK A  1        7.564   1.843   2.646  0.00  0.00    +0.029 A 
ENDROOT
BRANCH   4   7
ATOM      7  O   UNK A  1       11.003   0.649   2.986  0.00  0.00    -0.505 OA
ATOM      8  H   UNK A  1       11.344   1.512   2.696  0.00  0.00    +0.292 HD
ENDBRANCH   4   7
BRANCH   1   9
ATOM      9  C   UNK A  0        5.355   0.663   3.017  0.00  0.00    +0.176 C 
BRANCH   9  10
ATOM     10  O   UNK A  0        4.857  -0.250   4.008  0.00  0.00    -0.384 OA
ATOM     11  H   UNK A  0        5.636  -0.771   4.282  0.00  0.00    +0.210 HD
ENDBRANCH   9  10
BRANCH   9  12
ATOM     12  C   UNK A  0        4.812   0.241   1.629  0.00  0.00    +0.119 C 
BRANCH  12  13
ATOM     13  N   UNK A  0        3.335   0.235   1.603  0.00  0.00    -0.308 NA
ATOM     14  H   UNK A  0        3.021  -0.363   2.373  0.00  0.00    +0.122 HD
BRANCH  13  16
ATOM     15  C   UNK A  0        1.181  -0.143   0.551  0.00  0.00    +0.027 C 
ATOM     16  C   UNK A  0        2.708  -0.184   0.336  0.00  0.00    +0.011 C 
ATOM     17  C   UNK A  0        3.056   0.794  -0.797  0.00  0.00    +0.027 C 
ATOM     18  C   UNK A  0        3.095  -1.617  -0.068  0.00  0.00    +0.027 C 
ENDBRANCH  13  16
ENDBRANCH  12  13
ENDBRANCH   9  12
ENDBRANCH   1   9
BRANCH   3  19
ATOM     19  C   UNK A  1        9.618  -1.714   3.762  0.00  0.00    +0.215 C 
BRANCH  19  20
ATOM     20  O   UNK A  1        8.688  -2.737   4.125  0.00  0.00    -0.389 OA
ATOM     21  H   UNK A  1        7.817  -2.292   4.125  0.00  0.00    +0.210 HD
ENDBRANCH  19  20
ENDBRANCH   3  19
TORSDOF 8
