REMARK  Name = *****
REMARK                            x       y       z     vdW  Elec       q    Type
REMARK                         _______ _______ _______ _____ _____    ______ ____
ROOT
ATOM      1  C   LIG    1        5.564   0.971   1.953  0.00  0.00    +0.098 C 
ENDROOT
BRANCH   1   2
ATOM      2  C   LIG    1        6.495  -0.027   2.646  0.00  0.00    +0.308 C 
ATOM      3  O   LIG    1        7.271   0.255   3.539  0.00  0.00    -0.251 OA
BRANCH   2   4
ATOM      4  O   LIG    1        6.408  -1.288   2.140  0.00  0.00    -0.480 OA
ATOM      5  H   LIG    1        5.786  -1.409   1.405  0.00  0.00    +0.295 HD
ENDBRANCH   2   4
ENDBRANCH   1   2
BRANCH   1   6
ATOM      6  C   LIG    1        4.543   1.642   2.896  0.00  0.00    +0.014 C 
BRANCH   6   8
ATOM      7  C   LIG    1        3.882   3.281   4.728  0.00  0.00    +0.004 C 
ATOM      8  C   LIG    1        5.018   2.714   3.880  0.00  0.00    -0.003 C 
ENDBRANCH   6   8
ENDBRANCH   1   6
BRANCH   1   9
ATOM      9  C   LIG    1        6.344   1.840   0.940  0.00  0.00    +0.014 C 
BRANCH   9  10
ATOM     10  C   LIG    1        7.204   2.992   1.466  0.00  0.00    -0.003 C 
ATOM     11  C   LIG    1        7.939   3.730   0.354  0.00  0.00    +0.004 C 
ENDBRANCH   9  10
ENDBRANCH   1   9
TORSDOF 6
