REMARK  Name = *****
REMARK                            x       y       z     vdW  Elec       q    Type
REMARK                         _______ _______ _______ _____ _____    ______ ____
ROOT
ATOM      1  C   LIG    1        5.000   0.319  -1.383  0.00  0.00    +0.119 C 
ATOM      2  N   LIG    1        5.603  -0.888  -0.773  0.00  0.00    -0.330 N 
ATOM      3  H   LIG    1        5.128  -1.304   0.026  0.00  0.00    +0.147 HD
ATOM      4  C   LIG    1        6.996  -0.982  -0.669  0.00  0.00    +0.133 C 
ATOM      5  C   LIG    1        7.864  -0.183  -1.338  0.00  0.00    +0.149 C 
ATOM      6  N   LIG    1        9.227  -0.347  -1.300  0.00  0.00    -0.199 NA
ATOM      7  C   LIG    1        9.713  -1.295  -0.568  0.00  0.00    +0.195 C 
ATOM      8  N   LIG    1        8.947  -2.125   0.180  0.00  0.00    -0.294 N 
ATOM      9  H   LIG    1        9.367  -2.786   0.810  0.00  0.00    +0.172 HD
ATOM     10  N   LIG    1        7.339   0.847  -2.117  0.00  0.00    -0.326 N 
ATOM     11  H   LIG    1        8.014   1.141  -2.816  0.00  0.00    +0.148 HD
ATOM     12  C   LIG    1        7.589  -2.002   0.246  0.00  0.00    +0.276 C 
ATOM     13  O   LIG    1        6.905  -2.667   1.013  0.00  0.00    -0.266 OA
ATOM     14  C   LIG    1        5.929   0.843  -2.527  0.00  0.00    +0.128 C 
ENDROOT
BRANCH   7  15
ATOM     15  N   LIG    1       11.052  -1.511  -0.530  0.00  0.00    -0.329 N 
ATOM     16  H   LIG    1       11.346  -2.477  -0.479  0.00  0.00    +0.145 HD
ATOM     17  H   LIG    1       11.530  -0.999  -1.266  0.00  0.00    +0.145 HD
ENDBRANCH   7  15
BRANCH   1  18
ATOM     18  C   LIG    1        3.538  -0.001  -1.824  0.00  0.00    +0.164 C 
BRANCH  18  20
ATOM     19  C   LIG    1        1.309   0.924  -2.639  0.00  0.00    +0.040 C 
ATOM     20  C   LIG    1        2.792   1.215  -2.407  0.00  0.00    +0.142 C 
BRANCH  20  21
ATOM     21  O   LIG    1        3.367   1.582  -3.664  0.00  0.00    -0.389 OA
ATOM     22  H   LIG    1        3.068   0.918  -4.313  0.00  0.00    +0.210 HD
ENDBRANCH  20  21
ENDBRANCH  18  20
BRANCH  18  23
ATOM     23  O   LIG    1        3.454  -1.078  -2.775  0.00  0.00    -0.387 OA
ATOM     24  H   LIG    1        4.228  -1.034  -3.360  0.00  0.00    +0.210 HD
ENDBRANCH  18  23
ENDBRANCH   1  18
TORSDOF 5
