REMARK  Name = *****
REMARK                            x       y       z     vdW  Elec       q    Type
REMARK                         _______ _______ _______ _____ _____    ______ ____
ROOT
ATOM      1  C   LIG    1        5.962   5.760  -1.719  0.00  0.00    +0.265 C 
ATOM      2  N   LIG    1        7.010   5.108  -1.104  0.00  0.00    -0.307 N 
ATOM      3  H   LIG    1        7.864   5.079  -1.656  0.00  0.00    +0.149 HD
ATOM      4  O   LIG    1        4.827   5.797  -1.262  0.00  0.00    -0.268 OA
ENDROOT
BRANCH   1  12
ATOM      5  C   LIG    1        8.724   6.970  -5.499  0.00  0.00    +0.173 C 
ATOM      6  N   LIG    1        7.559   6.976  -4.645  0.00  0.00    -0.266 N 
ATOM      7  C   LIG    1        6.357   7.583  -4.899  0.00  0.00    +0.069 A 
ATOM      8  C   LIG    1        5.530   7.204  -3.844  0.00  0.00    +0.032 A 
ATOM      9  C   LIG    1        4.193   7.649  -3.835  0.00  0.00    +0.012 A 
ATOM     10  C   LIG    1        3.736   8.470  -4.872  0.00  0.00    +0.001 A 
ATOM     11  C   LIG    1        4.586   8.846  -5.909  0.00  0.00    +0.002 A 
ATOM     12  C   LIG    1        6.350   6.405  -2.991  0.00  0.00    +0.155 A 
ATOM     13  C   LIG    1        5.914   8.408  -5.946  0.00  0.00    +0.028 A 
ATOM     14  N   LIG    1        7.604   6.294  -3.482  0.00  0.00    -0.166 NA
ENDBRANCH   1  12
BRANCH   2  15
ATOM     15  C   LIG    1        6.910   4.406   0.169  0.00  0.00    +0.076 C 
ATOM     16  C   LIG    1        6.788   5.341   1.385  0.00  0.00    +0.041 C 
ATOM     17  C   LIG    1        8.094   5.644   2.144  0.00  0.00    +0.058 C 
ATOM     18  N   LIG    1        8.771   4.368   2.415  0.00  0.00    -0.299 NA
ATOM     19  C   LIG    1        9.247   3.785   1.156  0.00  0.00    +0.058 C 
ATOM     20  C   LIG    1       10.227   4.702   0.402  0.00  0.00    +0.019 C 
ATOM     21  C   LIG    1        9.762   6.146   0.241  0.00  0.00    +0.003 C 
ATOM     22  C   LIG    1        9.811   4.471   3.436  0.00  0.00    +0.105 C 
ATOM     23  C   LIG    1        9.001   6.674   1.451  0.00  0.00    +0.019 C 
ATOM     24  C   LIG    1        8.020   3.355   0.329  0.00  0.00    +0.041 C 
ENDBRANCH   2  15
TORSDOF 2
