REMARK  Name = *****
REMARK                            x       y       z     vdW  Elec       q    Type
REMARK                         _______ _______ _______ _____ _____    ______ ____
ROOT
ATOM      1  C   LIG    1        1.195  -0.300   0.838  0.00  0.00    +0.141 C 
ATOM      2  N   LIG    1        2.451  -0.148   0.145  0.00  0.00    -0.244 N 
ATOM      3  C   LIG    1        2.930   1.055  -0.284  0.00  0.00    +0.232 C 
ATOM      4  O   LIG    1        2.377   2.135  -0.120  0.00  0.00    -0.274 OA
ATOM      5  C   LIG    1        4.268   0.845  -0.987  0.00  0.00    +0.078 C 
ATOM      6  C   LIG    1        5.275   1.841  -0.390  0.00  0.00    +0.026 C 
ATOM      7  C   LIG    1        4.619  -0.603  -0.590  0.00  0.00    +0.117 C 
ATOM      8  C   LIG    1        3.379  -1.139   0.061  0.00  0.00    +0.223 C 
ATOM      9  O   LIG    1        3.273  -2.276   0.496  0.00  0.00    -0.275 OA
ENDROOT
BRANCH   5  10
ATOM     10  C   LIG    1        4.213   1.006  -2.512  0.00  0.00    -0.032 A 
ATOM     11  C   LIG    1        5.346   0.693  -3.289  0.00  0.00    +0.005 A 
ATOM     12  C   LIG    1        5.333   0.831  -4.679  0.00  0.00    +0.000 A 
ATOM     13  C   LIG    1        4.190   1.292  -5.322  0.00  0.00    +0.000 A 
ATOM     14  C   LIG    1        3.062   1.619  -4.574  0.00  0.00    +0.000 A 
ATOM     15  C   LIG    1        3.074   1.480  -3.183  0.00  0.00    +0.005 A 
ENDBRANCH   5  10
TORSDOF 1
