REMARK  Name = *****
REMARK                            x       y       z     vdW  Elec       q    Type
REMARK                         _______ _______ _______ _____ _____    ______ ____
ROOT
ATOM      1  C   LIG    1        1.889   0.333   2.017  0.00  0.00    +0.048 C 
ATOM      2  C   LIG    1        3.131   0.275   1.200  0.00  0.00    +0.008 A 
ATOM      3  C   LIG    1        4.026   1.306   0.880  0.00  0.00    +0.078 A 
ATOM      4  N   LIG    1        5.096   0.665   0.230  0.00  0.00    -0.230 N 
ATOM      5  N   LIG    1        4.783  -0.607  -0.123  0.00  0.00    -0.161 NA
ATOM      6  C   LIG    1        3.593  -0.856   0.463  0.00  0.00    +0.152 A 
ENDROOT
BRANCH   4   7
ATOM      7  C   LIG    1        6.412   1.159  -0.052  0.00  0.00    +0.084 A 
ATOM      8  C   LIG    1        7.178   0.707  -1.147  0.00  0.00    +0.068 A 
ATOM      9 CL   LIG    1        6.658  -0.461  -2.318  0.00  0.00    -0.081 Cl
ATOM     10  C   LIG    1        8.432   1.281  -1.409  0.00  0.00    +0.042 A 
ATOM     11  C   LIG    1        8.930   2.291  -0.592  0.00  0.00    +0.043 A 
ATOM     12 CL   LIG    1       10.437   3.031  -0.966  0.00  0.00    -0.084 Cl
ATOM     13  C   LIG    1        8.209   2.713   0.518  0.00  0.00    +0.022 A 
ATOM     14  C   LIG    1        6.966   2.137   0.797  0.00  0.00    +0.031 A 
ENDBRANCH   4   7
BRANCH   3  15
ATOM     15  C   LIG    1        3.865   2.775   1.044  0.00  0.00    +0.001 A 
ATOM     16  C   LIG    1        3.209   3.324   2.156  0.00  0.00    +0.011 A 
ATOM     17  C   LIG    1        3.004   4.706   2.276  0.00  0.00    +0.020 A 
ATOM     18  C   LIG    1        3.491   5.568   1.300  0.00  0.00    +0.041 A 
ATOM     19 CL   LIG    1        3.263   7.264   1.459  0.00  0.00    -0.084 Cl
ATOM     20  C   LIG    1        4.158   5.056   0.194  0.00  0.00    +0.020 A 
ATOM     21  C   LIG    1        4.314   3.671   0.054  0.00  0.00    +0.011 A 
ENDBRANCH   3  15
BRANCH   6  22
ATOM     22  C   LIG    1        2.923  -2.160   0.248  0.00  0.00    +0.278 C 
ATOM     23  N   LIG    1        3.670  -3.006  -0.556  0.00  0.00    -0.243 N 
ATOM     24  H   LIG    1        4.548  -2.629  -0.903  0.00  0.00    +0.170 HD
ATOM     25  O   LIG    1        1.808  -2.425   0.695  0.00  0.00    -0.267 OA
BRANCH  23  26
ATOM     26  N   LIG    1        3.198  -4.280  -0.952  0.00  0.00    -0.227 NA
ATOM     27  C   LIG    1        2.368  -4.204  -2.165  0.00  0.00    +0.105 C 
ATOM     28  C   LIG    1        3.165  -3.828  -3.416  0.00  0.00    +0.017 C 
ATOM     29  C   LIG    1        4.371  -4.742  -3.618  0.00  0.00    +0.003 C 
ATOM     30  C   LIG    1        5.188  -4.900  -2.339  0.00  0.00    +0.017 C 
ATOM     31  C   LIG    1        4.301  -5.233  -1.137  0.00  0.00    +0.105 C 
ENDBRANCH  23  26
ENDBRANCH   6  22
TORSDOF 4
