REMARK  Name = *****
REMARK                            x       y       z     vdW  Elec       q    Type
REMARK                         _______ _______ _______ _____ _____    ______ ____
ROOT
ATOM      1  C   LIG    1        4.414  -0.839  -1.238  0.00  0.00    +0.051 C 
ENDROOT
BRANCH   1   2
ATOM      2  C   LIG    1        4.835  -1.590  -2.481  0.00  0.00    -0.046 A 
ATOM      3  C   LIG    1        5.032  -2.977  -2.446  0.00  0.00    +0.003 A 
ATOM      4  C   LIG    1        5.389  -3.673  -3.602  0.00  0.00    +0.000 A 
ATOM      5  C   LIG    1        5.555  -2.990  -4.806  0.00  0.00    +0.000 A 
ATOM      6  C   LIG    1        5.367  -1.610  -4.852  0.00  0.00    +0.000 A 
ATOM      7  C   LIG    1        5.007  -0.913  -3.697  0.00  0.00    +0.003 A 
ENDBRANCH   1   2
BRANCH   1   8
ATOM      8  C   LIG    1        2.886  -0.741  -1.113  0.00  0.00    +0.103 C 
BRANCH   8   9
ATOM      9  N   LIG    1        2.513  -0.027   0.120  0.00  0.00    -0.259 NA
ATOM     10  H   LIG    1        2.923  -0.500   0.931  0.00  0.00    +0.140 HD
BRANCH   9  11
ATOM     11  N   LIG    1        1.076   0.065   0.195  0.00  0.00    -0.271 NA
ATOM     12  H   LIG    1        0.636  -0.819   0.464  0.00  0.00    +0.137 HD
ATOM     13  H   LIG    1        0.784   0.757   0.891  0.00  0.00    +0.137 HD
ENDBRANCH   9  11
ENDBRANCH   8   9
ENDBRANCH   1   8
TORSDOF 4
