REMARK  Name = *****
REMARK                            x       y       z     vdW  Elec       q    Type
REMARK                         _______ _______ _______ _____ _____    ______ ____
ROOT
ATOM      1  C   LIG    1        4.088   3.544   1.291  0.00  0.00    +0.061 A 
ATOM      2  C   LIG    1        5.056   4.374   1.911  0.00  0.00    +0.131 A 
ATOM      3  C   LIG    1        5.109   5.740   1.606  0.00  0.00    +0.048 A 
ATOM      4  C   LIG    1        4.207   6.303   0.703  0.00  0.00    +0.032 A 
ATOM      5  C   LIG    1        3.268   5.488   0.070  0.00  0.00    +0.106 A 
ATOM      6  C   LIG    1        3.180   4.125   0.384  0.00  0.00    +0.043 A 
ENDROOT
BRANCH   1  10
ATOM      7  C   LIG    1        2.300  -1.095   0.873  0.00  0.00    +0.089 A 
ATOM      8  C   LIG    1        3.133  -0.032   1.270  0.00  0.00    +0.119 A 
ATOM      9  N   LIG    1        3.077   1.333   0.954  0.00  0.00    -0.225 NA
ATOM     10  C   LIG    1        3.994   2.053   1.541  0.00  0.00    +0.145 C 
ATOM     11  N   LIG    1        4.947   1.519   2.408  0.00  0.00    -0.305 N 
ATOM     12  H   LIG    1        5.638   2.126   2.824  0.00  0.00    +0.170 HD
ATOM     13  C   LIG    1        5.067   0.193   2.727  0.00  0.00    +0.278 C 
ATOM     14  O   LIG    1        5.947  -0.234   3.468  0.00  0.00    -0.266 OA
ATOM     15  C   LIG    1        4.071  -0.578   2.096  0.00  0.00    +0.151 A 
ATOM     16  N   LIG    1        3.817  -1.912   2.125  0.00  0.00    -0.260 N 
ATOM     17  C   LIG    1        4.611  -2.929   2.772  0.00  0.00    +0.173 C 
ATOM     18  N   LIG    1        2.724  -2.260   1.404  0.00  0.00    -0.174 NA
BRANCH   7  19
ATOM     19  C   LIG    1        1.095  -1.051  -0.002  0.00  0.00    +0.059 C 
BRANCH  19  21
ATOM     20  C   LIG    1       -0.216   0.565   1.473  0.00  0.00    +0.004 C 
ATOM     21  C   LIG    1       -0.205  -0.781   0.760  0.00  0.00    +0.003 C 
ENDBRANCH  19  21
ENDBRANCH   7  19
ENDBRANCH   1  10
BRANCH   5  22
ATOM     22  S   LIG    1        2.159   6.224  -1.122  0.00  0.00    +0.061 S 
ATOM     23  O   LIG    1        2.101   7.644  -0.861  0.00  0.00    -0.153 OA
ATOM     24  O   LIG    1        0.953   5.410  -1.128  0.00  0.00    -0.153 OA
BRANCH  22  25
ATOM     25  N   LIG    1        2.983   5.975  -2.589  0.00  0.00    -0.174 NA
ATOM     26  C   LIG    1        2.137   5.911  -3.817  0.00  0.00    +0.124 C 
ATOM     27  C   LIG    1        1.865   7.304  -4.417  0.00  0.00    +0.101 C 
ATOM     28  N   LIG    1        3.062   8.129  -4.676  0.00  0.00    -0.303 NA
ATOM     29  C   LIG    1        3.779   7.715  -5.877  0.00  0.00    +0.105 C 
ATOM     30  C   LIG    1        3.930   8.149  -3.483  0.00  0.00    +0.101 C 
ATOM     31  C   LIG    1        4.218   6.779  -2.833  0.00  0.00    +0.124 C 
ENDBRANCH  22  25
ENDBRANCH   5  22
BRANCH   2  32
ATOM     32  O   LIG    1        5.960   3.797   2.772  0.00  0.00    -0.491 OA
BRANCH  32  33
ATOM     33  C   LIG    1        6.493   4.632   3.805  0.00  0.00    +0.226 C 
ATOM     34  C   LIG    1        6.848   3.751   4.990  0.00  0.00    +0.048 C 
ENDBRANCH  32  33
ENDBRANCH   2  32
TORSDOF 7
