REMARK  Name = *****
REMARK                            x       y       z     vdW  Elec       q    Type
REMARK                         _______ _______ _______ _____ _____    ______ ____
ROOT
ATOM      1  C   LIG    1        0.993   0.076   0.129  0.00  0.00    +0.149 C 
ATOM      2  N   LIG    1        2.459   0.056   0.044  0.00  0.00    -0.349 N 
ATOM      3  C   LIG    1        3.188  -1.170  -0.066  0.00  0.00    +0.063 C 
ATOM      4  C   LIG    1        2.611  -2.396  -0.102  0.00  0.00    +0.183 C 
ATOM      5  C   LIG    1        4.661  -1.034  -0.141  0.00  0.00    +0.027 C 
ATOM      6  C   LIG    1        5.268   0.164  -0.111  0.00  0.00    +0.003 C 
ATOM      7  C   LIG    1        4.488   1.372  -0.002  0.00  0.00    +0.018 C 
ATOM      8  C   LIG    1        3.154   1.269   0.069  0.00  0.00    +0.086 C 
ENDROOT
BRANCH   4   9
ATOM      9  N   LIG    1        3.275  -3.551  -0.204  0.00  0.00    -0.036 NA
ATOM     10  O   LIG    1        2.546  -4.549  -0.220  0.00  0.00    -0.144 OA
ENDBRANCH   4   9
TORSDOF 1
