REMARK  Name = *****
REMARK                            x       y       z     vdW  Elec       q    Type
REMARK                         _______ _______ _______ _____ _____    ______ ____
ROOT
ATOM      1  C   LIG    1        0.994   0.413   0.122  0.00  0.00    +0.073 C 
ATOM      2  C   LIG    1        2.494   0.156   0.022  0.00  0.00    +0.166 C 
ATOM      3  C   LIG    1        3.128   1.038  -1.046  0.00  0.00    +0.073 C 
ATOM      4  O   LIG    1        3.101   0.441   1.283  0.00  0.00    -0.341 OA
ATOM      5  C   LIG    1        3.377  -0.829   1.879  0.00  0.00    +0.187 C 
ATOM      6  C   LIG    1        3.556  -1.758   0.699  0.00  0.00    +0.179 C 
ATOM      7  C   LIG    1        5.008  -1.818   0.204  0.00  0.00    +0.197 C 
ATOM      8  O   LIG    1        5.768  -0.670   0.588  0.00  0.00    -0.342 OA
ATOM      9  C   LIG    1        5.901  -0.499   2.006  0.00  0.00    +0.228 C 
ATOM     10  O   LIG    1        6.163   0.879   2.295  0.00  0.00    -0.313 OA
ATOM     11  C   LIG    1        5.409   1.218   3.460  0.00  0.00    +0.169 C 
ATOM     12  C   LIG    1        4.632   2.505   3.197  0.00  0.00    +0.074 C 
ATOM     13  C   LIG    1        6.363   1.444   4.633  0.00  0.00    +0.074 C 
ATOM     14  O   LIG    1        4.516   0.156   3.814  0.00  0.00    -0.338 OA
ATOM     15  C   LIG    1        4.616  -0.818   2.772  0.00  0.00    +0.215 C 
ATOM     16  O   LIG    1        2.695  -1.222  -0.312  0.00  0.00    -0.341 OA
ENDROOT
BRANCH   9  17
ATOM     17  C   LIG    1        7.090  -1.343   2.522  0.00  0.00    +0.262 C 
BRANCH  17  18
ATOM     18  O   LIG    1        8.290  -0.945   1.861  0.00  0.00    -0.220 OA
BRANCH  18  19
ATOM     19  S   LIG    1        9.649  -1.715   2.269  0.00  0.00    +0.149 S 
ATOM     20  O   LIG    1        9.535  -3.082   1.821  0.00  0.00    -0.130 OA
ATOM     21  O   LIG    1        9.970  -1.368   3.631  0.00  0.00    -0.130 OA
BRANCH  19  22
ATOM     22  N   LIG    1       10.778  -0.970   1.291  0.00  0.00    -0.183 NA
ATOM     23  H   LIG    1       10.570  -1.138   0.309  0.00  0.00    +0.146 HD
ATOM     24  H   LIG    1       10.859   0.018   1.528  0.00  0.00    +0.146 HD
ENDBRANCH  19  22
ENDBRANCH  18  19
ENDBRANCH  17  18
ENDBRANCH   9  17
TORSDOF 4
