REMARK  Name = *****
REMARK                            x       y       z     vdW  Elec       q    Type
REMARK                         _______ _______ _______ _____ _____    ______ ____
ROOT
ATOM      1  C   LIG    1        2.631  -0.214   0.287  0.00  0.00    +0.095 C 
ENDROOT
BRANCH   1   2
ATOM      2  C   LIG    1        3.487  -0.790  -0.895  0.00  0.00    +0.033 C 
ATOM      3  C   LIG    1        3.494  -2.343  -1.085  0.00  0.00    +0.018 C 
ATOM      4  C   LIG    1        4.226  -2.438  -2.433  0.00  0.00    +0.015 C 
ATOM      5  C   LIG    1        3.166  -1.620  -3.176  0.00  0.00    +0.012 C 
ATOM      6  C   LIG    1        1.952  -2.431  -2.803  0.00  0.00    -0.027 C 
ATOM      7  C   LIG    1        2.151  -2.869  -1.541  0.00  0.00    -0.027 C 
ATOM      8  C   LIG    1        3.122  -0.313  -2.349  0.00  0.00    +0.015 C 
ENDBRANCH   1   2
BRANCH   1   9
ATOM      9  C   LIG    1        3.131  -0.815   1.624  0.00  0.00    -0.016 A 
ATOM     10  C   LIG    1        2.320  -1.658   2.405  0.00  0.00    +0.006 A 
ATOM     11  C   LIG    1        2.797  -2.253   3.579  0.00  0.00    +0.000 A 
ATOM     12  C   LIG    1        4.109  -2.045   3.988  0.00  0.00    +0.000 A 
ATOM     13  C   LIG    1        4.933  -1.208   3.243  0.00  0.00    +0.000 A 
ATOM     14  C   LIG    1        4.445  -0.586   2.085  0.00  0.00    +0.006 A 
ENDBRANCH   1   9
BRANCH   1  15
ATOM     15  O   LIG    1        1.262  -0.543   0.040  0.00  0.00    -0.384 OA
ATOM     16  H   LIG    1        0.754  -0.369   0.846  0.00  0.00    +0.211 HD
ENDBRANCH   1  15
BRANCH   1  17
ATOM     17  C   LIG    1        2.718   1.345   0.301  0.00  0.00    +0.055 C 
BRANCH  17  18
ATOM     18  C   LIG    1        1.857   2.062   1.369  0.00  0.00    +0.087 C 
BRANCH  18  19
ATOM     19  N   LIG    1        1.958   3.539   1.290  0.00  0.00    -0.302 NA
ATOM     20  C   LIG    1        1.035   4.219   2.219  0.00  0.00    +0.084 C 
ATOM     21  C   LIG    1        1.418   4.057   3.693  0.00  0.00    +0.015 C 
ATOM     22  C   LIG    1        2.866   4.475   3.947  0.00  0.00    +0.002 C 
ATOM     23  C   LIG    1        3.823   3.857   2.931  0.00  0.00    +0.015 C 
ATOM     24  C   LIG    1        3.317   4.059   1.502  0.00  0.00    +0.084 C 
ENDBRANCH  18  19
ENDBRANCH  17  18
ENDBRANCH   1  17
TORSDOF 6
