REMARK  Name = *****
REMARK                            x       y       z     vdW  Elec       q    Type
REMARK                         _______ _______ _______ _____ _____    ______ ____
ROOT
ATOM      1  C   LIG    1       -9.508  -1.931  -6.534  0.00  0.00    +0.047 C 
ATOM      2  C   LIG    1       -9.749  -3.368  -6.048  0.00  0.00    +0.046 C 
ATOM      3  C   LIG    1       -8.670  -4.183  -6.750  0.00  0.00    +0.179 C 
ATOM      4  O   LIG    1       -9.182  -5.487  -7.017  0.00  0.00    -0.493 OA
ATOM      5  C   LIG    1      -10.531  -5.439  -6.707  0.00  0.00    +0.095 C 
ATOM      6  C   LIG    1      -11.225  -6.566  -6.503  0.00  0.00    +0.014 C 
ATOM      7  C   LIG    1       -8.315  -3.450  -8.047  0.00  0.00    +0.076 C 
ATOM      8  C   LIG    1      -11.034  -4.050  -6.490  0.00  0.00    +0.081 C 
ATOM      9  C   LIG    1       -9.101  -2.133  -8.013  0.00  0.00    +0.125 C 
ENDROOT
BRANCH   1  11
ATOM     10  C   LIG    1       -7.242  -0.819  -6.126  0.00  0.00    -0.000 C 
ATOM     11  C   LIG    1       -8.432  -1.258  -5.677  0.00  0.00    -0.022 C 
BRANCH  10  12
ATOM     12  C   LIG    1       -6.125  -0.202  -5.340  0.00  0.00    +0.137 C 
BRANCH  12  13
ATOM     13  O   LIG    1       -4.988  -1.063  -5.488  0.00  0.00    -0.388 OA
ATOM     14  H   LIG    1       -5.135  -1.660  -6.241  0.00  0.00    +0.210 HD
ENDBRANCH  12  13
BRANCH  12  15
ATOM     15  C   LIG    1       -5.721   1.193  -5.859  0.00  0.00    +0.035 C 
BRANCH  15  16
ATOM     16  C   LIG    1       -6.808   2.277  -5.726  0.00  0.00    +0.003 C 
BRANCH  16  17
ATOM     17  C   LIG    1       -6.340   3.640  -6.269  0.00  0.00    -0.000 C 
BRANCH  17  19
ATOM     18  C   LIG    1       -6.857   6.080  -6.673  0.00  0.00    +0.004 C 
ATOM     19  C   LIG    1       -7.392   4.753  -6.138  0.00  0.00    -0.003 C 
ENDBRANCH  17  19
ENDBRANCH  16  17
ENDBRANCH  15  16
ENDBRANCH  12  15
ENDBRANCH  10  12
ENDBRANCH   1  11
BRANCH   9  20
ATOM     20  O   LIG    1      -10.248  -2.213  -8.851  0.00  0.00    -0.391 OA
ATOM     21  H   LIG    1       -9.933  -2.424  -9.748  0.00  0.00    +0.210 HD
ENDBRANCH   9  20
BRANCH   6  22
ATOM     22  C   LIG    1      -10.618  -7.936  -6.613  0.00  0.00    +0.031 C 
BRANCH  22  23
ATOM     23  C   LIG    1      -10.065  -8.443  -5.274  0.00  0.00    +0.015 C 
BRANCH  23  24
ATOM     24  C   LIG    1      -11.108  -8.521  -4.154  0.00  0.00    +0.121 C 
BRANCH  24  25
ATOM     25  C   LIG    1      -12.223  -9.470  -4.494  0.00  0.00    +0.305 C 
ATOM     26  O   LIG    1      -13.242  -9.137  -5.115  0.00  0.00    -0.251 OA
BRANCH  25  27
ATOM     27  O   LIG    1      -12.014 -10.733  -4.106  0.00  0.00    -0.481 OA
ATOM     28  H   LIG    1      -11.165 -10.865  -3.626  0.00  0.00    +0.295 HD
ENDBRANCH  25  27
ENDBRANCH  24  25
ENDBRANCH  23  24
ENDBRANCH  22  23
ENDBRANCH   6  22
TORSDOF 13
