REMARK  Name = *****
REMARK                            x       y       z     vdW  Elec       q    Type
REMARK                         _______ _______ _______ _____ _____    ______ ____
ROOT
ATOM      1  O   LIG    1        7.336  -1.544  -6.133  0.00  0.00    -0.267 OA
ATOM      2  C   LIG    1        7.246  -1.155  -4.977  0.00  0.00    +0.266 C 
ATOM      3  C   LIG    1        7.970   0.009  -4.458  0.00  0.00    +0.135 C 
ATOM      4  C   LIG    1        7.804   0.328  -3.167  0.00  0.00    +0.111 C 
ATOM      5  N   LIG    1        6.989  -0.385  -2.303  0.00  0.00    -0.273 N 
ATOM      6  C   LIG    1        6.206  -1.434  -2.778  0.00  0.00    +0.331 C 
ATOM      7  O   LIG    1        5.359  -2.021  -2.110  0.00  0.00    -0.246 OA
ATOM      8  N   LIG    1        6.431  -1.792  -4.080  0.00  0.00    -0.274 N 
ATOM      9  H   LIG    1        5.886  -2.565  -4.433  0.00  0.00    +0.173 HD
ENDROOT
BRANCH   5  10
ATOM     10  C1* LIG    1        6.759   0.066  -0.922  0.00  0.00    +0.226 C 
ATOM     11  O4* LIG    1        7.639   1.170  -0.607  0.00  0.00    -0.348 OA
ATOM     12  C4* LIG    1        8.642   0.714   0.331  0.00  0.00    +0.175 C 
ATOM     13  C3* LIG    1        8.485  -0.794   0.450  0.00  0.00    +0.150 C 
ATOM     14  C2* LIG    1        7.019  -0.983   0.156  0.00  0.00    +0.088 C 
BRANCH  13  15
ATOM     15  O3* LIG    1        8.848  -1.290   1.726  0.00  0.00    -0.389 OA
ATOM     16  H3* LIG    1        8.275  -0.886   2.401  0.00  0.00    +0.210 HD
ENDBRANCH  13  15
BRANCH  12  17
ATOM     17  C5* LIG    1       10.032   1.112  -0.165  0.00  0.00    +0.190 C 
BRANCH  17  18
ATOM     18  O5* LIG    1       10.131   2.532  -0.262  0.00  0.00    -0.392 OA
ATOM     19  H5* LIG    1        9.311   2.841  -0.690  0.00  0.00    +0.209 HD
ENDBRANCH  17  18
ENDBRANCH  12  17
ENDBRANCH   5  10
BRANCH   3  20
ATOM     20  C   LIG    1        8.830   0.805  -5.367  0.00  0.00    +0.424 C 
ATOM     21  F   LIG    1       10.115   0.821  -4.919  0.00  0.00    -0.166 F 
ATOM     22  F   LIG    1        8.430   2.107  -5.387  0.00  0.00    -0.166 F 
ATOM     23  F   LIG    1        8.877   0.401  -6.656  0.00  0.00    -0.166 F 
ENDBRANCH   3  20
TORSDOF 5
