REMARK  Name = *****
REMARK                            x       y       z     vdW  Elec       q    Type
REMARK                         _______ _______ _______ _____ _____    ______ ____
ROOT
ATOM      1  C   LIG    1       -1.581   3.423   5.842  0.00  0.00    +0.258 C 
ATOM      2  C   LIG    1       -1.932   3.763   7.372  0.00  0.00    +0.274 C 
ATOM      3  N   LIG    1       -1.424   5.126   7.115  0.00  0.00    -0.230 N 
ATOM      4  C   LIG    1       -0.828   5.817   8.155  0.00  0.00    +0.125 C 
ATOM      5  C   LIG    1       -0.670   5.239   9.384  0.00  0.00    -0.005 C 
ATOM      6  C   LIG    1       -1.071   3.798   9.621  0.00  0.00    +0.196 C 
ATOM      7  O   LIG    1       -1.205   3.068   8.402  0.00  0.00    -0.349 OA
ATOM      8  C   LIG    1       -0.781   4.782   5.973  0.00  0.00    +0.277 C 
ATOM      9  O   LIG    1        0.118   5.371   5.372  0.00  0.00    -0.270 OA
ENDROOT
BRANCH   1  10
ATOM     10  N   LIG    1       -0.716   2.230   5.644  0.00  0.00    -0.276 N 
ATOM     11  H   LIG    1        0.253   2.361   5.373  0.00  0.00    +0.152 HD
ATOM     12  C   LIG    1       -1.141   0.964   5.986  0.00  0.00    +0.234 C 
ATOM     13  O   LIG    1       -2.247   0.737   6.478  0.00  0.00    -0.275 OA
BRANCH  12  14
ATOM     14  C   LIG    1       -0.117  -0.142   5.751  0.00  0.00    +0.213 C 
BRANCH  14  15
ATOM     15  C   LIG    1        0.799  -0.337   6.953  0.00  0.00    -0.025 A 
ATOM     16  C   LIG    1        0.301  -0.255   8.263  0.00  0.00    +0.008 A 
ATOM     17  C   LIG    1        1.143  -0.426   9.360  0.00  0.00    +0.045 A 
ATOM     18  C   LIG    1        2.487  -0.702   9.159  0.00  0.00    +0.117 A 
ATOM     19  C   LIG    1        3.005  -0.816   7.873  0.00  0.00    +0.045 A 
ATOM     20  C   LIG    1        2.162  -0.637   6.771  0.00  0.00    +0.008 A 
BRANCH  18  21
ATOM     21  O   LIG    1        3.268  -0.860  10.264  0.00  0.00    -0.507 OA
ATOM     22  H   LIG    1        4.171  -1.078   9.982  0.00  0.00    +0.292 HD
ENDBRANCH  18  21
ENDBRANCH  14  15
BRANCH  14  23
ATOM     23  C   LIG    1       -0.737  -1.456   5.313  0.00  0.00    +0.321 C 
ATOM     24  O   LIG    1       -0.191  -2.202   4.507  0.00  0.00    -0.250 OA
BRANCH  23  25
ATOM     25  O   LIG    1       -1.906  -1.789   5.904  0.00  0.00    -0.480 OA
ATOM     26  H   LIG    1       -2.281  -1.075   6.472  0.00  0.00    +0.295 HD
ENDBRANCH  23  25
ENDBRANCH  14  23
ENDBRANCH  12  14
ENDBRANCH   1  10
BRANCH   1  28
ATOM     27  C   LIG    1       -2.303   3.954   3.560  0.00  0.00    +0.197 C 
ATOM     28  O   LIG    1       -2.660   3.531   4.875  0.00  0.00    -0.348 OA
ENDBRANCH   1  28
BRANCH   4  29
ATOM     29  C   LIG    1       -0.513   7.277   7.932  0.00  0.00    +0.351 C 
ATOM     30  O   LIG    1       -0.406   8.097   8.825  0.00  0.00    -0.244 OA
BRANCH  29  31
ATOM     31  O   LIG    1       -0.465   7.654   6.634  0.00  0.00    -0.476 OA
ATOM     32  H   LIG    1       -0.316   6.929   5.987  0.00  0.00    +0.295 HD
ENDBRANCH  29  31
ENDBRANCH   4  29
BRANCH   5  33
ATOM     33  C   LIG    1       -0.043   5.896  10.605  0.00  0.00    +0.112 C 
BRANCH  33  34
ATOM     34  S   LIG    1       -1.341   6.599  11.669  0.00  0.00    -0.080 S 
BRANCH  34  35
ATOM     35  C   LIG    1       -0.389   7.290  12.936  0.00  0.00    +0.209 A 
ATOM     36  N   LIG    1       -0.725   8.428  13.612  0.00  0.00    -0.223 N 
ATOM     37  C   LIG    1       -1.855   9.297  13.447  0.00  0.00    +0.177 C 
ATOM     38  N   LIG    1        0.192   8.669  14.567  0.00  0.00    -0.043 NA
ATOM     39  N   LIG    1        1.065   7.674  14.467  0.00  0.00    -0.022 NA
ATOM     40  N   LIG    1        0.715   6.806  13.456  0.00  0.00    -0.102 NA
ENDBRANCH  34  35
ENDBRANCH  33  34
ENDBRANCH   5  33
TORSDOF 12
