REMARK  Name = *****
REMARK                            x       y       z     vdW  Elec       q    Type
REMARK                         _______ _______ _______ _____ _____    ______ ____
ROOT
ATOM      1  C   LIG    1        1.010  -2.410   0.541  0.00  0.00    +0.080 C 
ATOM      2  C   LIG    1        0.422  -3.803   0.830  0.00  0.00    +0.170 C 
ATOM      3  O   LIG    1        1.067  -4.822   0.620  0.00  0.00    -0.292 OA
ATOM      4  C   LIG    1       -0.981  -3.819   1.238  0.00  0.00    +0.046 C 
ATOM      5  C   LIG    1       -1.906  -4.888   1.397  0.00  0.00    +0.011 C 
ATOM      6  C   LIG    1       -3.154  -4.316   1.684  0.00  0.00    +0.050 C 
ATOM      7  N   LIG    1       -2.973  -2.946   1.737  0.00  0.00    -0.346 NA
ATOM      8  C   LIG    1       -4.013  -1.958   1.926  0.00  0.00    +0.149 C 
ATOM      9  C   LIG    1       -4.305  -5.106   1.853  0.00  0.00    +0.026 C 
ATOM     10  C   LIG    1       -4.180  -6.494   1.753  0.00  0.00    +0.002 C 
ATOM     11  C   LIG    1       -2.948  -7.083   1.489  0.00  0.00    +0.001 C 
ATOM     12  C   LIG    1       -1.810  -6.293   1.300  0.00  0.00    +0.010 C 
ATOM     13  C   LIG    1       -1.647  -2.647   1.546  0.00  0.00    +0.030 C 
ATOM     14  C   LIG    1       -1.044  -1.284   1.613  0.00  0.00    +0.055 C 
ATOM     15  C   LIG    1        0.491  -1.409   1.597  0.00  0.00    +0.019 C 
ENDROOT
BRANCH   1  16
ATOM     16  C   LIG    1        0.646  -2.061  -0.912  0.00  0.00    +0.134 C 
BRANCH  16  19
ATOM     17  C   LIG    1       -0.207   0.959  -1.282  0.00  0.00    +0.086 C 
ATOM     18  C   LIG    1        1.042   0.315  -1.759  0.00  0.00    +0.106 A 
ATOM     19  N   LIG    1        1.419  -0.991  -1.519  0.00  0.00    -0.334 N 
ATOM     20  C   LIG    1        2.611  -1.195  -2.170  0.00  0.00    +0.107 A 
ATOM     21  C   LIG    1        2.905  -0.002  -2.780  0.00  0.00    +0.130 A 
ATOM     22  N   LIG    1        1.944   0.927  -2.501  0.00  0.00    -0.241 NA
ENDBRANCH  16  19
ENDBRANCH   1  16
TORSDOF 2
