REMARK  Name = *****
REMARK                            x       y       z     vdW  Elec       q    Type
REMARK                         _______ _______ _______ _____ _____    ______ ____
ROOT
ATOM      1  C   LIG    1        1.373  -0.692   0.794  0.00  0.00    +0.105 C 
ATOM      2  N   LIG    1        2.497  -0.983   1.690  0.00  0.00    -0.304 NA
ATOM      3  C   LIG    1        3.428   0.153   1.697  0.00  0.00    +0.093 C 
ATOM      4  C   LIG    1        4.695  -0.257   0.903  0.00  0.00    +0.045 C 
ATOM      5  C   LIG    1        4.325  -1.595   0.203  0.00  0.00    +0.045 C 
ATOM      6  C   LIG    1        3.765  -1.531  -1.206  0.00  0.00    -0.000 A 
ATOM      7  C   LIG    1        4.275  -0.639  -2.153  0.00  0.00    +0.132 A 
ATOM      8  O   LIG    1        5.517  -0.078  -2.004  0.00  0.00    -0.456 OA
ATOM      9  C   LIG    1        5.630   0.984  -1.151  0.00  0.00    +0.132 A 
ATOM     10  C   LIG    1        6.245   2.122  -1.695  0.00  0.00    +0.048 A 
ATOM     11  C   LIG    1        6.522   3.237  -0.904  0.00  0.00    +0.023 A 
ATOM     12  C   LIG    1        6.204   3.202   0.447  0.00  0.00    +0.042 A 
ATOM     13 CL   LIG    1        6.550   4.554   1.451  0.00  0.00    -0.084 Cl
ATOM     14  C   LIG    1        5.614   2.065   0.994  0.00  0.00    +0.027 A 
ATOM     15  C   LIG    1        3.650  -0.470  -3.394  0.00  0.00    +0.046 A 
ATOM     16  C   LIG    1        2.527  -1.221  -3.729  0.00  0.00    +0.004 A 
ATOM     17  C   LIG    1        2.087  -2.210  -2.858  0.00  0.00    +0.001 A 
ATOM     18  C   LIG    1        2.723  -2.381  -1.630  0.00  0.00    +0.007 A 
ATOM     19  C   LIG    1        5.305   0.932   0.204  0.00  0.00    +0.001 A 
ATOM     20  C   LIG    1        3.321  -2.127   1.255  0.00  0.00    +0.093 C 
ENDROOT
TORSDOF 0
