REMARK  Name = *****
REMARK                            x       y       z     vdW  Elec       q    Type
REMARK                         _______ _______ _______ _____ _____    ______ ____
ROOT
ATOM      1  C   LIG    1        1.308  -1.276  -0.705  0.00  0.00    +0.042 C 
ENDROOT
BRANCH   1   2
ATOM      2  C   LIG    1        1.675  -2.778  -0.711  0.00  0.00    +0.087 C 
BRANCH   2   6
ATOM      3  C   LIG    1        1.734  -4.760   2.029  0.00  0.00    +0.093 C 
ATOM      4  C   LIG    1        2.503  -5.389   0.845  0.00  0.00    +0.044 C 
ATOM      5  C   LIG    1        3.410  -4.417   0.063  0.00  0.00    +0.059 C 
ATOM      6  N   LIG    1        2.916  -3.037   0.021  0.00  0.00    -0.296 NA
ATOM      7  C   LIG    1        3.025  -2.591   1.407  0.00  0.00    +0.059 C 
ATOM      8  C   LIG    1        4.462  -3.008   1.724  0.00  0.00    +0.020 C 
ATOM      9  C   LIG    1        4.734  -4.192   0.801  0.00  0.00    +0.020 C 
ATOM     10  C   LIG    1        2.013  -3.274   2.333  0.00  0.00    +0.044 C 
BRANCH   3  13
ATOM     11  C   LIG    1        4.076  -6.064   3.826  0.00  0.00    +0.088 C 
ATOM     12  C   LIG    1        2.616  -6.116   4.037  0.00  0.00    +0.131 A 
ATOM     13  N   LIG    1        1.627  -5.561   3.252  0.00  0.00    -0.312 N 
ATOM     14  C   LIG    1        0.447  -5.819   3.936  0.00  0.00    +0.136 A 
ATOM     15  N   LIG    1        0.717  -6.538   5.004  0.00  0.00    -0.134 NA
ATOM     16  N   LIG    1        2.063  -6.713   5.072  0.00  0.00    -0.135 NA
BRANCH  14  17
ATOM     17  C   LIG    1       -0.921  -5.355   3.539  0.00  0.00    +0.051 C 
ATOM     18  C   LIG    1       -1.784  -5.065   4.770  0.00  0.00    +0.015 C 
ATOM     19  C   LIG    1       -1.594  -6.404   2.654  0.00  0.00    +0.015 C 
ENDBRANCH  14  17
ENDBRANCH   3  13
ENDBRANCH   2   6
ENDBRANCH   1   2
BRANCH   1  20
ATOM     20  C   LIG    1        0.029  -0.913  -1.492  0.00  0.00    +0.104 C 
BRANCH  20  21
ATOM     21  C   LIG    1       -1.233  -1.619  -1.000  0.00  0.00    -0.027 A 
ATOM     22  C   LIG    1       -2.227  -1.975  -1.926  0.00  0.00    +0.005 A 
ATOM     23  C   LIG    1       -3.373  -2.666  -1.520  0.00  0.00    +0.000 A 
ATOM     24  C   LIG    1       -3.549  -3.009  -0.182  0.00  0.00    +0.000 A 
ATOM     25  C   LIG    1       -2.591  -2.638   0.756  0.00  0.00    +0.000 A 
ATOM     26  C   LIG    1       -1.453  -1.931   0.354  0.00  0.00    +0.005 A 
ENDBRANCH  20  21
BRANCH  20  27
ATOM     27  N   LIG    1       -0.166   0.538  -1.439  0.00  0.00    -0.308 N 
ATOM     28  H   LIG    1       -0.510   0.927  -0.560  0.00  0.00    +0.149 HD
ATOM     29  C   LIG    1       -0.114   1.368  -2.531  0.00  0.00    +0.217 C 
ATOM     30  O   LIG    1        0.197   0.976  -3.661  0.00  0.00    -0.276 OA
BRANCH  29  31
ATOM     31  C   LIG    1       -0.422   2.832  -2.236  0.00  0.00    +0.075 C 
ATOM     32  C   LIG    1        0.818   3.584  -1.698  0.00  0.00    +0.018 C 
ATOM     33  C   LIG    1        1.783   4.076  -2.780  0.00  0.00    +0.076 C 
ATOM     34  C   LIG    1        1.073   4.857  -3.870  0.00  0.00    +0.249 C 
ATOM     35  F   LIG    1        0.580   6.010  -3.345  0.00  0.00    -0.206 F 
ATOM     36  F   LIG    1        1.962   5.221  -4.826  0.00  0.00    -0.206 F 
ATOM     37  C   LIG    1       -0.060   4.068  -4.494  0.00  0.00    +0.076 C 
ATOM     38  C   LIG    1       -1.053   3.593  -3.437  0.00  0.00    +0.018 C 
ENDBRANCH  29  31
ENDBRANCH  20  27
ENDBRANCH   1  20
TORSDOF 8
