REMARK  Name = *****
REMARK                            x       y       z     vdW  Elec       q    Type
REMARK                         _______ _______ _______ _____ _____    ______ ____
ROOT
ATOM      1  C   LIG    1        9.911   2.581  -0.580  0.00  0.00    +0.019 A 
ATOM      2  C   LIG    1       10.979   1.955  -1.240  0.00  0.00    +0.133 A 
ATOM      3  F   LIG    1       11.026   0.617  -1.341  0.00  0.00    -0.205 F 
ATOM      4  C   LIG    1       12.045   2.668  -1.803  0.00  0.00    +0.062 A 
ATOM      5  C   LIG    1       12.110   4.060  -1.706  0.00  0.00    +0.042 A 
ATOM      6  C   LIG    1       11.065   4.699  -1.029  0.00  0.00    +0.024 A 
ATOM      7  C   LIG    1        9.991   3.977  -0.478  0.00  0.00    +0.013 A 
ENDROOT
BRANCH   1  11
ATOM      8  C   LIG    1        6.535   0.374   0.833  0.00  0.00    +0.111 A 
ATOM      9  N   LIG    1        7.223  -0.075  -0.242  0.00  0.00    -0.251 NA
ATOM     10  C   LIG    1        8.292   0.653  -0.649  0.00  0.00    +0.120 A 
ATOM     11  C   LIG    1        8.752   1.829  -0.049  0.00  0.00    +0.003 A 
ATOM     12  C   LIG    1        8.013   2.256   1.065  0.00  0.00    +0.012 A 
ATOM     13  C   LIG    1        6.900   1.534   1.507  0.00  0.00    +0.032 A 
BRANCH   8  17
ATOM     14  C   LIG    1        2.623  -1.270   3.163  0.00  0.00    +0.199 C 
ATOM     15  N   LIG    1        3.714  -1.141   2.237  0.00  0.00    -0.166 N 
ATOM     16  N   LIG    1        4.579  -0.114   2.301  0.00  0.00    -0.129 NA
ATOM     17  C   LIG    1        5.380  -0.416   1.257  0.00  0.00    +0.223 A 
ATOM     18  N   LIG    1        4.988  -1.573   0.616  0.00  0.00    -0.106 NA
ATOM     19  N   LIG    1        3.917  -2.025   1.254  0.00  0.00    -0.046 NA
ENDBRANCH   8  17
ENDBRANCH   1  11
BRANCH   5  20
ATOM     20  N   LIG    1       13.208   4.781  -2.248  0.00  0.00    -0.234 N 
ATOM     21  C   LIG    1       13.380   6.156  -2.277  0.00  0.00    +0.408 C 
ATOM     22  O   LIG    1       12.634   7.030  -1.848  0.00  0.00    -0.226 OA
ATOM     23  O   LIG    1       14.562   6.470  -2.889  0.00  0.00    -0.443 OA
ATOM     24  C   LIG    1       15.320   5.266  -3.066  0.00  0.00    +0.222 C 
ATOM     25  C   LIG    1       14.295   4.158  -2.947  0.00  0.00    +0.164 C 
BRANCH  24  26
ATOM     26  C   LIG    1       16.425   5.184  -2.004  0.00  0.00    +0.218 C 
BRANCH  26  27
ATOM     27  O   LIG    1       17.357   6.257  -2.088  0.00  0.00    -0.283 OA
BRANCH  27  28
ATOM     28  P   LIG    1       18.304   6.393  -3.367  0.00  0.00    +0.472 P 
ATOM     29  O   LIG    1       17.643   6.615  -4.681  0.00  0.00    -0.228 OA
BRANCH  28  30
ATOM     30  O   LIG    1       19.223   5.089  -3.375  0.00  0.00    -0.303 OA
ATOM     31  H   LIG    1       19.650   4.985  -4.245  0.00  0.00    +0.222 HD
ENDBRANCH  28  30
BRANCH  28  32
ATOM     32  O   LIG    1       19.340   7.548  -3.007  0.00  0.00    -0.303 OA
ATOM     33  H   LIG    1       19.049   8.400  -3.383  0.00  0.00    +0.222 HD
ENDBRANCH  28  32
ENDBRANCH  27  28
ENDBRANCH  26  27
ENDBRANCH  24  26
ENDBRANCH   5  20
TORSDOF 8
