REMARK  Name = *****
REMARK                            x       y       z     vdW  Elec       q    Type
REMARK                         _______ _______ _______ _____ _____    ______ ____
ROOT
ATOM      1  C   LIG    1        0.976   0.619   1.749  0.00  0.00    +0.105 C 
ATOM      2  N   LIG    1        1.669   0.021   0.618  0.00  0.00    -0.299 NA
ATOM      3  C   LIG    1        1.740   0.865  -0.586  0.00  0.00    +0.119 C 
ATOM      4  C   LIG    1        2.018   2.348  -0.383  0.00  0.00    -0.027 A 
ATOM      5  C   LIG    1        3.306   2.917  -0.253  0.00  0.00    -0.010 A 
ATOM      6  C   LIG    1        3.410   4.316  -0.064  0.00  0.00    +0.007 A 
ATOM      7  C   LIG    1        2.285   5.136  -0.002  0.00  0.00    +0.000 A 
ATOM      8  C   LIG    1        1.023   4.579  -0.131  0.00  0.00    +0.000 A 
ATOM      9  C   LIG    1        4.630   2.150  -0.324  0.00  0.00    +0.179 C 
ATOM     10  O   LIG    1        4.526   0.738  -0.190  0.00  0.00    -0.366 OA
ATOM     11  C   LIG    1        4.148   0.314   1.118  0.00  0.00    +0.176 C 
ATOM     12  C   LIG    1        0.893   3.204  -0.321  0.00  0.00    +0.005 A 
ATOM     13  C   LIG    1        2.940  -0.615   0.988  0.00  0.00    +0.112 C 
ENDROOT
BRANCH   9  14
ATOM     14  C   LIG    1        5.403   2.399  -1.614  0.00  0.00    -0.015 A 
ATOM     15  C   LIG    1        6.774   2.707  -1.562  0.00  0.00    +0.006 A 
ATOM     16  C   LIG    1        7.502   2.922  -2.733  0.00  0.00    +0.000 A 
ATOM     17  C   LIG    1        6.875   2.827  -3.973  0.00  0.00    +0.000 A 
ATOM     18  C   LIG    1        5.521   2.508  -4.044  0.00  0.00    +0.000 A 
ATOM     19  C   LIG    1        4.791   2.289  -2.873  0.00  0.00    +0.006 A 
ENDBRANCH   9  14
TORSDOF 1
