REMARK  Name = *****
REMARK                            x       y       z     vdW  Elec       q    Type
REMARK                         _______ _______ _______ _____ _____    ______ ____
ROOT
ATOM      1  C   LIG    1        4.919  -3.013  -0.901  0.00  0.00    +0.138 C 
ENDROOT
BRANCH   1   2
ATOM      2  N   LIG    1        6.375  -2.945  -1.012  0.00  0.00    -0.323 N 
ATOM      3  C   LIG    1        7.114  -2.467  -2.062  0.00  0.00    +0.151 A 
ATOM      4  C   LIG    1        6.738  -1.996  -3.353  0.00  0.00    +0.282 C 
ATOM      5  N   LIG    1        7.834  -1.575  -4.117  0.00  0.00    -0.262 N 
ATOM      6  C   LIG    1        9.183  -1.614  -3.713  0.00  0.00    +0.333 C 
ATOM      7  N   LIG    1        9.449  -2.077  -2.424  0.00  0.00    -0.280 N 
ATOM      8  C   LIG    1       10.814  -2.135  -1.932  0.00  0.00    +0.155 C 
ATOM      9  O   LIG    1       10.084  -1.248  -4.474  0.00  0.00    -0.246 OA
ATOM     10  C   LIG    1        7.579  -1.088  -5.459  0.00  0.00    +0.157 C 
ATOM     11  O   LIG    1        5.579  -1.965  -3.735  0.00  0.00    -0.265 OA
ATOM     12  C   LIG    1        8.405  -2.492  -1.629  0.00  0.00    +0.168 A 
ATOM     13  N   LIG    1        8.505  -2.957  -0.353  0.00  0.00    -0.218 NA
ATOM     14  C   LIG    1        7.263  -3.220   0.000  0.00  0.00    +0.202 A 
ENDBRANCH   1   2
BRANCH   1  15
ATOM     15  C   LIG    1        4.391  -1.639  -0.458  0.00  0.00    +0.103 C 
BRANCH  15  16
ATOM     16  N   LIG    1        2.942  -1.485  -0.275  0.00  0.00    -0.311 NA
ATOM     17  H   LIG    1        2.455  -1.804  -1.117  0.00  0.00    +0.122 HD
BRANCH  16  19
ATOM     18  C   LIG    1        1.058   0.013   0.103  0.00  0.00    +0.024 C 
ATOM     19  C   LIG    1        2.581  -0.047  -0.053  0.00  0.00    +0.055 C 
BRANCH  19  20
ATOM     20  C   LIG    1        3.295   0.600   1.173  0.00  0.00    +0.053 C 
BRANCH  20  21
ATOM     21  C   LIG    1        3.000   2.065   1.443  0.00  0.00    -0.046 A 
ATOM     22  C   LIG    1        3.781   3.086   0.881  0.00  0.00    +0.003 A 
ATOM     23  C   LIG    1        3.512   4.430   1.169  0.00  0.00    +0.000 A 
ATOM     24  C   LIG    1        2.468   4.769   2.028  0.00  0.00    +0.000 A 
ATOM     25  C   LIG    1        1.695   3.764   2.602  0.00  0.00    +0.000 A 
ATOM     26  C   LIG    1        1.958   2.423   2.311  0.00  0.00    +0.003 A 
ENDBRANCH  20  21
ENDBRANCH  19  20
ENDBRANCH  16  19
ENDBRANCH  15  16
ENDBRANCH   1  15
TORSDOF 6
