REMARK  Name = *****
REMARK                            x       y       z     vdW  Elec       q    Type
REMARK                         _______ _______ _______ _____ _____    ______ ____
ROOT
ATOM      1  C   LIG    1       -5.193   1.886  -4.294  0.00  0.00    +0.129 C 
ATOM      2  C   LIG    1       -4.906   3.199  -3.498  0.00  0.00    +0.061 C 
ATOM      3  C   LIG    1       -3.788   3.017  -2.461  0.00  0.00    +0.190 C 
ATOM      4  C   LIG    1       -3.354   4.334  -1.849  0.00  0.00    +0.141 C 
ATOM      5  C   LIG    1       -3.573   5.528  -2.440  0.00  0.00    +0.047 C 
ATOM      6  C   LIG    1       -4.293   5.700  -3.758  0.00  0.00    +0.062 C 
ATOM      7  C   LIG    1       -3.575   6.743  -4.680  0.00  0.00    +0.096 C 
ATOM      8  C   LIG    1       -4.427   6.983  -5.944  0.00  0.00    +0.047 C 
ATOM      9  C   LIG    1       -3.270   8.035  -3.922  0.00  0.00    -0.002 A 
ATOM     10  C   LIG    1       -3.082   8.033  -2.525  0.00  0.00    +0.069 A 
ATOM     11  C   LIG    1       -2.785   9.233  -1.850  0.00  0.00    +0.128 A 
ATOM     12  C   LIG    1       -2.667  10.432  -2.542  0.00  0.00    +0.046 A 
ATOM     13  C   LIG    1       -2.819  10.445  -3.921  0.00  0.00    +0.004 A 
ATOM     14  C   LIG    1       -3.107   9.260  -4.604  0.00  0.00    +0.007 A 
ATOM     15  C   LIG    1       -3.141   6.772  -1.750  0.00  0.00    +0.197 C 
ATOM     16  O   LIG    1       -2.830   6.764  -0.558  0.00  0.00    -0.287 OA
ATOM     17  C   LIG    1       -2.598   2.331  -3.163  0.00  0.00    +0.210 C 
ATOM     18  O   LIG    1       -1.520   2.882  -3.380  0.00  0.00    -0.288 OA
ATOM     19  C   LIG    1       -2.878   0.974  -3.702  0.00  0.00    +0.121 C 
ATOM     20  C   LIG    1       -4.544   4.345  -4.469  0.00  0.00    +0.020 C 
ATOM     21  C   LIG    1       -4.109   0.806  -4.226  0.00  0.00    +0.127 C 
ENDROOT
BRANCH  19  22
ATOM     22  C   LIG    1       -1.841  -0.082  -3.588  0.00  0.00    +0.248 C 
ATOM     23  O   LIG    1       -0.926  -0.025  -2.775  0.00  0.00    -0.270 OA
ATOM     24  N   LIG    1       -1.962  -1.153  -4.420  0.00  0.00    -0.325 N 
ATOM     25  H   LIG    1       -2.821  -1.294  -4.941  0.00  0.00    +0.145 HD
ATOM     26  H   LIG    1       -1.327  -1.927  -4.288  0.00  0.00    +0.145 HD
ENDBRANCH  19  22
BRANCH   1  28
ATOM     27  C   LIG    1       -7.623   2.038  -4.585  0.00  0.00    +0.105 C 
ATOM     28  N   LIG    1       -6.516   1.231  -4.066  0.00  0.00    -0.298 NA
ATOM     29  C   LIG    1       -6.767   0.882  -2.662  0.00  0.00    +0.105 C 
ENDBRANCH   1  28
BRANCH   3  30
ATOM     30  O   LIG    1       -4.280   2.203  -1.393  0.00  0.00    -0.373 OA
ATOM     31  H   LIG    1       -3.678   2.390  -0.640  0.00  0.00    +0.211 HD
ENDBRANCH   3  30
BRANCH   4  32
ATOM     32  O   LIG    1       -2.780   4.192  -0.590  0.00  0.00    -0.507 OA
ATOM     33  H   LIG    1       -2.575   5.087  -0.236  0.00  0.00    +0.292 HD
ENDBRANCH   4  32
BRANCH   7  34
ATOM     34  O   LIG    1       -2.343   6.181  -5.141  0.00  0.00    -0.384 OA
ATOM     35  H   LIG    1       -1.592   6.642  -4.727  0.00  0.00    +0.211 HD
ENDBRANCH   7  34
BRANCH  11  36
ATOM     36  O   LIG    1       -2.587   9.312  -0.496  0.00  0.00    -0.506 OA
ATOM     37  H   LIG    1       -2.605   8.402  -0.126  0.00  0.00    +0.292 HD
ENDBRANCH  11  36
BRANCH  21  38
ATOM     38  O   LIG    1       -4.529  -0.424  -4.734  0.00  0.00    -0.509 OA
ATOM     39  H   LIG    1       -5.511  -0.342  -4.783  0.00  0.00    +0.292 HD
ENDBRANCH  21  38
TORSDOF 7
