REMARK  Name = *****
REMARK                            x       y       z     vdW  Elec       q    Type
REMARK                         _______ _______ _______ _____ _____    ______ ____
ROOT
ATOM      1  N   LIG    1        4.119   0.516   1.314  0.00  0.00    -0.078 NA
ATOM      2  C   LIG    1        4.379   1.288   2.326  0.00  0.00    +0.163 C 
ENDROOT
BRANCH   2   3
ATOM      3  C   LIG    1        3.665   2.517   2.705  0.00  0.00    +0.033 A 
ATOM      4  C   LIG    1        2.360   2.465   3.210  0.00  0.00    +0.051 A 
ATOM      5 CL   LIG    1        1.517   0.980   3.479  0.00  0.00    -0.083 Cl
ATOM      6  C   LIG    1        1.708   3.647   3.578  0.00  0.00    +0.021 A 
ATOM      7  C   LIG    1        2.357   4.876   3.459  0.00  0.00    +0.003 A 
ATOM      8  C   LIG    1        3.666   4.925   2.980  0.00  0.00    +0.021 A 
ATOM      9  C   LIG    1        4.323   3.748   2.607  0.00  0.00    +0.051 A 
ATOM     10 CL   LIG    1        5.950   3.883   2.039  0.00  0.00    -0.083 Cl
ENDBRANCH   2   3
BRANCH   1  12
ATOM     11  C   LIG    1        2.548   0.043  -0.205  0.00  0.00    +0.404 C 
ATOM     12  N   LIG    1        3.073   0.986   0.508  0.00  0.00    +0.044 NA
BRANCH  11  13
ATOM     13  N   LIG    1        1.534   0.247  -1.077  0.00  0.00    -0.287 N 
ATOM     14  H   LIG    1        1.122   1.164  -0.943  0.00  0.00    +0.255 HD
ATOM     15  H   LIG    1        0.837  -0.485  -1.018  0.00  0.00    +0.255 HD
ENDBRANCH  11  13
BRANCH  11  16
ATOM     16  N   LIG    1        2.912  -1.262  -0.182  0.00  0.00    -0.287 N 
ATOM     17  H   LIG    1        3.755  -1.320   0.390  0.00  0.00    +0.255 HD
ATOM     18  H   LIG    1        3.094  -1.615  -1.113  0.00  0.00    +0.255 HD
ENDBRANCH  11  16
ENDBRANCH   1  12
TORSDOF 4
