REMARK  Name = *****
REMARK                            x       y       z     vdW  Elec       q    Type
REMARK                         _______ _______ _______ _____ _____    ______ ____
ROOT
ATOM      1  C   LIG    1        5.272  -1.929   0.246  0.00  0.00    +0.086 C 
ATOM      2  C   LIG    1        6.396  -1.442   0.990  0.00  0.00    +0.089 C 
ATOM      3 CL   LIG    1        7.518  -0.341   0.208  0.00  0.00    -0.079 Cl
ATOM      4  C   LIG    1        6.840  -2.040   2.213  0.00  0.00    +0.073 C 
ATOM      5  C   LIG    1        6.307  -3.296   2.546  0.00  0.00    +0.050 C 
ATOM      6  C   LIG    1        6.846  -4.071   3.690  0.00  0.00    +0.203 C 
ATOM      7  C   LIG    1        7.938  -3.482   4.489  0.00  0.00    +0.122 C 
ATOM      8  C   LIG    1        8.315  -2.239   4.151  0.00  0.00    +0.105 C 
ATOM      9  O   LIG    1        6.421  -5.187   3.966  0.00  0.00    -0.286 OA
ATOM     10  C   LIG    1        5.296  -3.868   1.790  0.00  0.00    +0.054 C 
ATOM     11  N   LIG    1        7.803  -1.474   3.114  0.00  0.00    -0.341 NA
ATOM     12  C   LIG    1        4.781  -3.179   0.698  0.00  0.00    +0.146 C 
ATOM     13  F   LIG    1        3.777  -3.806   0.068  0.00  0.00    -0.203 F 
ENDROOT
BRANCH   1  16
ATOM     14  C   LIG    1        2.393  -2.039  -1.616  0.00  0.00    +0.068 C 
ATOM     15  C   LIG    1        3.925  -2.041  -1.872  0.00  0.00    +0.123 C 
ATOM     16  N   LIG    1        4.707  -1.288  -0.866  0.00  0.00    -0.325 NA
ATOM     17  C   LIG    1        4.616   0.171  -1.034  0.00  0.00    +0.105 C 
ATOM     18  C   LIG    1        3.484   0.810  -0.240  0.00  0.00    +0.019 C 
ATOM     19  C   LIG    1        2.126   0.114  -0.270  0.00  0.00    +0.003 C 
ATOM     20  C   LIG    1        1.772  -0.632  -1.558  0.00  0.00    +0.020 C 
BRANCH  14  21
ATOM     21  N   LIG    1        1.711  -2.810  -2.675  0.00  0.00    -0.326 NA
ATOM     22  H   LIG    1        2.043  -3.775  -2.641  0.00  0.00    +0.118 HD
ATOM     23  H   LIG    1        0.714  -2.857  -2.464  0.00  0.00    +0.118 HD
ENDBRANCH  14  21
ENDBRANCH   1  16
BRANCH  11  24
ATOM     24  C   LIG    1        8.064  -0.018   3.209  0.00  0.00    +0.087 C 
ATOM     25  C   LIG    1        7.000   1.046   3.084  0.00  0.00    +0.027 C 
ATOM     26  C   LIG    1        7.601   0.766   4.421  0.00  0.00    +0.027 C 
ENDBRANCH  11  24
BRANCH   7  27
ATOM     27  C   LIG    1        8.579  -4.161   5.625  0.00  0.00    +0.342 C 
ATOM     28  O   LIG    1        9.449  -3.643   6.310  0.00  0.00    -0.245 OA
BRANCH  27  29
ATOM     29  O   LIG    1        8.139  -5.415   5.856  0.00  0.00    -0.477 OA
ATOM     30  H   LIG    1        7.415  -5.711   5.245  0.00  0.00    +0.295 HD
ENDBRANCH  27  29
ENDBRANCH   7  27
TORSDOF 5
