REMARK  Name = *****
REMARK                            x       y       z     vdW  Elec       q    Type
REMARK                         _______ _______ _______ _____ _____    ______ ____
ROOT
ATOM      1  C   LIG    1       -1.101   6.016  -0.695  0.00  0.00    +0.021 C 
ATOM      2  C   LIG    1       -2.507   6.040   0.013  0.00  0.00    +0.016 C 
ATOM      3  C   LIG    1       -2.519   6.142   1.539  0.00  0.00    +0.001 C 
ATOM      4  C   LIG    1       -1.680   7.305   2.038  0.00  0.00    +0.000 C 
ATOM      5  C   LIG    1       -0.261   7.209   1.514  0.00  0.00    +0.001 C 
ATOM      6  C   LIG    1       -0.216   7.138  -0.022  0.00  0.00    +0.016 C 
ENDROOT
BRANCH   1   9
ATOM      7  C   LIG    1       -0.718   2.132  -0.747  0.00  0.00    +0.122 A 
ATOM      8  C   LIG    1       -1.158   3.440  -1.043  0.00  0.00    +0.050 A 
ATOM      9  C   LIG    1       -0.496   4.586  -0.535  0.00  0.00    -0.033 A 
ATOM     10  C   LIG    1        0.700   4.364   0.164  0.00  0.00    +0.005 A 
ATOM     11  C   LIG    1        1.140   3.078   0.462  0.00  0.00    +0.004 A 
ATOM     12  C   LIG    1        0.430   1.968   0.018  0.00  0.00    +0.045 A 
BRANCH   7  13
ATOM     13  O   LIG    1       -1.468   1.111  -1.262  0.00  0.00    -0.475 OA
BRANCH  13  14
ATOM     14  C   LIG    1       -1.578  -0.195  -0.643  0.00  0.00    +0.203 C 
ATOM     15  C   LIG    1       -1.569  -0.193   0.904  0.00  0.00    +0.068 C 
BRANCH  14  17
ATOM     16  C   LIG    1       -0.402  -1.466  -2.654  0.00  0.00    +0.008 C 
ATOM     17  C   LIG    1       -0.534  -1.232  -1.149  0.00  0.00    +0.056 C 
ENDBRANCH  14  17
BRANCH  14  18
ATOM     18  C   LIG    1       -3.000  -0.594  -0.996  0.00  0.00    +0.349 C 
ATOM     19  O   LIG    1       -3.317  -1.681  -1.557  0.00  0.00    -0.246 OA
BRANCH  18  20
ATOM     20  O   LIG    1       -3.959   0.268  -0.634  0.00  0.00    -0.478 OA
ATOM     21  H   LIG    1       -3.558   1.084  -0.233  0.00  0.00    +0.295 HD
ENDBRANCH  18  20
ENDBRANCH  14  18
ENDBRANCH  13  14
ENDBRANCH   7  13
ENDBRANCH   1   9
BRANCH   1  22
ATOM     22  C   LIG    1       -1.224   6.382  -2.216  0.00  0.00    -0.037 A 
ATOM     23  C   LIG    1       -2.451   6.633  -2.859  0.00  0.00    +0.008 A 
ATOM     24  C   LIG    1       -2.509   7.018  -4.208  0.00  0.00    +0.046 A 
ATOM     25  C   LIG    1       -1.344   7.200  -4.954  0.00  0.00    +0.122 A 
ATOM     26  C   LIG    1       -0.127   6.904  -4.357  0.00  0.00    +0.046 A 
ATOM     27  C   LIG    1       -0.069   6.496  -3.013  0.00  0.00    +0.008 A 
BRANCH  25  28
ATOM     28  O   LIG    1       -1.532   7.644  -6.227  0.00  0.00    -0.475 OA
BRANCH  28  29
ATOM     29  C   LIG    1       -0.537   7.557  -7.250  0.00  0.00    +0.203 C 
ATOM     30  C   LIG    1       -1.350   7.752  -8.549  0.00  0.00    +0.068 C 
BRANCH  29  31
ATOM     31  C   LIG    1        0.181   6.183  -7.506  0.00  0.00    +0.349 C 
ATOM     32  O   LIG    1        1.072   6.054  -8.337  0.00  0.00    -0.246 OA
BRANCH  31  33
ATOM     33  O   LIG    1       -0.257   5.093  -6.830  0.00  0.00    -0.478 OA
ATOM     34  H   LIG    1       -0.994   5.200  -6.192  0.00  0.00    +0.295 HD
ENDBRANCH  31  33
ENDBRANCH  29  31
BRANCH  29  35
ATOM     35  C   LIG    1        0.529   8.720  -7.194  0.00  0.00    +0.056 C 
ATOM     36  C   LIG    1        0.067  10.162  -7.462  0.00  0.00    +0.008 C 
ENDBRANCH  29  35
ENDBRANCH  28  29
ENDBRANCH  25  28
ENDBRANCH   1  22
TORSDOF 12
