REMARK  Name = *****
REMARK                            x       y       z     vdW  Elec       q    Type
REMARK                         _______ _______ _______ _____ _____    ______ ____
ROOT
ATOM      1  N   LIG    1        2.277  -2.400  -0.799  0.00  0.00    -0.248 N 
ATOM      2  C   LIG    1        1.446  -2.634  -1.988  0.00  0.00    +0.163 C 
ATOM      3  C   LIG    1        1.674  -1.618  -3.121  0.00  0.00    +0.050 C 
ATOM      4  N   LIG    1        1.720  -3.944  -2.581  0.00  0.00    -0.325 N 
ATOM      5  H   LIG    1        1.131  -4.128  -3.390  0.00  0.00    +0.148 HD
ATOM      6  C   LIG    1        1.746  -5.012  -1.688  0.00  0.00    +0.042 A 
ATOM      7  C   LIG    1        2.170  -4.827  -0.378  0.00  0.00    +0.060 A 
ATOM      8  C   LIG    1        2.297  -5.913   0.495  0.00  0.00    +0.045 A 
ATOM      9  C   LIG    1        2.003  -7.207   0.055  0.00  0.00    +0.124 A 
ATOM     10  C   LIG    1        1.597  -7.415  -1.262  0.00  0.00    +0.069 A 
ATOM     11 CL   LIG    1        1.210  -8.968  -1.907  0.00  0.00    -0.082 Cl
ATOM     12  C   LIG    1        1.490  -6.317  -2.131  0.00  0.00    +0.045 A 
ATOM     13  C   LIG    1        2.474  -3.462   0.099  0.00  0.00    +0.254 C 
ATOM     14  O   LIG    1        2.836  -3.355   1.270  0.00  0.00    -0.270 OA
ENDROOT
BRANCH   1  17
ATOM     15  C   LIG    1        4.787  -1.289   0.488  0.00  0.00    +0.045 C 
ATOM     16  C   LIG    1        3.484  -0.540   0.373  0.00  0.00    -0.029 A 
ATOM     17  C   LIG    1        2.323  -1.067  -0.240  0.00  0.00    +0.041 A 
ATOM     18  C   LIG    1        1.173  -0.254  -0.303  0.00  0.00    +0.024 A 
ATOM     19  C   LIG    1        1.165   1.047   0.200  0.00  0.00    +0.002 A 
ATOM     20  C   LIG    1        2.302   1.558   0.804  0.00  0.00    +0.000 A 
ATOM     21  C   LIG    1        3.446   0.768   0.900  0.00  0.00    +0.005 A 
ENDBRANCH   1  17
BRANCH   9  22
ATOM     22  S   LIG    1        2.158  -8.557   1.174  0.00  0.00    +0.057 S 
ATOM     23  O   LIG    1        3.255  -9.396   0.743  0.00  0.00    -0.153 OA
ATOM     24  O   LIG    1        0.843  -9.057   1.481  0.00  0.00    -0.153 OA
BRANCH  22  25
ATOM     25  N   LIG    1        2.697  -7.846   2.601  0.00  0.00    -0.203 NA
ATOM     26  H   LIG    1        3.635  -8.175   2.832  0.00  0.00    +0.144 HD
ATOM     27  H   LIG    1        2.009  -7.979   3.343  0.00  0.00    +0.144 HD
ENDBRANCH  22  25
ENDBRANCH   9  22
TORSDOF 3
