REMARK  Name = *****
REMARK                            x       y       z     vdW  Elec       q    Type
REMARK                         _______ _______ _______ _____ _____    ______ ____
ROOT
ATOM      1  C   LIG    1        7.005  -0.008   2.311  0.00  0.00    +0.113 C 
ENDROOT
BRANCH   1   2
ATOM      2  C   LIG    1        5.603   0.621   2.237  0.00  0.00    +0.233 C 
BRANCH   2   3
ATOM      3  N   LIG    1        4.601  -0.123   2.995  0.00  0.00    -0.233 N 
ATOM      4  H   LIG    1        4.196  -0.932   2.511  0.00  0.00    +0.291 HD
BRANCH   3   5
ATOM      5  C   LIG    1        4.191   0.062   4.288  0.00  0.00    +0.326 C 
ATOM      6  C   LIG    1        3.169  -0.616   4.881  0.00  0.00    +0.474 C 
BRANCH   5   8
ATOM      7  C   LIG    1        4.993   1.005   6.493  0.00  0.00    +0.273 C 
ATOM      8  N   LIG    1        4.881   0.998   5.051  0.00  0.00    -0.236 N 
ATOM      9  H   LIG    1        5.793   1.155   4.618  0.00  0.00    +0.291 HD
ENDBRANCH   5   8
BRANCH   6  10
ATOM     10  N   LIG    1        2.297  -1.545   4.213  0.00  0.00    +0.080 N 
ATOM     11  O   LIG    1        1.419  -2.069   4.929  0.00  0.00    -0.576 OA
ATOM     12  O   LIG    1        2.430  -1.742   3.010  0.00  0.00    +0.041 OA
ENDBRANCH   6  10
ENDBRANCH   3   5
ENDBRANCH   2   3
ENDBRANCH   1   2
BRANCH   1  13
ATOM     13  S   LIG    1        7.712  -0.080   4.006  0.00  0.00    -0.151 S 
BRANCH  13  14
ATOM     14  C   LIG    1        9.299  -0.897   3.653  0.00  0.00    +0.125 C 
BRANCH  14  15
ATOM     15  C   LIG    1       10.177  -0.047   2.799  0.00  0.00    +0.059 A 
ATOM     16  N   LIG    1       10.144  -0.239   1.430  0.00  0.00    -0.247 NA
ATOM     17  C   LIG    1       10.983   0.570   0.814  0.00  0.00    +0.092 A 
ATOM     18  S   LIG    1       11.803   1.670   1.855  0.00  0.00    -0.079 S 
ATOM     19  C   LIG    1       11.056   0.935   3.212  0.00  0.00    +0.071 A 
BRANCH  17  20
ATOM     20  C   LIG    1       11.303   0.542  -0.670  0.00  0.00    +0.146 C 
BRANCH  20  21
ATOM     21  N   LIG    1       10.226   0.102  -1.588  0.00  0.00    -0.302 NA
ATOM     22  C   LIG    1        9.086   1.010  -1.562  0.00  0.00    +0.105 C 
ATOM     23  C   LIG    1        9.823  -1.285  -1.361  0.00  0.00    +0.105 C 
ENDBRANCH  20  21
ENDBRANCH  17  20
ENDBRANCH  14  15
ENDBRANCH  13  14
ENDBRANCH   1  13
TORSDOF 10
