REMARK  Name = *****
REMARK                            x       y       z     vdW  Elec       q    Type
REMARK                         _______ _______ _______ _____ _____    ______ ____
ROOT
ATOM      1  C   LIG    1        5.652  -0.224  -3.067  0.00  0.00    -0.028 A 
ATOM      2  C   LIG    1        5.144   0.792  -3.855  0.00  0.00    +0.006 A 
ATOM      3  C   LIG    1        4.460   1.932  -3.508  0.00  0.00    +0.009 A 
ATOM      4  C   LIG    1        3.591   1.816  -2.499  0.00  0.00    -0.017 A 
ATOM      5  C   LIG    1        3.819   0.667  -1.675  0.00  0.00    +0.009 A 
ATOM      6  C   LIG    1        4.871  -0.300  -1.919  0.00  0.00    +0.006 A 
ENDROOT
BRANCH   4   7
ATOM      7  C   LIG    1        2.554   2.846  -2.338  0.00  0.00    -0.007 A 
ATOM      8  C   LIG    1        1.831   3.620  -3.345  0.00  0.00    +0.030 A 
ATOM      9  C   LIG    1        0.840   4.534  -2.890  0.00  0.00    +0.012 A 
ATOM     10  C   LIG    1        0.559   4.726  -1.516  0.00  0.00    +0.001 A 
ATOM     11  C   LIG    1        1.289   4.036  -0.592  0.00  0.00    +0.001 A 
ATOM     12  C   LIG    1        2.264   3.151  -0.980  0.00  0.00    +0.009 A 
BRANCH   8  13
ATOM     13  C   LIG    1        1.935   3.578  -4.840  0.00  0.00    +0.205 A 
ATOM     14  N   LIG    1        1.178   4.353  -5.658  0.00  0.00    -0.133 NA
ATOM     15  N   LIG    1        1.554   3.909  -6.868  0.00  0.00    -0.176 N 
ATOM     16  H   LIG    1        1.101   4.204  -7.727  0.00  0.00    +0.214 HD
ATOM     17  N   LIG    1        2.537   3.011  -6.867  0.00  0.00    -0.049 NA
ATOM     18  N   LIG    1        2.755   2.761  -5.584  0.00  0.00    -0.108 NA
ENDBRANCH   8  13
ENDBRANCH   4   7
BRANCH   1  19
ATOM     19  C   LIG    1        6.969  -1.060  -3.303  0.00  0.00    +0.158 C 
BRANCH  19  21
ATOM     20  C   LIG    1        9.197  -1.518  -4.680  0.00  0.00    +0.112 A 
ATOM     21  N   LIG    1        7.924  -0.922  -4.490  0.00  0.00    -0.324 N 
ATOM     22  C   LIG    1        7.769  -0.196  -5.663  0.00  0.00    +0.083 A 
ATOM     23  C   LIG    1        8.809  -0.461  -6.501  0.00  0.00    +0.153 A 
ATOM     24 CL   LIG    1        8.986   0.212  -8.060  0.00  0.00    -0.060 Cl
ATOM     25  N   LIG    1        9.662  -1.296  -5.918  0.00  0.00    -0.221 NA
BRANCH  20  26
ATOM     26  C   LIG    1       10.098  -2.191  -3.699  0.00  0.00    +0.074 C 
BRANCH  26  27
ATOM     27  C   LIG    1       10.111  -3.719  -3.819  0.00  0.00    +0.007 C 
BRANCH  27  29
ATOM     28  C   LIG    1       11.189  -5.856  -2.956  0.00  0.00    +0.004 C 
ATOM     29  C   LIG    1       11.167  -4.335  -2.890  0.00  0.00    -0.003 C 
ENDBRANCH  27  29
ENDBRANCH  26  27
ENDBRANCH  20  26
BRANCH  22  30
ATOM     30  C   LIG    1        6.739   0.696  -5.982  0.00  0.00    +0.212 C 
BRANCH  30  31
ATOM     31  O   LIG    1        5.656  -0.143  -6.376  0.00  0.00    -0.389 OA
ATOM     32  H   LIG    1        5.958  -0.766  -7.050  0.00  0.00    +0.210 HD
ENDBRANCH  30  31
ENDBRANCH  22  30
ENDBRANCH  19  21
ENDBRANCH   1  19
TORSDOF 9
