REMARK  Name = *****
REMARK                            x       y       z     vdW  Elec       q    Type
REMARK                         _______ _______ _______ _____ _____    ______ ____
ROOT
ATOM      1  O   LIG    1        0.997  -1.323  -2.836  0.00  0.00    -0.486 OA
ENDROOT
BRANCH   1   3
ATOM      2  C   LIG    1       -0.740  -1.402  -4.529  0.00  0.00    +0.162 A 
ATOM      3  C   LIG    1        0.501  -1.871  -4.007  0.00  0.00    +0.162 A 
ATOM      4  C   LIG    1        1.132  -2.920  -4.691  0.00  0.00    +0.049 A 
ATOM      5  C   LIG    1        0.546  -3.546  -5.795  0.00  0.00    +0.004 A 
ATOM      6  C   LIG    1       -0.677  -3.111  -6.274  0.00  0.00    +0.004 A 
ATOM      7  C   LIG    1       -1.308  -2.040  -5.651  0.00  0.00    +0.049 A 
BRANCH   2   8
ATOM      8  O   LIG    1       -1.389  -0.369  -3.885  0.00  0.00    -0.484 OA
BRANCH   8   9
ATOM      9  C   LIG    1       -2.264   0.471  -4.648  0.00  0.00    +0.256 C 
BRANCH   9  11
ATOM     10  C   LIG    1       -2.073   2.670  -5.838  0.00  0.00    +0.007 C 
ATOM     11  C   LIG    1       -1.534   1.701  -5.140  0.00  0.00    +0.006 C 
ENDBRANCH   9  11
ENDBRANCH   8   9
ENDBRANCH   2   8
ENDBRANCH   1   3
BRANCH   1  12
ATOM     12  C   LIG    1        2.351  -1.596  -2.409  0.00  0.00    +0.261 C 
BRANCH  12  13
ATOM     13  C   LIG    1        2.507  -2.175  -0.978  0.00  0.00    +0.166 C 
BRANCH  13  14
ATOM     14  O   LIG    1        3.903  -2.557  -0.813  0.00  0.00    -0.387 OA
ATOM     15  H   LIG    1        4.398  -1.795  -0.458  0.00  0.00    +0.210 HD
ENDBRANCH  13  14
BRANCH  13  16
ATOM     16  C   LIG    1        2.107  -1.318   0.264  0.00  0.00    +0.115 C 
BRANCH  16  17
ATOM     17  N   LIG    1        0.847  -0.567   0.240  0.00  0.00    -0.311 NA
ATOM     18  H   LIG    1        0.082  -1.215   0.038  0.00  0.00    +0.122 HD
BRANCH  17  19
ATOM     19  C   LIG    1        0.553   0.154   1.500  0.00  0.00    +0.048 C 
ATOM     20  C   LIG    1       -0.812   0.859   1.429  0.00  0.00    +0.024 C 
ATOM     21  C   LIG    1        1.588   1.232   1.843  0.00  0.00    +0.024 C 
ENDBRANCH  17  19
ENDBRANCH  16  17
ENDBRANCH  13  16
ENDBRANCH  12  13
ENDBRANCH   1  12
TORSDOF 10
