REMARK  Name = *****
REMARK                            x       y       z     vdW  Elec       q    Type
REMARK                         _______ _______ _______ _____ _____    ______ ____
ROOT
ATOM      1  C   LIG    1        6.929  -2.177  -2.086  0.00  0.00    +0.167 C 
ATOM      2  O   LIG    1        6.512  -1.486  -3.022  0.00  0.00    -0.292 OA
ENDROOT
BRANCH   1   7
ATOM      3  C   LIG    1        6.831  -7.937  -2.702  0.00  0.00    +0.044 C 
ATOM      4  C   LIG    1        6.848  -6.446  -2.534  0.00  0.00    -0.050 A 
ATOM      5  C   LIG    1        6.665  -5.872  -1.272  0.00  0.00    +0.004 A 
ATOM      6  C   LIG    1        6.683  -4.486  -1.115  0.00  0.00    +0.012 A 
ATOM      7  C   LIG    1        6.912  -3.656  -2.220  0.00  0.00    +0.018 A 
ATOM      8  C   LIG    1        7.106  -4.225  -3.482  0.00  0.00    +0.012 A 
ATOM      9  C   LIG    1        7.080  -5.614  -3.637  0.00  0.00    +0.004 A 
ENDBRANCH   1   7
BRANCH   1  10
ATOM     10  C   LIG    1        7.448  -1.563  -0.794  0.00  0.00    +0.071 C 
ATOM     11  C   LIG    1        6.306  -0.792  -0.118  0.00  0.00    +0.017 C 
BRANCH  10  12
ATOM     12  C   LIG    1        8.643  -0.644  -1.106  0.00  0.00    +0.095 C 
BRANCH  12  13
ATOM     13  N   LIG    1        9.824  -1.296  -1.716  0.00  0.00    -0.302 NA
ATOM     14  C   LIG    1       10.845  -0.296  -2.081  0.00  0.00    +0.084 C 
ATOM     15  C   LIG    1       11.583   0.298  -0.875  0.00  0.00    +0.015 C 
ATOM     16  C   LIG    1       12.156  -0.787   0.034  0.00  0.00    +0.002 C 
ATOM     17  C   LIG    1       11.118  -1.859   0.352  0.00  0.00    +0.015 C 
ATOM     18  C   LIG    1       10.448  -2.364  -0.925  0.00  0.00    +0.084 C 
ENDBRANCH  12  13
ENDBRANCH  10  12
ENDBRANCH   1  10
TORSDOF 4
