REMARK  Name = *****
REMARK                            x       y       z     vdW  Elec       q    Type
REMARK                         _______ _______ _______ _____ _____    ______ ____
ROOT
ATOM      1  N   LIG    1        0.673  -1.816   0.175  0.00  0.00    -0.312 N 
ATOM      2  C   LIG    1        0.300  -2.813  -0.681  0.00  0.00    +0.165 A 
ATOM      3  N   LIG    1        0.204  -2.760  -2.016  0.00  0.00    -0.216 NA
ATOM      4  C   LIG    1       -0.159  -3.960  -2.517  0.00  0.00    +0.225 A 
ATOM      5  N   LIG    1       -0.390  -5.115  -1.851  0.00  0.00    -0.219 NA
ATOM      6  C   LIG    1       -0.258  -5.117  -0.505  0.00  0.00    +0.147 A 
ATOM      7  C   LIG    1        0.073  -3.913   0.139  0.00  0.00    +0.147 A 
ATOM      8  N   LIG    1        0.233  -3.577   1.466  0.00  0.00    -0.231 NA
ATOM      9  C   LIG    1        0.600  -2.310   1.451  0.00  0.00    +0.201 A 
ENDROOT
BRANCH   6  10
ATOM     10  N   LIG    1       -0.455  -6.314   0.170  0.00  0.00    -0.341 N 
ATOM     11  H   LIG    1       -0.674  -6.192   1.151  0.00  0.00    +0.144 HD
ATOM     12  H   LIG    1       -1.004  -6.972  -0.365  0.00  0.00    +0.144 HD
ENDBRANCH   6  10
BRANCH   1  13
ATOM     13  C   LIG    1        1.111  -0.484  -0.202  0.00  0.00    +0.156 C 
BRANCH  13  15
ATOM     14  C   LIG    1        3.009   0.964  -0.982  0.00  0.00    +0.039 C 
ATOM     15  C   LIG    1        2.628  -0.418  -0.456  0.00  0.00    +0.136 C 
BRANCH  15  16
ATOM     16  O   LIG    1        3.279  -0.648   0.799  0.00  0.00    -0.363 OA
BRANCH  16  17
ATOM     17  C   LIG    1        4.707  -0.733   0.728  0.00  0.00    +0.286 C 
BRANCH  17  18
ATOM     18  P   LIG    1        5.348  -1.116   2.361  0.00  0.00    +0.353 P 
ATOM     19  O   LIG    1        6.705  -1.708   2.454  0.00  0.00    -0.256 OA
BRANCH  18  20
ATOM     20  O   LIG    1        4.247  -2.003   3.121  0.00  0.00    -0.323 OA
ATOM     21  H   LIG    1        4.567  -2.401   3.944  0.00  0.00    +0.220 HD
ENDBRANCH  18  20
BRANCH  18  22
ATOM     22  O   LIG    1        5.254   0.255   3.199  0.00  0.00    -0.323 OA
ATOM     23  H   LIG    1        5.755   0.217   4.031  0.00  0.00    +0.220 HD
ENDBRANCH  18  22
ENDBRANCH  17  18
ENDBRANCH  16  17
ENDBRANCH  15  16
ENDBRANCH  13  15
ENDBRANCH   1  13
TORSDOF 8
