REMARK  Name = *****
REMARK                            x       y       z     vdW  Elec       q    Type
REMARK                         _______ _______ _______ _____ _____    ______ ____
ROOT
ATOM      1  C   LIG    1        4.193  -6.638   0.139  0.00  0.00    +0.053 A 
ATOM      2  C   LIG    1        2.905  -7.114   0.496  0.00  0.00    +0.007 A 
ATOM      3  C   LIG    1        2.691  -8.499   0.560  0.00  0.00    -0.011 A 
ATOM      4  C   LIG    1        1.382  -8.993   0.759  0.00  0.00    +0.058 A 
ATOM      5  C   LIG    1        0.299  -8.131   0.967  0.00  0.00    +0.162 A 
ATOM      6  C   LIG    1        0.537  -6.760   1.082  0.00  0.00    +0.162 A 
ATOM      7  C   LIG    1        3.784  -9.359   0.427  0.00  0.00    +0.028 A 
ATOM      8  C   LIG    1        5.028  -8.801   0.177  0.00  0.00    +0.112 A 
ATOM      9  C   LIG    1        1.822  -6.263   0.799  0.00  0.00    +0.059 A 
ATOM     10  N   LIG    1        5.250  -7.485  -0.000  0.00  0.00    -0.259 NA
ENDROOT
BRANCH   6  11
ATOM     11  O   LIG    1       -0.486  -5.902   1.438  0.00  0.00    -0.491 OA
ATOM     12  C   LIG    1       -0.084  -4.759   2.185  0.00  0.00    +0.277 C 
ENDBRANCH   6  11
BRANCH   5  13
ATOM     13  O   LIG    1       -0.906  -8.784   1.050  0.00  0.00    -0.491 OA
ATOM     14  C   LIG    1       -2.106  -8.019   1.026  0.00  0.00    +0.277 C 
ENDBRANCH   5  13
BRANCH   1  15
ATOM     15  C   LIG    1        4.496  -5.156  -0.122  0.00  0.00    +0.091 C 
BRANCH  15  19
ATOM     16  C   LIG    1        2.844  -3.206  -3.668  0.00  0.00    +0.162 A 
ATOM     17  C   LIG    1        2.982  -2.481  -2.476  0.00  0.00    +0.162 A 
ATOM     18  C   LIG    1        3.520  -3.119  -1.335  0.00  0.00    +0.053 A 
ATOM     19  C   LIG    1        3.853  -4.493  -1.343  0.00  0.00    -0.038 A 
ATOM     20  C   LIG    1        3.665  -5.198  -2.538  0.00  0.00    +0.008 A 
ATOM     21  C   LIG    1        3.171  -4.562  -3.683  0.00  0.00    +0.050 A 
BRANCH  16  23
ATOM     22  C   LIG    1        1.673  -3.240  -5.728  0.00  0.00    +0.277 C 
ATOM     23  O   LIG    1        2.505  -2.538  -4.815  0.00  0.00    -0.491 OA
ENDBRANCH  16  23
BRANCH  17  24
ATOM     24  O   LIG    1        2.639  -1.154  -2.317  0.00  0.00    -0.491 OA
ATOM     25  C   LIG    1        1.527  -0.720  -3.110  0.00  0.00    +0.277 C 
ENDBRANCH  17  24
ENDBRANCH  15  19
ENDBRANCH   1  15
TORSDOF 6
