REMARK  Name = *****
REMARK                            x       y       z     vdW  Elec       q    Type
REMARK                         _______ _______ _______ _____ _____    ______ ____
ROOT
ATOM      1  C   LIG    1        6.145   0.381  -0.011  0.00  0.00    +0.132 C 
ATOM      2  C   LIG    1        6.322  -0.934   0.815  0.00  0.00    +0.014 C 
ATOM      3  C   LIG    1        5.079  -1.778   0.375  0.00  0.00    +0.002 C 
ATOM      4  C   LIG    1        5.283  -2.772  -0.807  0.00  0.00    -0.003 C 
ATOM      5  C   LIG    1        6.622  -3.548  -0.730  0.00  0.00    -0.000 C 
ATOM      6  C   LIG    1        7.761  -2.531  -0.686  0.00  0.00    +0.005 C 
ATOM      7  C   LIG    1        6.598  -4.578   0.433  0.00  0.00    +0.019 C 
ATOM      8  C   LIG    1        5.442  -5.528   0.168  0.00  0.00    -0.063 C 
ATOM      9  C   LIG    1        5.593  -6.832  -0.116  0.00  0.00    +0.045 C 
ATOM     10  C   LIG    1        6.943  -7.419  -0.291  0.00  0.00    +0.156 C 
ATOM     11  C   LIG    1        8.126  -6.480  -0.305  0.00  0.00    +0.079 C 
ATOM     12  O   LIG    1        7.055  -8.622  -0.513  0.00  0.00    -0.293 OA
ATOM     13  C   LIG    1        4.094  -4.861   0.138  0.00  0.00    +0.031 C 
ATOM     14  C   LIG    1        7.907  -5.345   0.681  0.00  0.00    +0.016 C 
ATOM     15  C   LIG    1        4.095  -3.762  -0.930  0.00  0.00    +0.008 C 
ATOM     16  C   LIG    1        3.985  -0.745   0.004  0.00  0.00    +0.008 C 
ATOM     17  C   LIG    1        7.690  -1.632   0.537  0.00  0.00    +0.011 C 
ATOM     18  C   LIG    1        4.638   0.634  -0.043  0.00  0.00    +0.049 C 
ENDROOT
BRANCH   1  20
ATOM     19  C   LIG    1        7.499   2.482   0.935  0.00  0.00    +0.007 C 
ATOM     20  C   LIG    1        6.889   1.536   0.516  0.00  0.00    -0.070 C 
ENDBRANCH   1  20
BRANCH   2  21
ATOM     21  C   LIG    1        6.305  -0.723   2.379  0.00  0.00    +0.007 C 
ATOM     22  C   LIG    1        5.127  -0.028   3.045  0.00  0.00    +0.004 C 
ENDBRANCH   2  21
BRANCH   1  23
ATOM     23  O   LIG    1        6.555   0.173  -1.364  0.00  0.00    -0.376 OA
ATOM     24  H   LIG    1        6.544   1.042  -1.801  0.00  0.00    +0.211 HD
ENDBRANCH   1  23
TORSDOF 3
