REMARK  Name = *****
REMARK                            x       y       z     vdW  Elec       q    Type
REMARK                         _______ _______ _______ _____ _____    ______ ____
ROOT
ATOM      1  C   LIG    1       10.352   1.440  -7.662  0.00  0.00    +0.122 C 
ENDROOT
BRANCH   1   2
ATOM      2  C   LIG    1       11.809   0.873  -7.453  0.00  0.00    +0.172 C 
ATOM      3  C   LIG    1       12.842   2.017  -7.375  0.00  0.00    +0.176 C 
ATOM      4  C   LIG    1       14.258   1.463  -7.187  0.00  0.00    +0.177 C 
ATOM      5  C   LIG    1       14.601   0.456  -8.288  0.00  0.00    +0.184 C 
ATOM      6  C   LIG    1       13.478  -0.600  -8.470  0.00  0.00    +0.207 C 
ATOM      7  O   LIG    1       12.179   0.033  -8.579  0.00  0.00    -0.356 OA
BRANCH   3   8
ATOM      8  O   LIG    1       12.851   2.786  -8.596  0.00  0.00    -0.387 OA
ATOM      9  H   LIG    1       12.604   2.188  -9.329  0.00  0.00    +0.210 HD
ENDBRANCH   3   8
BRANCH   4  10
ATOM     10  O   LIG    1       15.216   2.538  -7.255  0.00  0.00    -0.387 OA
ATOM     11  H   LIG    1       14.847   3.186  -7.892  0.00  0.00    +0.210 HD
ENDBRANCH   4  10
BRANCH   5  12
ATOM     12  O   LIG    1       15.907  -0.090  -8.067  0.00  0.00    -0.386 OA
ATOM     13  H   LIG    1       16.459   0.660  -7.764  0.00  0.00    +0.210 HD
ENDBRANCH   5  12
BRANCH   6  14
ATOM     14  S   LIG    1       13.453  -1.969  -7.247  0.00  0.00    -0.131 S 
ATOM     15  C   LIG    1       12.222  -3.049  -8.038  0.00  0.00    +0.087 C 
ENDBRANCH   6  14
ENDBRANCH   1   2
BRANCH   1  17
ATOM     16  C   LIG    1        9.237   3.505  -6.705  0.00  0.00    +0.231 C 
ATOM     17  N   LIG    1        9.926   2.306  -6.524  0.00  0.00    -0.307 N 
ATOM     18  H   LIG    1       10.190   2.061  -5.577  0.00  0.00    +0.149 HD
ATOM     19  O   LIG    1        8.983   3.939  -7.813  0.00  0.00    -0.274 OA
BRANCH  16  24
ATOM     20  C   LIG    1        7.863   6.430  -4.831  0.00  0.00    +0.005 C 
ATOM     21  C   LIG    1        9.111   6.115  -4.008  0.00  0.00    +0.088 C 
ATOM     22  N   LIG    1        9.879   5.130  -4.809  0.00  0.00    -0.294 NA
ATOM     23  C   LIG    1       10.686   5.831  -5.814  0.00  0.00    +0.105 C 
ATOM     24  C   LIG    1        8.826   4.242  -5.391  0.00  0.00    +0.143 C 
ATOM     25  C   LIG    1        7.564   5.105  -5.538  0.00  0.00    +0.033 C 
BRANCH  20  26
ATOM     26  C   LIG    1        6.698   6.979  -3.992  0.00  0.00    +0.004 C 
BRANCH  26  28
ATOM     27  C   LIG    1        4.297   7.794  -3.986  0.00  0.00    +0.004 C 
ATOM     28  C   LIG    1        5.445   7.259  -4.831  0.00  0.00    -0.003 C 
ENDBRANCH  26  28
ENDBRANCH  20  26
ENDBRANCH  16  24
ENDBRANCH   1  17
BRANCH   1  29
ATOM     29  C   LIG    1        9.311   0.331  -8.055  0.00  0.00    +0.100 C 
ATOM     30  C   LIG    1        8.072   0.873  -8.776  0.00  0.00    +0.026 C 
ATOM     31 CL   LIG    1        8.796  -0.661  -6.654  0.00  0.00    -0.120 Cl
ENDBRANCH   1  29
TORSDOF 10
