REMARK  Name = *****
REMARK                            x       y       z     vdW  Elec       q    Type
REMARK                         _______ _______ _______ _____ _____    ______ ____
ROOT
ATOM      1  O   LIG    1        6.582  -0.869   0.256  0.00  0.00    -0.461 OA
ENDROOT
BRANCH   1  10
ATOM      2  C   LIG    1        9.728  -2.063  -2.976  0.00  0.00    +0.193 C 
ATOM      3  N   LIG    1        9.972  -1.808  -1.494  0.00  0.00    +0.247 N 
ATOM      4  C   LIG    1       11.491  -2.025  -1.315  0.00  0.00    +0.193 C 
ATOM      5  C   LIG    1        9.540  -0.416  -0.946  0.00  0.00    +0.102 C 
ATOM      6  C   LIG    1        9.491  -0.535   0.574  0.00  0.00    +0.201 C 
ATOM      7  C   LIG    1        9.216  -1.979   0.862  0.00  0.00    +0.201 C 
ATOM      8  O   LIG    1       10.446  -1.369   1.243  0.00  0.00    -0.357 OA
ATOM      9  C   LIG    1        8.104  -0.142  -1.452  0.00  0.00    +0.102 C 
ATOM     10  C   LIG    1        7.092  -1.248  -1.052  0.00  0.00    +0.187 C 
ATOM     11  C   LIG    1        7.681  -2.680  -0.956  0.00  0.00    +0.102 C 
ATOM     12  C   LIG    1        9.153  -2.682  -0.489  0.00  0.00    +0.102 C 
ENDBRANCH   1  10
BRANCH   1  13
ATOM     13  C   LIG    1        5.313  -1.273   0.570  0.00  0.00    +0.317 C 
ATOM     14  O   LIG    1        4.624  -1.942  -0.182  0.00  0.00    -0.250 OA
BRANCH  13  15
ATOM     15  C   LIG    1        4.943  -0.903   2.009  0.00  0.00    +0.153 C 
BRANCH  15  16
ATOM     16  C   LIG    1        5.434   0.480   2.440  0.00  0.00    -0.032 A 
ATOM     17  C   LIG    1        6.374   0.611   3.477  0.00  0.00    +0.004 A 
ATOM     18  C   LIG    1        6.832   1.872   3.876  0.00  0.00    +0.000 A 
ATOM     19  C   LIG    1        6.359   3.021   3.248  0.00  0.00    +0.000 A 
ATOM     20  C   LIG    1        5.416   2.910   2.230  0.00  0.00    +0.000 A 
ATOM     21  C   LIG    1        4.954   1.652   1.830  0.00  0.00    +0.004 A 
ENDBRANCH  15  16
BRANCH  15  22
ATOM     22  C   LIG    1        3.426  -1.051   2.221  0.00  0.00    +0.175 C 
BRANCH  22  23
ATOM     23  O   LIG    1        2.952  -2.346   1.857  0.00  0.00    -0.394 OA
ATOM     24  H   LIG    1        2.992  -2.405   0.879  0.00  0.00    +0.209 HD
ENDBRANCH  22  23
ENDBRANCH  15  22
ENDBRANCH  13  15
ENDBRANCH   1  13
TORSDOF 6
