REMARK  Name = *****
REMARK                            x       y       z     vdW  Elec       q    Type
REMARK                         _______ _______ _______ _____ _____    ______ ____
ROOT
ATOM      1  N   LIG    1        2.008  -1.402   0.178  0.00  0.00    -0.298 N 
ATOM      2  H   LIG    1        2.648  -0.900  -0.441  0.00  0.00    +0.154 HD
ENDROOT
BRANCH   1   5
ATOM      3  C   LIG    1        3.486   0.371   1.960  0.00  0.00    +0.047 C 
ATOM      4  C   LIG    1        3.379  -1.116   2.191  0.00  0.00    -0.011 A 
ATOM      5  C   LIG    1        2.716  -1.966   1.270  0.00  0.00    +0.037 A 
ATOM      6  C   LIG    1        2.771  -3.355   1.468  0.00  0.00    +0.023 A 
ATOM      7  C   LIG    1        3.356  -3.899   2.611  0.00  0.00    +0.003 A 
ATOM      8  C   LIG    1        3.934  -3.063   3.558  0.00  0.00    +0.020 A 
ATOM      9  C   LIG    1        3.979  -1.687   3.334  0.00  0.00    +0.046 A 
ATOM     10 CL   LIG    1        4.799  -0.723   4.515  0.00  0.00    -0.083 Cl
ENDBRANCH   1   5
BRANCH   1  11
ATOM     11  C   LIG    1        1.020  -1.943  -0.660  0.00  0.00    +0.137 A 
ATOM     12  C   LIG    1       -0.067  -2.717  -0.241  0.00  0.00    +0.099 A 
ATOM     13  C   LIG    1       -0.955  -3.216  -1.207  0.00  0.00    +0.020 A 
ATOM     14  C   LIG    1       -0.800  -2.859  -2.539  0.00  0.00    +0.021 A 
ATOM     15  C   LIG    1        0.246  -2.018  -2.857  0.00  0.00    +0.113 A 
ATOM     16  N   LIG    1        1.154  -1.571  -1.956  0.00  0.00    -0.239 NA
BRANCH  12  17
ATOM     17  C   LIG    1       -0.430  -2.990   1.167  0.00  0.00    +0.340 C 
ATOM     18  O   LIG    1       -0.963  -4.029   1.509  0.00  0.00    -0.245 OA
BRANCH  17  19
ATOM     19  O   LIG    1       -0.276  -1.933   1.992  0.00  0.00    -0.477 OA
ATOM     20  H   LIG    1        0.237  -1.194   1.606  0.00  0.00    +0.295 HD
ENDBRANCH  17  19
ENDBRANCH  12  17
ENDBRANCH   1  11
TORSDOF 4
