REMARK  Name = *****
REMARK                            x       y       z     vdW  Elec       q    Type
REMARK                         _______ _______ _______ _____ _____    ______ ____
ROOT
ATOM      1  C   LIG    1       -0.740  -1.362  -1.224  0.00  0.00    -0.033 A 
ATOM      2  C   LIG    1       -1.304  -0.174  -0.740  0.00  0.00    +0.008 A 
ATOM      3  C   LIG    1       -2.678  -0.072  -0.495  0.00  0.00    +0.046 A 
ATOM      4  C   LIG    1       -3.526  -1.146  -0.762  0.00  0.00    +0.121 A 
ATOM      5  C   LIG    1       -2.974  -2.342  -1.225  0.00  0.00    +0.046 A 
ATOM      6  C   LIG    1       -1.592  -2.453  -1.451  0.00  0.00    +0.008 A 
ENDROOT
BRANCH   1   7
ATOM      7  C   LIG    1        0.756  -1.451  -1.452  0.00  0.00    +0.117 C 
BRANCH   7   8
ATOM      8  N   LIG    1        1.175  -1.712  -2.838  0.00  0.00    -0.302 NA
ATOM      9  H   LIG    1        0.768  -2.606  -3.114  0.00  0.00    +0.123 HD
BRANCH   8  11
ATOM     10  C   LIG    1        1.206   0.736  -3.566  0.00  0.00    +0.033 C 
ATOM     11  C   LIG    1        0.733  -0.695  -3.830  0.00  0.00    +0.137 C 
BRANCH  11  12
ATOM     12  C   LIG    1        1.240  -1.056  -5.248  0.00  0.00    +0.227 C 
ATOM     13  O   LIG    1        0.709  -0.644  -6.268  0.00  0.00    -0.274 OA
ATOM     14  N   LIG    1        2.395  -1.782  -5.327  0.00  0.00    -0.328 N 
ATOM     15  H   LIG    1        2.728  -2.003  -6.256  0.00  0.00    +0.145 HD
ATOM     16  H   LIG    1        2.652  -2.383  -4.555  0.00  0.00    +0.145 HD
ENDBRANCH  11  12
ENDBRANCH   8  11
ENDBRANCH   7   8
ENDBRANCH   1   7
BRANCH   4  17
ATOM     17  O   LIG    1       -4.887  -1.131  -0.577  0.00  0.00    -0.487 OA
BRANCH  17  18
ATOM     18  C   LIG    1       -5.497   0.152  -0.748  0.00  0.00    +0.264 C 
BRANCH  18  19
ATOM     19  C   LIG    1       -6.994   0.057  -0.573  0.00  0.00    -0.008 A 
ATOM     20  C   LIG    1       -7.573   0.282   0.684  0.00  0.00    +0.045 A 
ATOM     21  C   LIG    1       -8.954   0.222   0.836  0.00  0.00    +0.124 A 
ATOM     22  F   LIG    1       -9.496   0.452   2.040  0.00  0.00    -0.205 F 
ATOM     23  C   LIG    1       -9.781  -0.064  -0.243  0.00  0.00    +0.038 A 
ATOM     24  C   LIG    1       -9.217  -0.292  -1.497  0.00  0.00    +0.003 A 
ATOM     25  C   LIG    1       -7.830  -0.235  -1.661  0.00  0.00    +0.007 A 
ENDBRANCH  18  19
ENDBRANCH  17  18
ENDBRANCH   4  17
TORSDOF 7
