REMARK  Name = *****
REMARK                            x       y       z     vdW  Elec       q    Type
REMARK                         _______ _______ _______ _____ _____    ______ ____
ROOT
ATOM      1  C   LIG    1        3.209  -4.151  -0.193  0.00  0.00    +0.121 A 
ATOM      2  C   LIG    1        4.207  -3.355   0.377  0.00  0.00    +0.055 A 
ATOM      3  C   LIG    1        5.135  -3.893   1.293  0.00  0.00    +0.027 A 
ATOM      4  C   LIG    1        5.031  -5.248   1.642  0.00  0.00    +0.126 A 
ATOM      5  C   LIG    1        3.980  -6.023   1.126  0.00  0.00    +0.049 A 
ATOM      6  C   LIG    1        3.093  -5.476   0.198  0.00  0.00    +0.049 A 
ENDROOT
BRANCH   1   8
ATOM      7  C   LIG    1        2.410  -2.381  -1.554  0.00  0.00    +0.277 C 
ATOM      8  O   LIG    1        2.309  -3.736  -1.133  0.00  0.00    -0.495 OA
ENDBRANCH   1   8
BRANCH   4   9
ATOM      9  O   LIG    1        5.974  -5.766   2.492  0.00  0.00    -0.495 OA
ATOM     10  C   LIG    1        6.253  -7.154   2.305  0.00  0.00    +0.277 C 
ENDBRANCH   4   9
BRANCH   3  11
ATOM     11  C   LIG    1        6.241  -2.991   1.821  0.00  0.00    +0.165 C 
BRANCH  11  12
ATOM     12  C   LIG    1        7.150  -2.384   0.703  0.00  0.00    +0.081 C 
ATOM     13  C   LIG    1        7.819  -3.450  -0.159  0.00  0.00    +0.027 C 
BRANCH  12  14
ATOM     14  N   LIG    1        8.190  -1.502   1.276  0.00  0.00    -0.325 NA
ATOM     15  H   LIG    1        7.702  -0.846   1.895  0.00  0.00    +0.118 HD
ATOM     16  H   LIG    1        8.781  -2.051   1.901  0.00  0.00    +0.118 HD
ENDBRANCH  12  14
ENDBRANCH  11  12
BRANCH  11  17
ATOM     17  O   LIG    1        5.660  -1.890   2.547  0.00  0.00    -0.386 OA
ATOM     18  H   LIG    1        4.778  -2.170   2.845  0.00  0.00    +0.210 HD
ENDBRANCH  11  17
ENDBRANCH   3  11
TORSDOF 6
