REMARK  Name = *****
REMARK                            x       y       z     vdW  Elec       q    Type
REMARK                         _______ _______ _______ _____ _____    ______ ____
ROOT
ATOM      1  C   LIG    1        0.399  -7.011  -0.415  0.00  0.00    +0.252 C 
ATOM      2  N   LIG    1        1.559  -7.799  -0.318  0.00  0.00    -0.297 N 
ATOM      3  H   LIG    1        1.481  -8.803  -0.447  0.00  0.00    +0.150 HD
ATOM      4  O   LIG    1        0.479  -5.809  -0.161  0.00  0.00    -0.270 OA
ENDROOT
BRANCH   2   5
ATOM      5  CA  LIG    1        2.861  -7.111   0.042  0.00  0.00    +0.190 C 
ATOM      6  C   LIG    1        4.162  -7.852   0.420  0.00  0.00    +0.165 C 
ATOM      7  S   LIG    1        4.322  -9.601   0.051  0.00  0.00    -0.127 S 
ATOM      8  C   LIG    1        5.421  -9.350  -1.424  0.00  0.00    +0.042 C 
ATOM      9  CA  LIG    1        5.809  -7.850  -1.504  0.00  0.00    +0.201 C 
ATOM     10  C   LIG    1        4.543  -9.735  -2.623  0.00  0.00    +0.025 C 
ATOM     11  C   LIG    1        6.586 -10.332  -1.270  0.00  0.00    +0.025 C 
ATOM     12  N   LIG    1        4.872  -7.111  -0.642  0.00  0.00    -0.271 N 
ATOM     13  C   LIG    1        3.715  -6.593  -1.165  0.00  0.00    +0.240 C 
ATOM     14  O   LIG    1        3.541  -6.098  -2.267  0.00  0.00    -0.273 OA
BRANCH   9  15
ATOM     15  C   LIG    1        7.264  -7.504  -1.135  0.00  0.00    +0.327 C 
ATOM     16  O   LIG    1        8.249  -7.960  -1.698  0.00  0.00    -0.249 OA
BRANCH  15  17
ATOM     17  OXT LIG    1        7.375  -6.599  -0.133  0.00  0.00    -0.479 OA
ATOM     18  HXT LIG    1        6.489  -6.271   0.126  0.00  0.00    +0.295 HD
ENDBRANCH  15  17
ENDBRANCH   9  15
ENDBRANCH   2   5
BRANCH   1  20
ATOM     19  C   LIG    1       -1.270  -8.971  -0.488  0.00  0.00    +0.136 A 
ATOM     20  C   LIG    1       -0.938  -7.628  -0.796  0.00  0.00    +0.120 A 
ATOM     21  C   LIG    1       -1.933  -6.829  -1.443  0.00  0.00    +0.136 A 
ATOM     22  C   LIG    1       -3.182  -7.383  -1.783  0.00  0.00    +0.046 A 
ATOM     23  C   LIG    1       -3.490  -8.694  -1.470  0.00  0.00    +0.007 A 
ATOM     24  C   LIG    1       -2.550  -9.471  -0.810  0.00  0.00    +0.046 A 
BRANCH  19  26
ATOM     25  C   LIG    1       -0.787 -10.993   0.682  0.00  0.00    +0.277 C 
ATOM     26  O   LIG    1       -0.319  -9.770   0.107  0.00  0.00    -0.494 OA
ENDBRANCH  19  26
BRANCH  21  27
ATOM     27  O   LIG    1       -1.687  -5.500  -1.707  0.00  0.00    -0.494 OA
ATOM     28  C   LIG    1       -2.399  -4.927  -2.806  0.00  0.00    +0.277 C 
ENDBRANCH  21  27
ENDBRANCH   1  20
TORSDOF 6
