REMARK  Name = *****
REMARK                            x       y       z     vdW  Elec       q    Type
REMARK                         _______ _______ _______ _____ _____    ______ ____
ROOT
ATOM      1  N   LIG    1        0.212   0.585   0.967  0.00  0.00    -0.311 NA
ATOM      2  H   LIG    1        0.760   1.449   0.952  0.00  0.00    +0.122 HD
ENDROOT
BRANCH   1   3
ATOM      3  C   LIG    1        0.533  -0.124  -0.291  0.00  0.00    +0.115 C 
BRANCH   3   4
ATOM      4  C   LIG    1        2.038  -0.472  -0.404  0.00  0.00    +0.169 C 
BRANCH   4   5
ATOM      5  C   LIG    1        2.506  -1.418   0.724  0.00  0.00    +0.203 C 
ATOM      6  O   LIG    1        1.707  -2.612   0.648  0.00  0.00    -0.486 OA
ATOM      7  C   LIG    1        2.121  -3.650   1.429  0.00  0.00    +0.124 A 
ATOM      8  C   LIG    1        3.403  -3.731   1.988  0.00  0.00    -0.003 A 
ATOM      9  C   LIG    1        3.738  -4.846   2.762  0.00  0.00    +0.045 A 
ATOM     10  C   LIG    1        2.813  -5.873   2.942  0.00  0.00    +0.124 A 
ATOM     11  C   LIG    1        1.548  -5.802   2.366  0.00  0.00    +0.042 A 
ATOM     12  F   LIG    1        3.148  -6.942   3.670  0.00  0.00    -0.205 F 
ATOM     13  C   LIG    1        4.398  -2.628   1.785  0.00  0.00    +0.042 C 
ATOM     14  C   LIG    1        1.203  -4.688   1.608  0.00  0.00    +0.049 A 
ATOM     15  C   LIG    1        3.994  -1.758   0.602  0.00  0.00    +0.052 C 
ENDBRANCH   4   5
BRANCH   4  16
ATOM     16  O   LIG    1        2.791   0.751  -0.420  0.00  0.00    -0.387 OA
ATOM     17  H   LIG    1        3.667   0.548  -0.791  0.00  0.00    +0.210 HD
ENDBRANCH   4  16
ENDBRANCH   3   4
ENDBRANCH   1   3
BRANCH   1  18
ATOM     18  C   LIG    1       -1.229   0.901   1.017  0.00  0.00    +0.115 C 
BRANCH  18  19
ATOM     19  C   LIG    1       -1.635   1.617   2.328  0.00  0.00    +0.169 C 
BRANCH  19  20
ATOM     20  C   LIG    1       -1.011   3.019   2.490  0.00  0.00    +0.203 C 
ATOM     21  O   LIG    1       -1.386   3.824   1.360  0.00  0.00    -0.486 OA
ATOM     22  C   LIG    1       -1.073   5.153   1.469  0.00  0.00    +0.124 A 
ATOM     23  C   LIG    1       -0.743   5.771   2.682  0.00  0.00    -0.003 A 
ATOM     24  C   LIG    1       -0.423   7.136   2.688  0.00  0.00    +0.045 A 
ATOM     25  C   LIG    1       -0.472   7.861   1.503  0.00  0.00    +0.124 A 
ATOM     26  C   LIG    1       -0.831   7.260   0.306  0.00  0.00    +0.042 A 
ATOM     27  F   LIG    1       -0.170   9.169   1.520  0.00  0.00    -0.205 F 
ATOM     28  C   LIG    1       -0.708   4.989   3.961  0.00  0.00    +0.042 C 
ATOM     29  C   LIG    1       -1.135   5.897   0.289  0.00  0.00    +0.049 A 
ATOM     30  C   LIG    1       -1.460   3.676   3.799  0.00  0.00    +0.052 C 
ENDBRANCH  19  20
BRANCH  19  31
ATOM     31  O   LIG    1       -1.272   0.790   3.443  0.00  0.00    -0.387 OA
ATOM     32  H   LIG    1       -0.387   0.435   3.223  0.00  0.00    +0.210 HD
ENDBRANCH  19  31
ENDBRANCH  18  19
ENDBRANCH   1  18
TORSDOF 8
