REMARK  Name = *****
REMARK                            x       y       z     vdW  Elec       q    Type
REMARK                         _______ _______ _______ _____ _____    ______ ____
ROOT
ATOM      1  N   LIG    1        7.799   3.927   2.114  0.00  0.00    -0.310 N 
ENDROOT
BRANCH   1   2
ATOM      2  C   LIG    1        9.175   4.094   2.413  0.00  0.00    +0.121 A 
ATOM      3  N   LIG    1        9.945   2.995   2.524  0.00  0.00    -0.240 NA
ATOM      4  C   LIG    1       11.133   3.122   3.158  0.00  0.00    +0.113 A 
ATOM      5  C   LIG    1       11.558   4.258   3.812  0.00  0.00    +0.020 A 
ATOM      6  C   LIG    1       10.806   5.388   3.663  0.00  0.00    +0.005 A 
ATOM      7  C   LIG    1        9.743   5.300   2.803  0.00  0.00    +0.043 A 
ENDBRANCH   1   2
BRANCH   1   8
ATOM      8  C   LIG    1        7.487   2.791   1.188  0.00  0.00    +0.122 C 
BRANCH   8   9
ATOM      9  C   LIG    1        6.238   1.871   1.476  0.00  0.00    +0.103 C 
BRANCH   9  11
ATOM     10  C   LIG    1        4.155   3.214   1.511  0.00  0.00    +0.104 C 
ATOM     11  N   LIG    1        4.882   2.111   0.916  0.00  0.00    -0.307 NA
ATOM     12  C   LIG    1        4.867   2.230  -0.537  0.00  0.00    +0.104 C 
ENDBRANCH   9  11
ENDBRANCH   8   9
ENDBRANCH   1   8
BRANCH   1  13
ATOM     13  C   LIG    1        6.953   5.139   2.009  0.00  0.00    +0.141 C 
BRANCH  13  14
ATOM     14  C   LIG    1        7.064   6.241   3.059  0.00  0.00    -0.030 A 
ATOM     15  C   LIG    1        6.823   7.577   2.690  0.00  0.00    +0.005 A 
ATOM     16  C   LIG    1        6.881   8.589   3.648  0.00  0.00    +0.000 A 
ATOM     17  C   LIG    1        7.292   8.306   4.950  0.00  0.00    +0.000 A 
ATOM     18  C   LIG    1        7.651   7.006   5.296  0.00  0.00    +0.000 A 
ATOM     19  C   LIG    1        7.443   5.972   4.388  0.00  0.00    +0.005 A 
ENDBRANCH  13  14
ENDBRANCH   1  13
TORSDOF 6
