REMARK  Name = *****
REMARK                            x       y       z     vdW  Elec       q    Type
REMARK                         _______ _______ _______ _____ _____    ______ ____
ROOT
ATOM      1  O   LIG    1        1.763   0.307  -0.287  0.00  0.00    -0.252 OA
ATOM      2  C   LIG    1        2.937   0.190   0.039  0.00  0.00    +0.306 C 
ATOM      3  N   LIG    1        3.914   1.198   0.033  0.00  0.00    -0.272 N 
ATOM      4  C   LIG    1        4.995   0.792   0.922  0.00  0.00    +0.152 C 
ATOM      5  C   LIG    1        6.403   1.224   0.571  0.00  0.00    +0.302 C 
ATOM      6  S   LIG    1        6.931   0.216  -0.848  0.00  0.00    -0.004 S 
ATOM      7  C   LIG    1        5.856  -1.207  -0.303  0.00  0.00    +0.230 C 
ATOM      8  C   LIG    1        6.826  -2.318   0.103  0.00  0.00    +0.064 C 
ATOM      9  C   LIG    1        7.990  -1.647   0.815  0.00  0.00    +0.059 C 
ATOM     10  C   LIG    1        8.427  -0.511  -0.093  0.00  0.00    +0.278 C 
ATOM     11  C   LIG    1        4.942  -0.735   0.857  0.00  0.00    +0.155 C 
ATOM     12  N   LIG    1        3.532  -0.958   0.572  0.00  0.00    -0.271 N 
ENDROOT
BRANCH   3  13
ATOM     13  C   LIG    1        3.558   2.587  -0.180  0.00  0.00    +0.145 C 
BRANCH  13  14
ATOM     14  C   LIG    1        3.704   3.029  -1.617  0.00  0.00    -0.030 A 
ATOM     15  C   LIG    1        2.615   2.974  -2.500  0.00  0.00    +0.005 A 
ATOM     16  C   LIG    1        2.739   3.434  -3.814  0.00  0.00    +0.000 A 
ATOM     17  C   LIG    1        3.955   3.945  -4.265  0.00  0.00    +0.000 A 
ATOM     18  C   LIG    1        5.049   3.988  -3.405  0.00  0.00    +0.000 A 
ATOM     19  C   LIG    1        4.925   3.530  -2.092  0.00  0.00    +0.005 A 
ENDBRANCH  13  14
ENDBRANCH   3  13
BRANCH  12  20
ATOM     20  C   LIG    1        2.792  -2.129   0.995  0.00  0.00    +0.145 C 
BRANCH  20  21
ATOM     21  C   LIG    1        2.425  -2.081   2.463  0.00  0.00    -0.030 A 
ATOM     22  C   LIG    1        3.278  -2.613   3.443  0.00  0.00    +0.005 A 
ATOM     23  C   LIG    1        2.928  -2.563   4.795  0.00  0.00    +0.000 A 
ATOM     24  C   LIG    1        1.727  -1.975   5.185  0.00  0.00    +0.000 A 
ATOM     25  C   LIG    1        0.876  -1.433   4.224  0.00  0.00    +0.000 A 
ATOM     26  C   LIG    1        1.223  -1.484   2.872  0.00  0.00    +0.005 A 
ENDBRANCH  20  21
ENDBRANCH  12  20
TORSDOF 4
