REMARK  Name = *****
REMARK                            x       y       z     vdW  Elec       q    Type
REMARK                         _______ _______ _______ _____ _____    ______ ____
ROOT
ATOM      1  N   LIG    1        6.117  -0.443   0.538  0.00  0.00    -0.270 N 
ATOM      2  H   LIG    1        6.766   0.319   0.552  0.00  0.00    +0.156 HD
ATOM      3  C   LIG    1        6.629  -1.700   0.748  0.00  0.00    +0.229 C 
ATOM      4  O   LIG    1        5.985  -2.730   0.906  0.00  0.00    -0.275 OA
ENDROOT
BRANCH   1   9
ATOM      5  C   LIG    1        0.700   1.116  -0.154  0.00  0.00    +0.046 C 
ATOM      6  C   LIG    1        2.107   0.622   0.025  0.00  0.00    -0.024 A 
ATOM      7  C   LIG    1        2.487  -0.727   0.123  0.00  0.00    +0.076 A 
ATOM      8  N   LIG    1        3.806  -1.074   0.271  0.00  0.00    -0.232 NA
ATOM      9  C   LIG    1        4.759  -0.127   0.358  0.00  0.00    +0.126 A 
ATOM     10  C   LIG    1        4.446   1.222   0.272  0.00  0.00    +0.044 A 
ATOM     11  C   LIG    1        3.116   1.592   0.111  0.00  0.00    +0.009 A 
BRANCH   7  12
ATOM     12  C   LIG    1        1.566  -1.908   0.084  0.00  0.00    +0.001 A 
ATOM     13  C   LIG    1        2.037  -3.159  -0.372  0.00  0.00    +0.025 A 
ATOM     14  C   LIG    1        1.224  -4.303  -0.389  0.00  0.00    +0.059 A 
ATOM     15  C   LIG    1       -0.106  -4.218   0.036  0.00  0.00    +0.015 A 
ATOM     16  C   LIG    1       -0.604  -3.002   0.487  0.00  0.00    +0.001 A 
ATOM     17  C   LIG    1        0.228  -1.877   0.521  0.00  0.00    +0.010 A 
BRANCH  14  18
ATOM     18  C   LIG    1        1.688  -5.636  -0.888  0.00  0.00    +0.337 C 
ATOM     19  O   LIG    1        0.929  -6.481  -1.314  0.00  0.00    -0.245 OA
BRANCH  18  20
ATOM     20  O   LIG    1        3.032  -5.823  -0.782  0.00  0.00    -0.477 OA
ATOM     21  H   LIG    1        3.533  -5.125  -0.321  0.00  0.00    +0.295 HD
ENDBRANCH  18  20
ENDBRANCH  14  18
ENDBRANCH   7  12
ENDBRANCH   1   9
BRANCH   3  22
ATOM     22  C   LIG    1        8.159  -1.773   0.891  0.00  0.00    +0.072 C 
ATOM     23  C   LIG    1        8.672  -2.046   2.311  0.00  0.00    +0.022 C 
ATOM     24  C   LIG    1        8.795  -3.119   1.281  0.00  0.00    +0.022 C 
BRANCH  22  25
ATOM     25  C   LIG    1        9.018  -0.835   0.023  0.00  0.00    -0.029 A 
ATOM     26  C   LIG    1        9.472   0.397   0.541  0.00  0.00    +0.054 A 
ATOM     27  C   LIG    1       10.265   1.211  -0.240  0.00  0.00    +0.173 A 
ATOM     28  O   LIG    1       10.781   2.409   0.142  0.00  0.00    -0.395 OA
ATOM     29  C   LIG    1       11.511   2.754  -1.045  0.00  0.00    +0.589 C 
ATOM     30  O   LIG    1       11.398   1.805  -2.116  0.00  0.00    -0.396 OA
ATOM     31  F   LIG    1       12.820   2.891  -0.722  0.00  0.00    -0.125 F 
ATOM     32  F   LIG    1       11.067   3.958  -1.483  0.00  0.00    -0.125 F 
ATOM     33  C   LIG    1       10.617   0.866  -1.521  0.00  0.00    +0.173 A 
ATOM     34  C   LIG    1       10.198  -0.319  -2.084  0.00  0.00    +0.050 A 
ATOM     35  C   LIG    1        9.400  -1.170  -1.302  0.00  0.00    +0.008 A 
ENDBRANCH  22  25
ENDBRANCH   3  22
TORSDOF 6
