REMARK  Name = *****
REMARK                            x       y       z     vdW  Elec       q    Type
REMARK                         _______ _______ _______ _____ _____    ______ ____
ROOT
ATOM      1  C   LIG    1        3.249  -0.942  -0.745  0.00  0.00    +0.085 C 
ATOM      2  C   LIG    1        2.957  -2.412  -0.627  0.00  0.00    +0.264 C 
ATOM      3  O   LIG    1        2.189  -2.804   0.260  0.00  0.00    -0.267 OA
ATOM      4  N   LIG    1        3.552  -3.298  -1.516  0.00  0.00    -0.289 N 
ATOM      5  C   LIG    1        4.459  -2.843  -2.516  0.00  0.00    +0.149 A 
ATOM      6  C   LIG    1        4.694  -1.485  -2.619  0.00  0.00    +0.040 A 
ATOM      7  C   LIG    1        5.658  -1.159  -3.549  0.00  0.00    +0.126 A 
ATOM      8  N   LIG    1        6.308  -2.052  -4.309  0.00  0.00    -0.222 NA
ATOM      9  C   LIG    1        5.993  -3.343  -4.180  0.00  0.00    +0.222 A 
ATOM     10  N   LIG    1        5.069  -3.762  -3.308  0.00  0.00    -0.196 NA
ATOM     11  C   LIG    1        4.014  -0.489  -1.769  0.00  0.00    -0.023 C 
ATOM     12  C   LIG    1        4.250   0.968  -2.109  0.00  0.00    +0.045 C 
ENDROOT
BRANCH   4  13
ATOM     13  C   LIG    1        3.293  -4.742  -1.369  0.00  0.00    +0.092 C 
ATOM     14  C   LIG    1        2.607  -5.424  -2.560  0.00  0.00    +0.025 C 
ATOM     15  C   LIG    1        2.959  -6.895  -2.382  0.00  0.00    +0.002 C 
ATOM     16  C   LIG    1        4.394  -6.873  -1.876  0.00  0.00    +0.002 C 
ATOM     17  C   LIG    1        4.515  -5.613  -1.020  0.00  0.00    +0.025 C 
ENDBRANCH   4  13
BRANCH   1  19
ATOM     18  C   LIG    1        1.584  -0.346   1.198  0.00  0.00    +0.091 C 
ATOM     19  C   LIG    1        2.731   0.037   0.294  0.00  0.00    +0.166 C 
ATOM     20  O   LIG    1        3.280   1.125   0.471  0.00  0.00    -0.292 OA
ENDBRANCH   1  19
BRANCH   9  21
ATOM     21  N   LIG    1        6.614  -4.287  -4.989  0.00  0.00    -0.268 N 
ATOM     22  H   LIG    1        6.062  -5.117  -5.129  0.00  0.00    +0.156 HD
BRANCH  21  23
ATOM     23  C   LIG    1        7.640  -4.122  -5.919  0.00  0.00    +0.125 A 
ATOM     24  N   LIG    1        7.745  -5.035  -6.906  0.00  0.00    -0.238 NA
ATOM     25  C   LIG    1        8.758  -4.877  -7.813  0.00  0.00    +0.136 A 
ATOM     26  C   LIG    1        9.701  -3.845  -7.818  0.00  0.00    +0.048 A 
ATOM     27  C   LIG    1        9.565  -2.932  -6.780  0.00  0.00    +0.028 A 
ATOM     28  C   LIG    1        8.555  -3.077  -5.829  0.00  0.00    +0.045 A 
BRANCH  26  29
ATOM     29  N   LIG    1       10.757  -3.694  -8.727  0.00  0.00    -0.326 N 
ATOM     30  C   LIG    1       10.639  -2.489  -9.584  0.00  0.00    +0.120 C 
ATOM     31  C   LIG    1       11.895  -2.291 -10.468  0.00  0.00    +0.100 C 
ATOM     32  N   LIG    1       12.293  -3.494 -11.226  0.00  0.00    -0.313 NA
ATOM     33  H   LIG    1       11.518  -3.753 -11.838  0.00  0.00    +0.122 HD
ATOM     34  C   LIG    1       12.500  -4.590 -10.259  0.00  0.00    +0.100 C 
ATOM     35  C   LIG    1       11.239  -4.901  -9.421  0.00  0.00    +0.120 C 
ENDBRANCH  26  29
ENDBRANCH  21  23
ENDBRANCH   9  21
TORSDOF 5
