REMARK  Name = *****
REMARK                            x       y       z     vdW  Elec       q    Type
REMARK                         _______ _______ _______ _____ _____    ______ ____
ROOT
ATOM      1  C   LIG    1        2.873  -0.184  -1.211  0.00  0.00    +0.100 A 
ATOM      2  C   LIG    1        2.527  -1.498  -1.559  0.00  0.00    +0.131 A 
ATOM      3  C   LIG    1        3.129  -2.131  -2.650  0.00  0.00    +0.046 A 
ATOM      4  C   LIG    1        4.086  -1.451  -3.405  0.00  0.00    +0.004 A 
ATOM      5  C   LIG    1        4.440  -0.145  -3.072  0.00  0.00    +0.001 A 
ATOM      6  C   LIG    1        3.837   0.485  -1.981  0.00  0.00    +0.019 A 
ENDROOT
BRANCH   1   8
ATOM      7  O   LIG    1        2.606   1.709   0.213  0.00  0.00    -0.245 OA
ATOM      8  C   LIG    1        2.279   0.565  -0.063  0.00  0.00    +0.340 C 
BRANCH   8   9
ATOM      9  O   LIG    1        1.354  -0.110   0.650  0.00  0.00    -0.477 OA
ATOM     10  H   LIG    1        1.205  -1.017   0.300  0.00  0.00    +0.295 HD
ENDBRANCH   8   9
ENDBRANCH   1   8
BRANCH   2  11
ATOM     11  O   LIG    1        1.588  -2.180  -0.826  0.00  0.00    -0.506 OA
ATOM     12  H   LIG    1        1.482  -3.071  -1.212  0.00  0.00    +0.292 HD
ENDBRANCH   2  11
TORSDOF 3
