REMARK  Name = *****
REMARK                            x       y       z     vdW  Elec       q    Type
REMARK                         _______ _______ _______ _____ _____    ______ ____
ROOT
ATOM      1  C   LIG    1        6.213   2.572  -1.015  0.00  0.00    -0.016 C 
ATOM      2  C   LIG    1        7.437   2.964  -1.427  0.00  0.00    -0.011 C 
ATOM      3  C   LIG    1        8.689   2.271  -1.021  0.00  0.00    +0.024 A 
ATOM      4  C   LIG    1        9.652   1.811  -1.938  0.00  0.00    +0.129 A 
ATOM      5  C   LIG    1       10.822   1.195  -1.462  0.00  0.00    +0.046 A 
ATOM      6  C   LIG    1       11.058   1.051  -0.096  0.00  0.00    +0.004 A 
ATOM      7  C   LIG    1       10.138   1.549   0.816  0.00  0.00    +0.001 A 
ATOM      8  O   LIG    1        9.642   1.929  -3.305  0.00  0.00    -0.487 OA
ATOM      9  C   LIG    1        8.421   2.244  -3.971  0.00  0.00    +0.265 C 
ATOM     10  C   LIG    1        7.966   3.663  -3.736  0.00  0.00    -0.003 A 
ATOM     11  C   LIG    1        8.021   4.630  -4.748  0.00  0.00    +0.007 A 
ATOM     12  C   LIG    1        7.587   5.933  -4.500  0.00  0.00    +0.000 A 
ATOM     13  C   LIG    1        7.102   6.281  -3.240  0.00  0.00    +0.001 A 
ATOM     14  C   LIG    1        7.043   5.326  -2.224  0.00  0.00    +0.009 A 
ATOM     15  C   LIG    1        8.972   2.164   0.356  0.00  0.00    +0.012 A 
ATOM     16  C   LIG    1        7.469   4.016  -2.470  0.00  0.00    -0.011 A 
ENDROOT
BRANCH   1  17
ATOM     17  C   LIG    1        5.845   1.398  -0.132  0.00  0.00    +0.043 C 
BRANCH  17  18
ATOM     18  C   LIG    1        4.852   0.455  -0.843  0.00  0.00    +0.088 C 
BRANCH  18  20
ATOM     19  C   LIG    1        3.393  -1.458  -0.727  0.00  0.00    +0.104 C 
ATOM     20  N   LIG    1        4.482  -0.739  -0.055  0.00  0.00    -0.308 NA
ATOM     21  C   LIG    1        5.619  -1.648   0.124  0.00  0.00    +0.104 C 
ENDBRANCH  18  20
ENDBRANCH  17  18
ENDBRANCH   1  17
TORSDOF 3
