REMARK  Name = *****
REMARK                            x       y       z     vdW  Elec       q    Type
REMARK                         _______ _______ _______ _____ _____    ______ ____
ROOT
ATOM      1  C   LIG    1        4.500  -0.842  -0.821  0.00  0.00    +0.140 C 
ATOM      2  C   LIG    1        5.175  -2.151  -0.426  0.00  0.00    +0.239 C 
ATOM      3  O   LIG    1        5.108  -2.587   0.727  0.00  0.00    -0.274 OA
ATOM      4  N   LIG    1        5.782  -2.873  -1.439  0.00  0.00    -0.228 N 
ATOM      5  C   LIG    1        6.215  -4.223  -1.135  0.00  0.00    +0.143 C 
ATOM      6  C   LIG    1        6.224  -2.312  -2.617  0.00  0.00    +0.315 C 
ATOM      7  O   LIG    1        6.936  -2.897  -3.431  0.00  0.00    -0.252 OA
ATOM      8  N   LIG    1        5.877  -1.016  -2.848  0.00  0.00    -0.239 N 
ATOM      9  H   LIG    1        6.250  -0.605  -3.692  0.00  0.00    +0.159 HD
ATOM     10  C   LIG    1        5.143  -0.199  -2.037  0.00  0.00    +0.237 C 
ATOM     11  O   LIG    1        4.973   0.979  -2.350  0.00  0.00    -0.274 OA
ENDROOT
BRANCH   1  12
ATOM     12  C   LIG    1        3.001  -1.145  -1.185  0.00  0.00    +0.085 C 
ATOM     13  C   LIG    1        2.180  -1.774  -0.046  0.00  0.00    +0.023 C 
BRANCH  12  14
ATOM     14  C   LIG    1        2.880  -2.021  -2.372  0.00  0.00    -0.098 C 
ATOM     15  C   LIG    1        2.831  -2.750  -3.336  0.00  0.00    -0.102 C 
BRANCH  15  16
ATOM     16  C   LIG    1        2.816  -3.644  -4.497  0.00  0.00    +0.085 C 
ATOM     17  C   LIG    1        3.831  -4.766  -4.335  0.00  0.00    +0.017 C 
ENDBRANCH  15  16
ENDBRANCH  12  14
ENDBRANCH   1  12
BRANCH   1  18
ATOM     18  C   LIG    1        4.578   0.161   0.367  0.00  0.00    +0.053 C 
BRANCH  18  20
ATOM     19  C   LIG    1        6.659  -0.076   1.760  0.00  0.00    +0.004 C 
ATOM     20  C   LIG    1        5.984   0.537   0.778  0.00  0.00    -0.033 C 
ENDBRANCH  18  20
ENDBRANCH   1  18
TORSDOF 5
