REMARK  Name = *****
REMARK                            x       y       z     vdW  Elec       q    Type
REMARK                         _______ _______ _______ _____ _____    ______ ____
ROOT
ATOM      1  C   LIG    1        1.018   0.102  -0.259  0.00  0.00    +0.192 C 
ATOM      2  N   LIG    1        2.543   0.079  -0.137  0.00  0.00    +0.239 N 
ATOM      3  C   LIG    1        2.946  -1.185   0.653  0.00  0.00    +0.137 C 
ATOM      4  C   LIG    1        4.433  -1.190   1.027  0.00  0.00    +0.082 C 
ATOM      5  C   LIG    1        4.800   0.066   1.801  0.00  0.00    -0.051 C 
ATOM      6  C   LIG    1        5.323   0.072   3.055  0.00  0.00    -0.011 C 
ATOM      7  C   LIG    1        4.473   1.313   0.997  0.00  0.00    +0.082 C 
ATOM      8  C   LIG    1        2.987   1.348   0.623  0.00  0.00    +0.137 C 
ATOM      9  C   LIG    1        3.122   0.053  -1.548  0.00  0.00    +0.192 C 
ENDROOT
BRANCH   6  10
ATOM     10  C   LIG    1        5.624   1.359   3.723  0.00  0.00    -0.017 A 
ATOM     11  C   LIG    1        4.655   1.989   4.515  0.00  0.00    +0.008 A 
ATOM     12  C   LIG    1        4.938   3.208   5.134  0.00  0.00    +0.001 A 
ATOM     13  C   LIG    1        6.189   3.801   4.967  0.00  0.00    +0.000 A 
ATOM     14  C   LIG    1        7.160   3.176   4.186  0.00  0.00    +0.001 A 
ATOM     15  C   LIG    1        6.880   1.958   3.565  0.00  0.00    +0.008 A 
ENDBRANCH   6  10
BRANCH   6  16
ATOM     16  C   LIG    1        5.588  -1.207   3.752  0.00  0.00    -0.017 A 
ATOM     17  C   LIG    1        6.822  -1.852   3.597  0.00  0.00    +0.008 A 
ATOM     18  C   LIG    1        7.068  -3.063   4.245  0.00  0.00    +0.001 A 
ATOM     19  C   LIG    1        6.085  -3.635   5.051  0.00  0.00    +0.000 A 
ATOM     20  C   LIG    1        4.856  -2.997   5.215  0.00  0.00    +0.001 A 
ATOM     21  C   LIG    1        4.607  -1.784   4.569  0.00  0.00    +0.008 A 
ENDBRANCH   6  16
TORSDOF 2
