REMARK  Name = *****
REMARK                            x       y       z     vdW  Elec       q    Type
REMARK                         _______ _______ _______ _____ _____    ______ ____
ROOT
ATOM      1  C   UNK A  0        2.729  -0.678  -0.821  0.00  0.00    +0.030 A 
ATOM      2  C   UNK A  0        3.252  -1.976  -0.679  0.00  0.00    +0.024 A 
ATOM      3  C   UNK A  0        3.502  -2.801  -1.785  0.00  0.00    +0.015 A 
ATOM      4  C   UNK A  0        3.221  -2.343  -3.071  0.00  0.00    +0.037 A 
ATOM      5  C   UNK A  0        2.650  -1.086  -3.250  0.00  0.00    +0.015 A 
ATOM      6  C   UNK A  0        2.396  -0.280  -2.131  0.00  0.00    +0.024 A 
ENDROOT
BRANCH   4   7
ATOM      7  C   UNK A  0        3.564  -3.186  -4.231  0.00  0.00    +0.245 C 
ATOM      8  N   GLU A  1        4.462  -2.631  -5.111  0.00  0.00    -0.298 N 
ATOM      9  H   GLU A  1        4.752  -1.666  -4.977  0.00  0.00    +0.150 HD
ATOM     10  O   UNK A  0        3.185  -4.354  -4.302  0.00  0.00    -0.270 OA
BRANCH   8  11
ATOM     11  CA  GLU A  1        4.991  -3.356  -6.286  0.00  0.00    +0.182 C 
BRANCH  11  12
ATOM     12  C   GLU A  1        6.183  -4.272  -5.906  0.00  0.00    +0.325 C 
ATOM     13  O   GLU A  1        6.851  -4.903  -6.714  0.00  0.00    -0.249 OA
BRANCH  12  14
ATOM     14  OXT GLU A  1        6.440  -4.340  -4.576  0.00  0.00    -0.479 OA
ATOM     15  HXT GLU A  1        5.758  -3.863  -4.067  0.00  0.00    +0.295 HD
ENDBRANCH  12  14
ENDBRANCH  11  12
BRANCH  11  16
ATOM     16  CB  GLU A  1        5.374  -2.353  -7.392  0.00  0.00    +0.045 C 
BRANCH  16  17
ATOM     17  CG  GLU A  1        4.157  -1.554  -7.867  0.00  0.00    +0.123 C 
BRANCH  17  18
ATOM     18  CD  GLU A  1        4.517  -0.571  -8.941  0.00  0.00    +0.305 C 
ATOM     19  OE1 GLU A  1        4.475  -0.765 -10.146  0.00  0.00    -0.251 OA
BRANCH  18  20
ATOM     20  OE2 GLU A  1        4.916   0.615  -8.444  0.00  0.00    -0.481 OA
ATOM     21  HE2 GLU A  1        5.101   1.159  -9.240  0.00  0.00    +0.295 HD
ENDBRANCH  18  20
ENDBRANCH  17  18
ENDBRANCH  16  17
ENDBRANCH  11  16
ENDBRANCH   8  11
ENDBRANCH   4   7
BRANCH   1  23
ATOM     22  C   UNK A  0        2.574  -0.380   1.623  0.00  0.00    +0.130 C 
ATOM     23  N   UNK A  0        2.498   0.170   0.269  0.00  0.00    -0.327 N 
BRANCH  23  24
ATOM     24  C   UNK A  0        2.886   1.595   0.135  0.00  0.00    +0.161 C 
BRANCH  24  25
ATOM     25  C   UNK A  0        4.324   1.866   0.538  0.00  0.00    +0.077 A 
ATOM     26  N   UNK A  0        5.305   1.754  -0.386  0.00  0.00    -0.242 NA
ATOM     27  C   UNK A  0        6.587   1.961   0.053  0.00  0.00    +0.148 A 
ATOM     28  C   UNK A  0        6.898   2.257   1.386  0.00  0.00    +0.185 A 
ATOM     29  N   UNK A  0        8.140   2.415   1.830  0.00  0.00    -0.193 NA
ATOM     30  C   UNK A  0        9.129   2.276   0.955  0.00  0.00    +0.216 A 
ATOM     31  N   UNK A  0        8.967   2.040  -0.343  0.00  0.00    -0.198 NA
ATOM     32  N   UNK A  0        5.908   2.385   2.276  0.00  0.00    -0.232 NA
ATOM     33  C   UNK A  0        7.705   1.879  -0.768  0.00  0.00    +0.149 A 
ATOM     34  C   UNK A  0        4.639   2.192   1.846  0.00  0.00    +0.138 A 
BRANCH  30  35
ATOM     35  N   UNK A  0       10.418   2.410   1.421  0.00  0.00    -0.327 N 
ATOM     36  H   UNK A  0       11.039   2.695   0.676  0.00  0.00    +0.145 HD
ATOM     37  H   UNK A  0       10.435   2.949   2.275  0.00  0.00    +0.145 HD
ENDBRANCH  30  35
BRANCH  33  38
ATOM     38  N   UNK A  0        7.560   1.682  -2.154  0.00  0.00    -0.341 N 
ATOM     39  H   UNK A  0        6.879   0.954  -2.343  0.00  0.00    +0.144 HD
ATOM     40  H   UNK A  0        8.477   1.521  -2.559  0.00  0.00    +0.144 HD
ENDBRANCH  33  38
ENDBRANCH  24  25
ENDBRANCH  23  24
ENDBRANCH   1  23
TORSDOF 13
