REMARK  Name = *****
REMARK                            x       y       z     vdW  Elec       q    Type
REMARK                         _______ _______ _______ _____ _____    ______ ____
ROOT
ATOM      1  C   LIG    1        0.816  -0.022   0.007  0.00  0.00    +0.138 C 
ATOM      2  N   LIG    1        2.267  -0.031   0.143  0.00  0.00    -0.272 N 
ATOM      3  C   LIG    1        2.896  -1.280   0.077  0.00  0.00    +0.241 C 
ATOM      4  O   LIG    1        2.261  -2.334  -0.028  0.00  0.00    -0.273 OA
ATOM      5  C   LIG    1        4.418  -1.291   0.035  0.00  0.00    +0.238 C 
ATOM      6  N   LIG    1        4.940  -0.901   1.341  0.00  0.00    -0.273 NA
ATOM      7  C   LIG    1        4.797   0.329   1.705  0.00  0.00    +0.078 C 
ATOM      8  C   LIG    1        4.201   1.389   0.841  0.00  0.00    +0.023 A 
ATOM      9  C   LIG    1        4.892   2.613   0.762  0.00  0.00    +0.032 A 
ATOM     10  C   LIG    1        4.336   3.684   0.073  0.00  0.00    +0.042 A 
ATOM     11 CL   LIG    1        5.177   5.181  -0.008  0.00  0.00    -0.084 Cl
ATOM     12  C   LIG    1        3.099   3.551  -0.542  0.00  0.00    +0.022 A 
ATOM     13  C   LIG    1        2.423   2.328  -0.489  0.00  0.00    +0.025 A 
ATOM     14  C   LIG    1        2.970   1.214   0.176  0.00  0.00    +0.045 A 
ENDROOT
BRANCH   7  15
ATOM     15  C   LIG    1        5.282   0.693   3.072  0.00  0.00    +0.036 A 
ATOM     16  C   LIG    1        4.606   1.617   3.872  0.00  0.00    +0.133 A 
ATOM     17  F   LIG    1        3.482   2.211   3.447  0.00  0.00    -0.205 F 
ATOM     18  C   LIG    1        5.076   1.935   5.145  0.00  0.00    +0.039 A 
ATOM     19  C   LIG    1        6.225   1.316   5.636  0.00  0.00    +0.003 A 
ATOM     20  C   LIG    1        6.897   0.375   4.854  0.00  0.00    +0.001 A 
ATOM     21  C   LIG    1        6.425   0.059   3.578  0.00  0.00    +0.013 A 
ENDBRANCH   7  15
TORSDOF 1
