REMARK  Name = *****
REMARK                            x       y       z     vdW  Elec       q    Type
REMARK                         _______ _______ _______ _____ _____    ______ ____
ROOT
ATOM      1  C   LIG    1        2.366  -0.112  -0.053  0.00  0.00    +0.120 C 
ATOM      2  C   LIG    1        3.127   1.034   0.651  0.00  0.00    +0.070 C 
ATOM      3  C   LIG    1        4.217   0.017   1.057  0.00  0.00    +0.171 C 
ATOM      4  F   LIG    1        5.307  -0.002   0.250  0.00  0.00    -0.245 F 
ATOM      5  C   LIG    1        3.194  -1.109   0.790  0.00  0.00    +0.070 C 
ENDROOT
BRANCH   1   6
ATOM      6  N   LIG    1        2.828  -0.189  -1.471  0.00  0.00    -0.316 NA
ATOM      7  H   LIG    1        2.754   0.710  -1.959  0.00  0.00    +0.119 HD
ATOM      8  H   LIG    1        3.824  -0.425  -1.560  0.00  0.00    +0.119 HD
ENDBRANCH   1   6
BRANCH   1   9
ATOM      9  C   LIG    1        0.796  -0.174   0.072  0.00  0.00    +0.325 C 
ATOM     10  O   LIG    1        0.120   0.066   1.065  0.00  0.00    -0.249 OA
BRANCH   9  11
ATOM     11  O   LIG    1        0.220  -0.546  -1.107  0.00  0.00    -0.479 OA
ATOM     12  H   LIG    1        0.961  -0.703  -1.740  0.00  0.00    +0.295 HD
ENDBRANCH   9  11
ENDBRANCH   1   9
TORSDOF 3
