REMARK  Name = *****
REMARK                            x       y       z     vdW  Elec       q    Type
REMARK                         _______ _______ _______ _____ _____    ______ ____
ROOT
ATOM      1  C   LIG    1        4.703  -2.652  -0.312  0.00  0.00    +0.234 C 
ATOM      2  N   LIG    1        5.818  -3.384  -0.646  0.00  0.00    -0.284 N 
ATOM      3  H   LIG    1        5.959  -4.178  -0.044  0.00  0.00    +0.155 HD
ATOM      4  O   LIG    1        4.179  -1.794  -1.062  0.00  0.00    -0.274 OA
ENDROOT
BRANCH   2   5
ATOM      5  C   LIG    1        6.604  -3.306  -1.838  0.00  0.00    +0.039 A 
ATOM      6  C   LIG    1        7.148  -4.511  -2.387  0.00  0.00    -0.029 A 
ATOM      7  C   LIG    1        6.711  -5.905  -2.007  0.00  0.00    +0.045 C 
ATOM      8  C   LIG    1        8.043  -4.458  -3.481  0.00  0.00    +0.005 A 
ATOM      9  C   LIG    1        8.425  -3.254  -4.044  0.00  0.00    +0.001 A 
ATOM     10  C   LIG    1        7.868  -2.082  -3.560  0.00  0.00    +0.005 A 
ATOM     11  C   LIG    1        6.955  -2.084  -2.481  0.00  0.00    -0.029 A 
ATOM     12  C   LIG    1        6.440  -0.722  -2.093  0.00  0.00    +0.045 C 
ENDBRANCH   2   5
BRANCH   1  13
ATOM     13  C   LIG    1        4.077  -2.881   1.113  0.00  0.00    +0.143 C 
BRANCH  13  14
ATOM     14  C   LIG    1        2.777  -2.016   1.221  0.00  0.00    +0.025 C 
ATOM     15  C   LIG    1        1.918  -2.108   2.476  0.00  0.00    +0.006 C 
ENDBRANCH  13  14
BRANCH  13  16
ATOM     16  N   LIG    1        4.012  -4.355   1.375  0.00  0.00    -0.292 NA
BRANCH  16  17
ATOM     17  C   LIG    1        3.023  -5.017   0.493  0.00  0.00    +0.082 C 
ATOM     18  C   LIG    1        3.110  -6.544   0.501  0.00  0.00    +0.020 C 
ENDBRANCH  16  17
BRANCH  16  19
ATOM     19  C   LIG    1        3.804  -4.707   2.803  0.00  0.00    +0.085 C 
BRANCH  19  21
ATOM     20  C   LIG    1        4.651  -4.381   5.220  0.00  0.00    +0.005 C 
ATOM     21  C   LIG    1        4.925  -4.206   3.731  0.00  0.00    +0.012 C 
ENDBRANCH  19  21
ENDBRANCH  16  19
ENDBRANCH  13  16
ENDBRANCH   1  13
TORSDOF 7
