REMARK  Name = *****
REMARK                            x       y       z     vdW  Elec       q    Type
REMARK                         _______ _______ _______ _____ _____    ______ ____
ROOT
ATOM      1  C   LIG    1       -5.365   1.715  -5.431  0.00  0.00    +0.248 C 
ATOM      2  N   LIG    1       -4.443   0.669  -5.390  0.00  0.00    -0.308 N 
ATOM      3  H   LIG    1       -3.563   0.722  -5.872  0.00  0.00    +0.149 HD
ATOM      4  O   LIG    1       -6.425   1.661  -4.813  0.00  0.00    -0.270 OA
ENDROOT
BRANCH   1   6
ATOM      5  C   LIG    1       -5.668   4.150  -6.225  0.00  0.00    +0.135 A 
ATOM      6  C   LIG    1       -5.090   2.871  -6.338  0.00  0.00    +0.085 A 
ATOM      7  C   LIG    1       -4.329   2.585  -7.488  0.00  0.00    +0.103 A 
ATOM      8  C   LIG    1       -4.162   3.522  -8.523  0.00  0.00    +0.294 A 
ATOM      9  C   LIG    1       -4.778   4.777  -8.458  0.00  0.00    +0.106 A 
ATOM     10  C   LIG    1       -5.489   5.074  -7.282  0.00  0.00    +0.076 A 
BRANCH   8  11
ATOM     11  N   LIG    1       -3.411   3.082  -9.716  0.00  0.00    +0.082 N 
ATOM     12  O   LIG    1       -2.879   1.961  -9.672  0.00  0.00    -0.576 OA
ATOM     13  O   LIG    1       -3.375   3.828 -10.703  0.00  0.00    +0.042 OA
ENDBRANCH   8  11
BRANCH   9  14
ATOM     14  N   LIG    1       -4.554   5.815  -9.375  0.00  0.00    -0.353 N 
ATOM     15  H   LIG    1       -4.239   5.497 -10.296  0.00  0.00    +0.142 HD
ATOM     16  H   LIG    1       -5.304   6.497  -9.449  0.00  0.00    +0.142 HD
ENDBRANCH   9  14
BRANCH   5  17
ATOM     17  O   LIG    1       -6.471   4.678  -5.246  0.00  0.00    -0.491 OA
BRANCH  17  19
ATOM     18  C   LIG    1       -6.685   5.463  -2.984  0.00  0.00    +0.048 C 
ATOM     19  C   LIG    1       -6.272   4.304  -3.884  0.00  0.00    +0.226 C 
ENDBRANCH  17  19
ENDBRANCH   5  17
ENDBRANCH   1   6
BRANCH   2  20
ATOM     20  C   LIG    1       -4.718  -0.549  -4.616  0.00  0.00    +0.076 C 
ATOM     21  C   LIG    1       -5.016  -1.758  -5.513  0.00  0.00    +0.037 C 
ATOM     22  C   LIG    1       -3.782  -2.550  -5.954  0.00  0.00    +0.086 C 
ATOM     23  N   LIG    1       -2.922  -2.882  -4.812  0.00  0.00    -0.302 NA
ATOM     24  C   LIG    1       -2.451  -1.641  -4.172  0.00  0.00    +0.086 C 
ATOM     25  C   LIG    1       -3.605  -0.821  -3.607  0.00  0.00    +0.037 C 
BRANCH  23  26
ATOM     26  C   LIG    1       -1.749  -3.707  -5.184  0.00  0.00    +0.088 C 
BRANCH  26  27
ATOM     27  C   LIG    1       -2.023  -5.097  -5.820  0.00  0.00    +0.007 C 
ATOM     28  C   LIG    1       -0.696  -5.795  -6.192  0.00  0.00    +0.009 C 
ATOM     29  C   LIG    1        0.141  -6.176  -4.965  0.00  0.00    +0.027 C 
ATOM     30  C   LIG    1       -0.686  -6.740  -3.847  0.00  0.00    -0.031 C 
ATOM     31  C   LIG    1       -2.027  -6.693  -3.832  0.00  0.00    -0.031 C 
ATOM     32  C   LIG    1       -2.841  -6.038  -4.914  0.00  0.00    +0.031 C 
ENDBRANCH  26  27
ENDBRANCH  23  26
ENDBRANCH   2  20
TORSDOF 8
