REMARK  Name = *****
REMARK                            x       y       z     vdW  Elec       q    Type
REMARK                         _______ _______ _______ _____ _____    ______ ____
ROOT
ATOM      1  C   LIG    1        4.274  -0.295   1.761  0.00  0.00    +0.053 C 
ENDROOT
BRANCH   1   2
ATOM      2  C   LIG    1        4.803  -0.276   3.178  0.00  0.00    -0.046 A 
ATOM      3  C   LIG    1        4.480   0.770   4.054  0.00  0.00    +0.003 A 
ATOM      4  C   LIG    1        4.966   0.772   5.363  0.00  0.00    +0.000 A 
ATOM      5  C   LIG    1        5.789  -0.260   5.806  0.00  0.00    +0.000 A 
ATOM      6  C   LIG    1        6.129  -1.298   4.940  0.00  0.00    +0.000 A 
ATOM      7  C   LIG    1        5.639  -1.305   3.633  0.00  0.00    +0.003 A 
ENDBRANCH   1   2
BRANCH   1   8
ATOM      8  C   LIG    1        2.729  -0.335   1.634  0.00  0.00    +0.055 C 
ATOM      9  C   LIG    1        2.147  -1.573   2.328  0.00  0.00    +0.024 C 
BRANCH   8  11
ATOM     10  C   LIG    1        0.961  -0.247  -0.070  0.00  0.00    +0.101 C 
ATOM     11  N   LIG    1        2.393  -0.299   0.195  0.00  0.00    -0.316 NA
ATOM     12  H   LIG    1        2.831   0.522  -0.225  0.00  0.00    +0.122 HD
ENDBRANCH   8  11
ENDBRANCH   1   8
TORSDOF 3
