REMARK  Name = *****
REMARK                            x       y       z     vdW  Elec       q    Type
REMARK                         _______ _______ _______ _____ _____    ______ ____
ROOT
ATOM      1  C   LIG    1        2.696  -1.271  -0.919  0.00  0.00    -0.004 A 
ATOM      2  C   LIG    1        2.875  -2.614  -0.539  0.00  0.00    +0.048 A 
ATOM      3 CL   LIG    1        2.682  -3.126   1.102  0.00  0.00    -0.083 Cl
ATOM      4  C   LIG    1        3.229  -3.587  -1.478  0.00  0.00    +0.040 A 
ATOM      5  C   LIG    1        3.424  -3.225  -2.807  0.00  0.00    +0.042 A 
ATOM      6 CL   LIG    1        3.860  -4.421  -3.965  0.00  0.00    -0.084 Cl
ATOM      7  C   LIG    1        3.275  -1.900  -3.205  0.00  0.00    +0.020 A 
ATOM      8  C   LIG    1        2.918  -0.931  -2.265  0.00  0.00    +0.009 A 
ENDROOT
BRANCH   1   9
ATOM      9  C   LIG    1        2.334  -0.211   0.093  0.00  0.00    +0.192 C 
BRANCH   9  10
ATOM     10  O   LIG    1        1.813   0.955  -0.536  0.00  0.00    -0.390 OA
ATOM     11  H   LIG    1        1.529   1.551   0.178  0.00  0.00    +0.210 HD
ENDBRANCH   9  10
ENDBRANCH   1   9
TORSDOF 2
