REMARK  Name = *****
REMARK                            x       y       z     vdW  Elec       q    Type
REMARK                         _______ _______ _______ _____ _____    ______ ____
ROOT
ATOM      1  C   LIG    1       10.267  13.693  -3.399  0.00  0.00    +0.150 C 
ATOM      2  C   LIG    1        8.787  14.173  -3.644  0.00  0.00    +0.060 C 
ATOM      3  C   LIG    1        8.744  15.441  -4.492  0.00  0.00    +0.014 C 
ATOM      4  C   LIG    1        7.689  13.077  -3.933  0.00  0.00    +0.187 C 
ATOM      5  C   LIG    1        6.547  13.424  -4.977  0.00  0.00    +0.056 C 
ATOM      6  C   LIG    1        5.182  13.389  -4.268  0.00  0.00    +0.014 C 
ATOM      7  C   LIG    1        6.606  12.568  -6.277  0.00  0.00    +0.126 C 
ATOM      8  C   LIG    1        5.409  12.739  -7.276  0.00  0.00    +0.044 C 
ATOM      9  C   LIG    1        4.387  11.608  -6.993  0.00  0.00    +0.013 C 
ATOM     10  C   LIG    1        5.802  12.759  -8.791  0.00  0.00    +0.126 C 
ATOM     11  C   LIG    1        6.157  14.153  -9.426  0.00  0.00    +0.037 C 
ATOM     12  C   LIG    1        5.149  15.256  -9.098  0.00  0.00    +0.014 C 
ATOM     13  C   LIG    1        7.600  14.552  -9.230  0.00  0.00    -0.021 C 
ATOM     14  C   LIG    1        8.143  15.624  -8.617  0.00  0.00    -0.003 C 
ATOM     15  C   LIG    1        9.583  15.700  -8.520  0.00  0.00    +0.008 C 
ATOM     16  C   LIG    1       10.442  16.430  -7.776  0.00  0.00    +0.011 C 
ATOM     17  C   LIG    1       11.851  15.955  -7.907  0.00  0.00    +0.049 C 
ATOM     18  C   LIG    1       10.057  17.499  -6.771  0.00  0.00    +0.244 C 
ATOM     19  O   LIG    1        8.863  17.783  -6.622  0.00  0.00    -0.270 OA
ATOM     20  N   LIG    1       10.933  18.051  -5.855  0.00  0.00    -0.277 N 
ATOM     21  H   LIG    1       10.430  18.399  -5.044  0.00  0.00    +0.155 HD
ATOM     22  C   LIG    1       12.307  18.119  -5.760  0.00  0.00    +0.105 C 
ATOM     23  C   LIG    1       12.963  18.014  -4.591  0.00  0.00    +0.080 C 
ATOM     24  C   LIG    1       14.415  17.720  -4.630  0.00  0.00    +0.092 C 
ATOM     25  C   LIG    1       14.950  17.217  -5.887  0.00  0.00    +0.030 A 
ATOM     26  C   LIG    1       14.494  17.817  -7.055  0.00  0.00    +0.075 A 
ATOM     27  C   LIG    1       14.834  17.291  -8.322  0.00  0.00    +0.135 A 
ATOM     28  C   LIG    1       15.281  15.968  -8.432  0.00  0.00    +0.034 A 
ATOM     29  C   LIG    1       15.350  15.257  -7.242  0.00  0.00    +0.143 A 
ATOM     30  O   LIG    1       15.213  13.883  -7.165  0.00  0.00    -0.444 OA
ATOM     31  C   LIG    1       14.668  13.612  -5.808  0.00  0.00    +0.314 C 
ATOM     32  C   LIG    1       15.312  14.787  -5.073  0.00  0.00    +0.250 C 
ATOM     33  O   LIG    1       15.828  14.786  -3.980  0.00  0.00    -0.284 OA
ATOM     34  C   LIG    1       15.199  12.257  -5.369  0.00  0.00    +0.114 C 
ATOM     35  O   LIG    1       13.223  13.619  -5.856  0.00  0.00    -0.453 OA
ATOM     36  C   LIG    1       12.505  13.633  -4.680  0.00  0.00    +0.190 C 
ATOM     37  C   LIG    1       15.400  15.285  -9.760  0.00  0.00    +0.051 C 
ATOM     38  C   LIG    1       15.334  15.891  -6.011  0.00  0.00    +0.077 A 
ATOM     39  N   LIG    1       15.040  17.722  -3.489  0.00  0.00    -0.256 NA
ATOM     40  C   LIG    1       13.905  17.609  -2.509  0.00  0.00    +0.128 C 
ATOM     41  C   LIG    1       13.918  16.153  -2.045  0.00  0.00    +0.065 C 
ATOM     42  C   LIG    1       15.184  15.873  -1.229  0.00  0.00    +0.088 C 
ATOM     43  N   LIG    1       15.190  16.633   0.032  0.00  0.00    -0.302 NA
ATOM     44  C   LIG    1       15.129  18.071  -0.276  0.00  0.00    +0.088 C 
ATOM     45  C   LIG    1       14.067  18.534  -1.298  0.00  0.00    +0.065 C 
ATOM     46  N   LIG    1       12.647  17.906  -3.256  0.00  0.00    -0.317 N 
ATOM     47  H   LIG    1       11.870  17.281  -3.054  0.00  0.00    +0.148 HD
ATOM     48  C   LIG    1       13.163  18.485  -6.957  0.00  0.00    +0.213 C 
ATOM     49  O   LIG    1       12.759  19.179  -7.883  0.00  0.00    -0.285 OA
ATOM     50  C   LIG    1       11.155  13.601  -4.648  0.00  0.00    +0.042 C 
ENDROOT
BRANCH   1  52
ATOM     51  C   LIG    1       10.312  14.827  -1.251  0.00  0.00    +0.194 C 
ATOM     52  O   LIG    1       10.952  14.610  -2.507  0.00  0.00    -0.375 OA
ENDBRANCH   1  52
BRANCH   7  53
ATOM     53  O   LIG    1        7.866  12.814  -6.894  0.00  0.00    -0.391 OA
ATOM     54  H   LIG    1        8.011  13.775  -6.909  0.00  0.00    +0.210 HD
ENDBRANCH   7  53
BRANCH  10  55
ATOM     55  O   LIG    1        4.743  12.198  -9.594  0.00  0.00    -0.391 OA
ATOM     56  H   LIG    1        3.955  12.758  -9.504  0.00  0.00    +0.210 HD
ENDBRANCH  10  55
BRANCH  27  57
ATOM     57  O   LIG    1       14.493  17.945  -9.479  0.00  0.00    -0.506 OA
ATOM     58  H   LIG    1       13.927  18.719  -9.261  0.00  0.00    +0.292 HD
ENDBRANCH  27  57
BRANCH   4  59
ATOM     59  O   LIG    1        8.257  11.760  -4.131  0.00  0.00    -0.461 OA
BRANCH  59  60
ATOM     60  C   LIG    1        7.530  10.721  -3.614  0.00  0.00    +0.304 C 
ATOM     61  O   LIG    1        6.499  10.834  -2.963  0.00  0.00    -0.251 OA
ATOM     62  C   LIG    1        8.153   9.395  -3.914  0.00  0.00    +0.136 C 
ENDBRANCH  59  60
ENDBRANCH   4  59
BRANCH  43  63
ATOM     63  C   LIG    1       14.167  16.107   0.944  0.00  0.00    +0.087 C 
BRANCH  63  64
ATOM     64  C   LIG    1       14.185  16.603   2.402  0.00  0.00    -0.003 C 
ATOM     65  C   LIG    1       15.517  16.353   3.110  0.00  0.00    +0.008 C 
ATOM     66  C   LIG    1       13.050  15.904   3.164  0.00  0.00    +0.008 C 
ENDBRANCH  63  64
ENDBRANCH  43  63
TORSDOF 8
