REMARK  Name = *****
REMARK                            x       y       z     vdW  Elec       q    Type
REMARK                         _______ _______ _______ _____ _____    ______ ____
ROOT
ATOM      1  N   LIG    1        6.961   1.224  -4.849  0.00  0.00    -0.298 N 
ATOM      2  C   LIG    1        7.113   2.617  -4.555  0.00  0.00    +0.049 A 
ATOM      3  C   LIG    1        7.749   3.503  -5.452  0.00  0.00    +0.034 A 
ATOM      4  C   LIG    1        7.939   4.867  -5.137  0.00  0.00    +0.018 A 
ATOM      5  C   LIG    1        7.497   5.392  -3.933  0.00  0.00    +0.021 A 
ATOM      6  C   LIG    1        6.841   4.551  -3.048  0.00  0.00    +0.043 A 
ATOM      7 CL   LIG    1        6.276   5.180  -1.546  0.00  0.00    -0.084 Cl
ATOM      8  S   LIG    1        8.395   3.028  -7.032  0.00  0.00    -0.086 S 
ATOM      9  C   LIG    1        7.910   1.327  -7.146  0.00  0.00    +0.034 A 
ATOM     10  C   LIG    1        8.213   0.717  -8.383  0.00  0.00    +0.017 A 
ATOM     11  C   LIG    1        7.900  -0.615  -8.617  0.00  0.00    +0.001 A 
ATOM     12  C   LIG    1        7.300  -1.346  -7.612  0.00  0.00    +0.002 A 
ATOM     13  C   LIG    1        7.014  -0.749  -6.373  0.00  0.00    +0.024 A 
ATOM     14  C   LIG    1        6.638   3.196  -3.356  0.00  0.00    +0.044 A 
ATOM     15  C   LIG    1        7.296   0.610  -6.099  0.00  0.00    +0.048 A 
ENDROOT
BRANCH   1  16
ATOM     16  C   LIG    1        6.555   0.319  -3.732  0.00  0.00    +0.112 C 
BRANCH  16  17
ATOM     17  C   LIG    1        5.033   0.085  -3.699  0.00  0.00    +0.035 C 
BRANCH  17  18
ATOM     18  C   LIG    1        4.596  -0.859  -2.557  0.00  0.00    +0.086 C 
BRANCH  18  23
ATOM     19  C   LIG    1        0.519  -0.847   0.130  0.00  0.00    +0.105 C 
ATOM     20  N   LIG    1        1.942  -0.510   0.115  0.00  0.00    -0.303 NA
ATOM     21  C   LIG    1        2.775  -1.708  -0.111  0.00  0.00    +0.099 C 
ATOM     22  C   LIG    1        2.804  -2.215  -1.576  0.00  0.00    +0.100 C 
ATOM     23  N   LIG    1        3.155  -1.186  -2.587  0.00  0.00    -0.300 NA
ATOM     24  C   LIG    1        2.280  -0.013  -2.367  0.00  0.00    +0.100 C 
ATOM     25  C   LIG    1        2.241   0.510  -0.910  0.00  0.00    +0.099 C 
ENDBRANCH  18  23
ENDBRANCH  17  18
ENDBRANCH  16  17
ENDBRANCH   1  16
TORSDOF 4
