REMARK  Name = *****
REMARK                            x       y       z     vdW  Elec       q    Type
REMARK                         _______ _______ _______ _____ _____    ______ ____
ROOT
ATOM      1  N   LIG    1        2.215  -1.458   2.553  0.00  0.00    -0.297 N 
ATOM      2  C   LIG    1        2.200  -0.252   3.311  0.00  0.00    +0.050 A 
ATOM      3  C   LIG    1        1.485  -0.162   4.533  0.00  0.00    +0.034 A 
ATOM      4  C   LIG    1        1.479   1.015   5.304  0.00  0.00    +0.019 A 
ATOM      5  C   LIG    1        2.166   2.140   4.876  0.00  0.00    +0.030 A 
ATOM      6  C   LIG    1        2.876   2.075   3.680  0.00  0.00    +0.107 A 
ATOM      7  S   LIG    1        0.494  -1.494   5.171  0.00  0.00    -0.086 S 
ATOM      8  C   LIG    1        1.225  -2.877   4.330  0.00  0.00    +0.034 A 
ATOM      9  C   LIG    1        0.985  -4.139   4.909  0.00  0.00    +0.017 A 
ATOM     10  C   LIG    1        1.483  -5.295   4.325  0.00  0.00    +0.001 A 
ATOM     11  C   LIG    1        2.261  -5.189   3.184  0.00  0.00    +0.002 A 
ATOM     12  C   LIG    1        2.521  -3.933   2.620  0.00  0.00    +0.024 A 
ATOM     13  C   LIG    1        2.919   0.893   2.923  0.00  0.00    +0.053 A 
ATOM     14  C   LIG    1        1.979  -2.740   3.142  0.00  0.00    +0.048 A 
ENDROOT
BRANCH   6  15
ATOM     15  S   LIG    1        3.630   3.564   3.059  0.00  0.00    +0.060 S 
ATOM     16  O   LIG    1        2.951   4.671   3.679  0.00  0.00    -0.153 OA
ATOM     17  O   LIG    1        3.685   3.439   1.605  0.00  0.00    -0.153 OA
BRANCH  15  18
ATOM     18  N   LIG    1        5.213   3.495   3.670  0.00  0.00    -0.183 NA
ATOM     19  C   LIG    1        6.178   2.676   2.930  0.00  0.00    +0.131 C 
ATOM     20  C   LIG    1        5.359   3.372   5.133  0.00  0.00    +0.131 C 
ENDBRANCH  15  18
ENDBRANCH   6  15
BRANCH   1  21
ATOM     21  C   LIG    1        2.673  -1.412   1.125  0.00  0.00    +0.129 C 
BRANCH  21  23
ATOM     22  C   LIG    1        0.338  -1.274   0.132  0.00  0.00    +0.026 C 
ATOM     23  C   LIG    1        1.747  -0.649   0.099  0.00  0.00    +0.071 C 
BRANCH  23  24
ATOM     24  N   LIG    1        2.285  -0.714  -1.310  0.00  0.00    -0.304 NA
ATOM     25  C   LIG    1        3.657  -0.210  -1.437  0.00  0.00    +0.105 C 
ATOM     26  C   LIG    1        1.449   0.020  -2.275  0.00  0.00    +0.105 C 
ENDBRANCH  23  24
ENDBRANCH  21  23
ENDBRANCH   1  21
TORSDOF 5
