REMARK  Name = *****
REMARK                            x       y       z     vdW  Elec       q    Type
REMARK                         _______ _______ _______ _____ _____    ______ ____
ROOT
ATOM      1  C   LIG    1        4.246  -0.838  -3.011  0.00  0.00    +0.117 C 
ENDROOT
BRANCH   1   6
ATOM      2  C   LIG    1        0.637   0.064   0.188  0.00  0.00    +0.105 C 
ATOM      3  N   LIG    1        2.072   0.154  -0.079  0.00  0.00    -0.303 NA
ATOM      4  C   LIG    1        2.659  -1.182  -0.284  0.00  0.00    +0.099 C 
ATOM      5  C   LIG    1        2.394  -1.801  -1.677  0.00  0.00    +0.100 C 
ATOM      6  N   LIG    1        2.762  -0.942  -2.837  0.00  0.00    -0.289 NA
ATOM      7  C   LIG    1        2.098   0.366  -2.624  0.00  0.00    +0.100 C 
ATOM      8  C   LIG    1        2.355   1.017  -1.243  0.00  0.00    +0.099 C 
ENDBRANCH   1   6
BRANCH   1   9
ATOM      9  C   LIG    1        4.672   0.179  -4.085  0.00  0.00    -0.026 A 
ATOM     10  C   LIG    1        4.257   0.067  -5.425  0.00  0.00    +0.007 A 
ATOM     11  C   LIG    1        4.634   1.030  -6.370  0.00  0.00    +0.020 A 
ATOM     12  C   LIG    1        5.425   2.109  -5.991  0.00  0.00    +0.041 A 
ATOM     13 CL   LIG    1        5.870   3.301  -7.150  0.00  0.00    -0.084 Cl
ATOM     14  C   LIG    1        5.856   2.236  -4.671  0.00  0.00    +0.020 A 
ATOM     15  C   LIG    1        5.484   1.272  -3.729  0.00  0.00    +0.007 A 
ENDBRANCH   1   9
BRANCH   1  16
ATOM     16  C   LIG    1        4.921  -2.200  -3.259  0.00  0.00    -0.026 A 
ATOM     17  C   LIG    1        4.253  -3.263  -3.895  0.00  0.00    +0.005 A 
ATOM     18  C   LIG    1        4.845  -4.522  -4.005  0.00  0.00    +0.000 A 
ATOM     19  C   LIG    1        6.134  -4.729  -3.523  0.00  0.00    +0.000 A 
ATOM     20  C   LIG    1        6.835  -3.676  -2.939  0.00  0.00    +0.000 A 
ATOM     21  C   LIG    1        6.234  -2.421  -2.807  0.00  0.00    +0.005 A 
ENDBRANCH   1  16
TORSDOF 3
