REMARK  Name = *****
REMARK                            x       y       z     vdW  Elec       q    Type
REMARK                         _______ _______ _______ _____ _____    ______ ____
ROOT
ATOM      1  C   LIG    1       -0.278  -4.316  -0.121  0.00  0.00    +0.128 A 
ATOM      2  C   LIG    1       -0.570  -5.680  -0.075  0.00  0.00    +0.054 A 
ATOM      3  C   LIG    1       -1.857  -6.160  -0.362  0.00  0.00    -0.018 A 
ATOM      4  C   LIG    1       -2.848  -5.254  -0.740  0.00  0.00    +0.053 A 
ATOM      5  C   LIG    1       -2.557  -3.898  -0.807  0.00  0.00    +0.121 A 
ATOM      6  C   LIG    1       -1.280  -3.413  -0.507  0.00  0.00    +0.091 A 
ENDROOT
BRANCH   3   7
ATOM      7  C   LIG    1       -2.138  -7.593  -0.283  0.00  0.00    +0.009 C 
ATOM      8  C   LIG    1       -2.574  -8.308   0.785  0.00  0.00    +0.008 C 
BRANCH   8   9
ATOM      9  C   LIG    1       -2.888  -7.855   2.150  0.00  0.00    -0.025 A 
ATOM     10  C   LIG    1       -2.635  -8.730   3.223  0.00  0.00    +0.011 A 
ATOM     11  C   LIG    1       -2.883  -8.334   4.539  0.00  0.00    +0.046 A 
ATOM     12  C   LIG    1       -3.420  -7.074   4.791  0.00  0.00    +0.117 A 
ATOM     13  C   LIG    1       -3.731  -6.219   3.741  0.00  0.00    +0.046 A 
ATOM     14  C   LIG    1       -3.480  -6.619   2.429  0.00  0.00    +0.011 A 
BRANCH  12  15
ATOM     15  O   LIG    1       -3.630  -6.710   6.086  0.00  0.00    -0.507 OA
ATOM     16  H   LIG    1       -3.994  -5.809   6.095  0.00  0.00    +0.292 HD
ENDBRANCH  12  15
ENDBRANCH   8   9
ENDBRANCH   3   7
BRANCH   5  17
ATOM     17  O   LIG    1       -3.576  -3.063  -1.168  0.00  0.00    -0.507 OA
ATOM     18  H   LIG    1       -3.233  -2.159  -1.248  0.00  0.00    +0.292 HD
ENDBRANCH   5  17
BRANCH   1  19
ATOM     19  O   LIG    1        0.950  -3.776   0.214  0.00  0.00    -0.461 OA
BRANCH  19  24
ATOM     20  C   LIG    1        1.594  -5.888   3.134  0.00  0.00    +0.179 C 
ATOM     21  C   LIG    1        2.667  -5.057   3.834  0.00  0.00    +0.177 C 
ATOM     22  C   LIG    1        3.645  -4.510   2.795  0.00  0.00    +0.180 C 
ATOM     23  C   LIG    1        2.916  -3.733   1.686  0.00  0.00    +0.214 C 
ATOM     24  C   LIG    1        1.754  -4.584   1.108  0.00  0.00    +0.339 C 
ATOM     25  O   LIG    1        0.939  -5.068   2.177  0.00  0.00    -0.331 OA
BRANCH  21  26
ATOM     26  O   LIG    1        3.372  -5.827   4.811  0.00  0.00    -0.387 OA
ATOM     27  H   LIG    1        4.132  -5.267   5.074  0.00  0.00    +0.210 HD
ENDBRANCH  21  26
BRANCH  22  28
ATOM     28  O   LIG    1        4.589  -3.665   3.473  0.00  0.00    -0.386 OA
ATOM     29  H   LIG    1        4.986  -3.090   2.788  0.00  0.00    +0.210 HD
ENDBRANCH  22  28
BRANCH  23  30
ATOM     30  O   LIG    1        3.896  -3.336   0.709  0.00  0.00    -0.383 OA
ATOM     31  H   LIG    1        4.239  -4.130   0.261  0.00  0.00    +0.210 HD
ENDBRANCH  23  30
BRANCH  20  32
ATOM     32  C   LIG    1        0.521  -6.371   4.121  0.00  0.00    +0.190 C 
BRANCH  32  33
ATOM     33  O   LIG    1        1.046  -7.175   5.168  0.00  0.00    -0.392 OA
ATOM     34  H   LIG    1        1.859  -6.733   5.490  0.00  0.00    +0.209 HD
ENDBRANCH  32  33
ENDBRANCH  20  32
ENDBRANCH  19  24
ENDBRANCH   1  19
TORSDOF 11
