REMARK  Name = *****
REMARK                            x       y       z     vdW  Elec       q    Type
REMARK                         _______ _______ _______ _____ _____    ______ ____
ROOT
ATOM      1  C   LIG    1        3.022  -0.697  -1.189  0.00  0.00    +0.062 A 
ATOM      2  C   LIG    1        2.613  -2.038  -1.109  0.00  0.00    +0.063 A 
ATOM      3  C   LIG    1        3.232  -2.910  -1.994  0.00  0.00    +0.157 A 
ATOM      4  C   LIG    1        4.196  -2.549  -2.920  0.00  0.00    +0.110 A 
ATOM      5  N   LIG    1        4.592  -3.650  -3.633  0.00  0.00    -0.209 NA
ATOM      6  C   LIG    1        3.861  -4.631  -3.134  0.00  0.00    +0.229 A 
ATOM      7  C   LIG    1        4.591  -1.207  -2.999  0.00  0.00    +0.032 A 
ATOM      8  O   LIG    1        3.012  -4.249  -2.124  0.00  0.00    -0.435 OA
ATOM      9  C   LIG    1        3.984  -0.283  -2.131  0.00  0.00    +0.017 A 
ENDROOT
BRANCH   6  10
ATOM     10  C   LIG    1        3.835  -6.042  -3.510  0.00  0.00    +0.040 A 
ATOM     11  C   LIG    1        4.682  -6.503  -4.529  0.00  0.00    +0.033 A 
ATOM     12  C   LIG    1        4.673  -7.848  -4.903  0.00  0.00    +0.043 A 
ATOM     13 CL   LIG    1        5.722  -8.392  -6.154  0.00  0.00    -0.084 Cl
ATOM     14  C   LIG    1        3.824  -8.754  -4.274  0.00  0.00    +0.040 A 
ATOM     15  C   LIG    1        2.980  -8.302  -3.265  0.00  0.00    +0.043 A 
ATOM     16 CL   LIG    1        1.925  -9.411  -2.479  0.00  0.00    -0.084 Cl
ATOM     17  C   LIG    1        2.980  -6.960  -2.881  0.00  0.00    +0.033 A 
ENDBRANCH   6  10
BRANCH   1  19
ATOM     18  O   LIG    1        1.207   0.127   0.102  0.00  0.00    -0.245 OA
ATOM     19  C   LIG    1        2.357   0.269  -0.280  0.00  0.00    +0.337 C 
BRANCH  19  20
ATOM     20  O   LIG    1        3.147   1.287   0.117  0.00  0.00    -0.477 OA
ATOM     21  H   LIG    1        4.093   1.196  -0.097  0.00  0.00    +0.295 HD
ENDBRANCH  19  20
ENDBRANCH   1  19
TORSDOF 3
