REMARK  Name = *****
REMARK                            x       y       z     vdW  Elec       q    Type
REMARK                         _______ _______ _______ _____ _____    ______ ____
ROOT
ATOM      1  C   LIG    1        9.004  -4.719   0.258  0.00  0.00    +0.117 C 
ENDROOT
BRANCH   1   2
ATOM      2  C   LIG    1       10.150  -5.711  -0.105  0.00  0.00    -0.026 A 
ATOM      3  C   LIG    1       11.005  -5.449  -1.200  0.00  0.00    +0.007 A 
ATOM      4  C   LIG    1       12.027  -6.332  -1.570  0.00  0.00    +0.020 A 
ATOM      5  C   LIG    1       12.182  -7.510  -0.887  0.00  0.00    +0.041 A 
ATOM      6 CL   LIG    1       13.390  -8.656  -1.383  0.00  0.00    -0.084 Cl
ATOM      7  C   LIG    1       11.351  -7.820   0.195  0.00  0.00    +0.020 A 
ATOM      8  C   LIG    1       10.358  -6.906   0.594  0.00  0.00    +0.007 A 
ENDBRANCH   1   2
BRANCH   1  12
ATOM      9  N   LIG    1       10.317  -1.063   2.276  0.00  0.00    -0.298 NA
ATOM     10  C   LIG    1       10.695  -1.315   0.876  0.00  0.00    +0.100 C 
ATOM     11  C   LIG    1       10.593  -2.813   0.471  0.00  0.00    +0.100 C 
ATOM     12  N   LIG    1        9.462  -3.561   1.094  0.00  0.00    -0.289 NA
ATOM     13  C   LIG    1        8.410  -2.560   1.405  0.00  0.00    +0.100 C 
ATOM     14  C   LIG    1        8.903  -1.482   2.423  0.00  0.00    +0.100 C 
BRANCH   9  15
ATOM     15  C   LIG    1       11.178  -1.813   3.221  0.00  0.00    +0.112 C 
BRANCH  15  16
ATOM     16  C   LIG    1       12.655  -1.409   3.130  0.00  0.00    +0.175 C 
BRANCH  16  17
ATOM     17  O   LIG    1       13.432  -2.163   4.064  0.00  0.00    -0.376 OA
BRANCH  17  18
ATOM     18  C   LIG    1       14.821  -1.827   4.002  0.00  0.00    +0.187 C 
BRANCH  18  19
ATOM     19  C   LIG    1       15.095  -0.435   4.569  0.00  0.00    +0.184 C 
BRANCH  19  20
ATOM     20  O   LIG    1       16.484  -0.140   4.536  0.00  0.00    -0.393 OA
ATOM     21  H   LIG    1       16.798  -0.142   5.456  0.00  0.00    +0.209 HD
ENDBRANCH  19  20
ENDBRANCH  18  19
ENDBRANCH  17  18
ENDBRANCH  16  17
ENDBRANCH  15  16
ENDBRANCH   9  15
ENDBRANCH   1  12
BRANCH   1  22
ATOM     22  C   LIG    1        7.750  -5.466   0.783  0.00  0.00    -0.026 A 
ATOM     23  C   LIG    1        7.030  -6.308  -0.088  0.00  0.00    +0.005 A 
ATOM     24  C   LIG    1        5.829  -6.915   0.327  0.00  0.00    +0.000 A 
ATOM     25  C   LIG    1        5.316  -6.662   1.582  0.00  0.00    +0.000 A 
ATOM     26  C   LIG    1        6.023  -5.861   2.474  0.00  0.00    +0.000 A 
ATOM     27  C   LIG    1        7.264  -5.330   2.092  0.00  0.00    +0.005 A 
ENDBRANCH   1  22
TORSDOF 9
