REMARK  Name = *****
REMARK                            x       y       z     vdW  Elec       q    Type
REMARK                         _______ _______ _______ _____ _____    ______ ____
ROOT
ATOM      1  C   LIG    1        1.395  -4.270  -2.059  0.00  0.00    +0.047 C 
ATOM      2  C   LIG    1        2.341  -3.822  -0.984  0.00  0.00    -0.007 A 
ATOM      3  C   LIG    1        1.975  -2.931   0.029  0.00  0.00    +0.144 A 
ATOM      4  N   LIG    1        2.920  -2.493   0.891  0.00  0.00    -0.134 NA
ATOM      5  N   LIG    1        4.234  -2.920   0.820  0.00  0.00    -0.147 NA
ATOM      6  C   LIG    1        4.620  -3.785  -0.137  0.00  0.00    +0.094 A 
ATOM      7  C   LIG    1        3.683  -4.235  -1.058  0.00  0.00    +0.037 A 
ENDROOT
BRANCH   6   8
ATOM      8  C   LIG    1        6.039  -4.190  -0.139  0.00  0.00    +0.002 A 
ATOM      9  C   LIG    1        7.047  -3.327   0.327  0.00  0.00    +0.010 A 
ATOM     10  C   LIG    1        8.394  -3.708   0.329  0.00  0.00    +0.001 A 
ATOM     11  C   LIG    1        8.764  -4.969  -0.134  0.00  0.00    +0.000 A 
ATOM     12  C   LIG    1        7.789  -5.844  -0.597  0.00  0.00    +0.001 A 
ATOM     13  C   LIG    1        6.445  -5.460  -0.598  0.00  0.00    +0.010 A 
ENDBRANCH   6   8
BRANCH   3  14
ATOM     14  N   LIG    1        0.653  -2.449   0.117  0.00  0.00    -0.326 N 
ATOM     15  H   LIG    1       -0.007  -3.221   0.189  0.00  0.00    +0.148 HD
BRANCH  14  16
ATOM     16  C   LIG    1        0.456  -1.487   1.209  0.00  0.00    +0.118 C 
BRANCH  16  17
ATOM     17  C   LIG    1       -1.018  -1.026   1.308  0.00  0.00    +0.103 C 
BRANCH  17  18
ATOM     18  N   LIG    1       -2.031  -2.081   1.541  0.00  0.00    -0.296 NA
ATOM     19  C   LIG    1       -1.818  -2.869   2.775  0.00  0.00    +0.112 C 
ATOM     20  C   LIG    1       -2.173  -2.135   4.079  0.00  0.00    +0.175 C 
ATOM     21  O   LIG    1       -3.522  -1.654   4.053  0.00  0.00    -0.377 OA
ATOM     22  C   LIG    1       -3.721  -0.781   2.936  0.00  0.00    +0.175 C 
ATOM     23  C   LIG    1       -3.393  -1.489   1.606  0.00  0.00    +0.112 C 
ENDBRANCH  17  18
ENDBRANCH  16  17
ENDBRANCH  14  16
ENDBRANCH   3  14
TORSDOF 5
