REMARK  Name = *****
REMARK                            x       y       z     vdW  Elec       q    Type
REMARK                         _______ _______ _______ _____ _____    ______ ____
ROOT
ATOM      1  C   LIG    1        1.285  -1.007   0.517  0.00  0.00    +0.370 C 
ATOM      2  N   LIG    1        0.610   0.024  -0.098  0.00  0.00    -0.182 N 
ATOM      3  C   LIG    1        0.203  -0.524  -1.391  0.00  0.00    +0.212 C 
ATOM      4  C   LIG    1       -0.190   0.436  -2.485  0.00  0.00    -0.006 A 
ATOM      5  C   LIG    1       -1.292   1.293  -2.262  0.00  0.00    -0.037 A 
ATOM      6  C   LIG    1       -1.974   1.317  -0.908  0.00  0.00    +0.074 C 
ATOM      7  C   LIG    1       -1.083   1.802   0.210  0.00  0.00    -0.006 A 
ATOM      8  C   LIG    1       -1.542   2.874   1.008  0.00  0.00    +0.007 A 
ATOM      9  C   LIG    1       -0.766   3.396   2.042  0.00  0.00    +0.001 A 
ATOM     10  C   LIG    1        0.498   2.881   2.270  0.00  0.00    +0.003 A 
ATOM     11  C   LIG    1        0.946   1.804   1.506  0.00  0.00    +0.040 A 
ATOM     12  C   LIG    1       -1.791   2.079  -3.312  0.00  0.00    +0.004 A 
ATOM     13  C   LIG    1       -1.222   2.008  -4.582  0.00  0.00    +0.000 A 
ATOM     14  C   LIG    1       -0.138   1.167  -4.809  0.00  0.00    +0.000 A 
ATOM     15  C   LIG    1        0.378   0.390  -3.770  0.00  0.00    +0.007 A 
ATOM     16  C   LIG    1        1.403  -1.476  -1.614  0.00  0.00    +0.287 C 
ATOM     17  C   LIG    1        0.151   1.193   0.509  0.00  0.00    +0.099 A 
ATOM     18  N   LIG    1        1.753  -1.972  -0.245  0.00  0.00    -0.113 NA
ENDROOT
BRANCH   1  19
ATOM     19  N   LIG    1        1.301  -1.103   1.862  0.00  0.00    -0.251 N 
ATOM     20  H   LIG    1        0.479  -0.704   2.303  0.00  0.00    +0.241 HD
ATOM     21  H   LIG    1        1.472  -2.055   2.165  0.00  0.00    +0.241 HD
ENDBRANCH   1  19
TORSDOF 1
