REMARK  Name = *****
REMARK                            x       y       z     vdW  Elec       q    Type
REMARK                         _______ _______ _______ _____ _____    ______ ____
ROOT
ATOM      1  C   LIG    1        7.052  -2.127   2.283  0.00  0.00    +0.120 A 
ATOM      2  C   LIG    1        7.467  -3.444   2.484  0.00  0.00    +0.046 A 
ATOM      3  C   LIG    1        8.828  -3.778   2.408  0.00  0.00    +0.007 A 
ATOM      4  C   LIG    1        9.797  -2.793   2.178  0.00  0.00    -0.038 A 
ATOM      5  C   LIG    1        9.380  -1.461   2.054  0.00  0.00    +0.007 A 
ATOM      6  C   LIG    1        8.019  -1.135   2.106  0.00  0.00    +0.046 A 
ENDROOT
BRANCH   1   7
ATOM      7  O   LIG    1        5.747  -1.701   2.238  0.00  0.00    -0.492 OA
BRANCH   7   8
ATOM      8  C   LIG    1        4.778  -2.700   1.902  0.00  0.00    +0.229 C 
BRANCH   8   9
ATOM      9  C   LIG    1        3.548  -2.071   1.234  0.00  0.00    +0.041 C 
BRANCH   9  11
ATOM     10  C   LIG    1        1.569  -0.505   1.408  0.00  0.00    +0.004 C 
ATOM     11  C   LIG    1        2.777  -1.097   2.128  0.00  0.00    +0.000 C 
ENDBRANCH   9  11
ENDBRANCH   8   9
ENDBRANCH   7   8
ENDBRANCH   1   7
BRANCH   4  12
ATOM     12  C   LIG    1       11.262  -3.175   2.050  0.00  0.00    +0.133 C 
BRANCH  12  13
ATOM     13  C   LIG    1       11.759  -3.539   0.660  0.00  0.00    +0.240 C 
ATOM     14  N   LIG    1       11.168  -2.868  -0.382  0.00  0.00    -0.197 N 
ATOM     15  H   LIG    1       10.336  -2.273  -0.323  0.00  0.00    +0.182 HD
ATOM     16  O   LIG    1       12.684  -4.337   0.471  0.00  0.00    -0.273 OA
BRANCH  14  17
ATOM     17  O   LIG    1       11.636  -3.172  -1.682  0.00  0.00    -0.295 OA
ATOM     18  H   LIG    1       12.373  -3.794  -1.491  0.00  0.00    +0.241 HD
ENDBRANCH  14  17
ENDBRANCH  12  13
ENDBRANCH   4  12
TORSDOF 7
