REMARK  Name = *****
REMARK                            x       y       z     vdW  Elec       q    Type
REMARK                         _______ _______ _______ _____ _____    ______ ____
ROOT
ATOM      1  C   LIG    1       -3.984  -2.897 -10.087  0.00  0.00    +0.015 C 
ATOM      2  C   LIG    1       -5.173  -2.012  -9.674  0.00  0.00    +0.009 C 
ATOM      3  C   LIG    1       -5.887  -1.398 -10.922  0.00  0.00    +0.132 C 
ATOM      4  C   LIG    1       -6.705  -0.243 -10.340  0.00  0.00    +0.043 C 
ATOM      5  C   LIG    1       -5.874   0.276  -9.154  0.00  0.00    +0.008 C 
ATOM      6  C   LIG    1       -4.697  -0.710  -8.972  0.00  0.00    +0.005 C 
ATOM      7  C   LIG    1       -4.168  -0.901  -7.535  0.00  0.00    +0.034 C 
ATOM      8  C   LIG    1       -3.705   0.446  -6.946  0.00  0.00    +0.011 C 
ATOM      9  C   LIG    1       -3.115   0.289  -5.548  0.00  0.00    +0.032 C 
ATOM     10  C   LIG    1       -4.148  -0.383  -4.682  0.00  0.00    -0.057 C 
ATOM     11  C   LIG    1       -4.567  -1.800  -5.122  0.00  0.00    +0.026 C 
ATOM     12  C   LIG    1       -3.340  -2.750  -5.090  0.00  0.00    +0.019 C 
ATOM     13  C   LIG    1       -5.552  -2.377  -4.059  0.00  0.00    +0.022 C 
ATOM     14  C   LIG    1       -6.620  -1.403  -3.589  0.00  0.00    +0.080 C 
ATOM     15  C   LIG    1       -5.961  -0.173  -3.023  0.00  0.00    +0.156 C 
ATOM     16  O   LIG    1       -6.445   0.472  -2.100  0.00  0.00    -0.293 OA
ATOM     17  C   LIG    1       -4.740   0.321  -3.700  0.00  0.00    +0.046 C 
ATOM     18  C   LIG    1       -5.146  -1.676  -6.594  0.00  0.00    +0.149 C 
ATOM     19  F   LIG    1       -6.304  -0.941  -6.500  0.00  0.00    -0.238 F 
ATOM     20  C   LIG    1       -5.534  -3.005  -7.289  0.00  0.00    +0.153 C 
ATOM     21  C   LIG    1       -6.093  -2.791  -8.706  0.00  0.00    +0.044 C 
ENDROOT
BRANCH   3  22
ATOM     22  O   LIG    1       -4.869  -0.768 -11.748  0.00  0.00    -0.380 OA
ATOM     23  H   LIG    1       -5.222  -0.748 -12.663  0.00  0.00    +0.211 HD
ENDBRANCH   3  22
BRANCH   3  24
ATOM     24  C   LIG    1       -6.696  -2.268 -11.904  0.00  0.00    +0.190 C 
ATOM     25  O   LIG    1       -6.535  -2.119 -13.126  0.00  0.00    -0.292 OA
BRANCH  24  26
ATOM     26  C   LIG    1       -7.690  -3.297 -11.414  0.00  0.00    +0.233 C 
BRANCH  26  27
ATOM     27  O   LIG    1       -7.087  -4.574 -11.318  0.00  0.00    -0.387 OA
ATOM     28  H   LIG    1       -6.807  -4.823 -12.219  0.00  0.00    +0.210 HD
ENDBRANCH  26  27
ENDBRANCH  24  26
ENDBRANCH   3  24
BRANCH  20  29
ATOM     29  O   LIG    1       -6.548  -3.703  -6.564  0.00  0.00    -0.389 OA
ATOM     30  H   LIG    1       -7.290  -3.081  -6.440  0.00  0.00    +0.210 HD
ENDBRANCH  20  29
TORSDOF 5
