REMARK  Name = *****
REMARK                            x       y       z     vdW  Elec       q    Type
REMARK                         _______ _______ _______ _____ _____    ______ ____
ROOT
ATOM      1  C   LIG    1        2.871  -0.798  -0.977  0.00  0.00    +0.286 A 
ATOM      2  C   LIG    1        3.791  -0.374  -1.940  0.00  0.00    +0.172 A 
ATOM      3  C   LIG    1        4.370  -1.335  -2.780  0.00  0.00    +0.327 A 
ATOM      4  C   LIG    1        4.052  -2.697  -2.697  0.00  0.00    +0.274 A 
ATOM      5  C   LIG    1        3.122  -3.098  -1.722  0.00  0.00    +0.327 A 
ATOM      6  C   LIG    1        2.532  -2.154  -0.858  0.00  0.00    +0.172 A 
ENDROOT
BRANCH   1   8
ATOM      7  O   LIG    1        1.446  -0.231   0.761  0.00  0.00    +0.041 OA
ATOM      8  N   LIG    1        2.252   0.188  -0.078  0.00  0.00    +0.080 N 
ATOM      9  O   LIG    1        2.581   1.373  -0.219  0.00  0.00    -0.576 OA
ENDBRANCH   1   8
BRANCH   3  10
ATOM     10  N   LIG    1        5.325  -0.869  -3.768  0.00  0.00    +0.084 N 
ATOM     11  O   LIG    1        4.897  -0.076  -4.617  0.00  0.00    -0.576 OA
ATOM     12  O   LIG    1        6.500  -1.231  -3.635  0.00  0.00    +0.042 OA
ENDBRANCH   3  10
BRANCH   5  13
ATOM     13  N   LIG    1        2.730  -4.507  -1.584  0.00  0.00    +0.084 N 
ATOM     14  O   LIG    1        3.264  -5.323  -2.351  0.00  0.00    -0.576 OA
ATOM     15  O   LIG    1        1.896  -4.794  -0.718  0.00  0.00    +0.042 OA
ENDBRANCH   5  13
BRANCH   4  16
ATOM     16  O   LIG    1        4.645  -3.552  -3.584  0.00  0.00    -0.497 OA
ATOM     17  H   LIG    1        4.387  -4.486  -3.419  0.00  0.00    +0.293 HD
ENDBRANCH   4  16
TORSDOF 4
