REMARK  Name = *****
REMARK                            x       y       z     vdW  Elec       q    Type
REMARK                         _______ _______ _______ _____ _____    ______ ____
ROOT
ATOM      1  C   LIG    1       -0.830  -0.327   0.257  0.00  0.00    +0.042 C 
ATOM      2  C   LIG    1       -2.354  -0.211   0.144  0.00  0.00    +0.069 C 
ATOM      3  C   LIG    1       -2.891   1.234  -0.172  0.00  0.00    -0.000 C 
ATOM      4  C   LIG    1       -4.347   1.375   0.405  0.00  0.00    +0.014 C 
ATOM      5  C   LIG    1       -3.010   1.244  -1.750  0.00  0.00    +0.001 C 
ATOM      6  C   LIG    1       -2.482   2.438  -2.618  0.00  0.00    -0.004 C 
ATOM      7  C   LIG    1       -1.587   3.730  -1.622  0.00  0.00    +0.002 C 
ATOM      8  C   LIG    1       -1.014   3.058  -0.369  0.00  0.00    +0.005 C 
ATOM      9  C   LIG    1       -2.611   5.225  -1.323  0.00  0.00    +0.009 C 
ATOM     10  C   LIG    1       -2.478   5.922  -0.001  0.00  0.00    +0.015 C 
ATOM     11  C   LIG    1       -3.916   5.964  -2.420  0.00  0.00    +0.009 C 
ATOM     12  C   LIG    1       -3.115   6.801  -3.359  0.00  0.00    +0.124 C 
ATOM     13  C   LIG    1       -2.502   5.639  -4.001  0.00  0.00    +0.307 C 
ATOM     14  O   LIG    1       -1.991   5.605  -5.118  0.00  0.00    -0.251 OA
ATOM     15  O   LIG    1       -2.691   4.543  -3.180  0.00  0.00    -0.464 OA
ATOM     16  C   LIG    1       -4.809   4.581  -3.427  0.00  0.00    +0.005 C 
ATOM     17  C   LIG    1       -3.584   4.282  -1.571  0.00  0.00    +0.239 C 
ATOM     18  C   LIG    1       -3.927   2.964  -3.658  0.00  0.00    +0.004 C 
ATOM     19  C   LIG    1       -2.551  -0.138  -2.238  0.00  0.00    +0.007 C 
ATOM     20  C   LIG    1       -2.062   2.367   0.498  0.00  0.00    +0.010 C 
ATOM     21  C   LIG    1       -2.854  -1.038  -1.049  0.00  0.00    +0.035 C 
ENDROOT
BRANCH   2  22
ATOM     22  O   LIG    1       -2.872  -0.728   1.367  0.00  0.00    -0.388 OA
ATOM     23  H   LIG    1       -3.799  -0.987   1.233  0.00  0.00    +0.210 HD
ENDBRANCH   2  22
TORSDOF 1
