REMARK  Name = *****
REMARK                            x       y       z     vdW  Elec       q    Type
REMARK                         _______ _______ _______ _____ _____    ______ ____
ROOT
ATOM      1  C   LIG    1        1.936   4.570  -0.524  0.00  0.00    -0.000 C 
ATOM      2  C   LIG    1        1.921   5.793   0.073  0.00  0.00    -0.066 C 
ATOM      3  C   LIG    1        3.175   6.685   0.169  0.00  0.00    +0.021 C 
ATOM      4  C   LIG    1        4.566   6.055   0.001  0.00  0.00    +0.009 C 
ATOM      5  C   LIG    1        5.513   7.050   0.659  0.00  0.00    +0.007 C 
ATOM      6  C   LIG    1        4.794   7.467   1.951  0.00  0.00    +0.024 C 
ATOM      7  C   LIG    1        3.299   7.595   1.453  0.00  0.00    -0.020 C 
ATOM      8  C   LIG    1        3.067   9.072   1.000  0.00  0.00    +0.012 C 
ATOM      9  C   LIG    1        2.243   7.255   2.513  0.00  0.00    +0.008 C 
ATOM     10  C   LIG    1        0.826   7.232   1.941  0.00  0.00    +0.005 C 
ATOM     11  C   LIG    1        0.680   6.510   0.585  0.00  0.00    +0.031 C 
ENDROOT
BRANCH   1  19
ATOM     12  C   LIG    1       -1.682   2.287  -1.755  0.00  0.00    +0.015 C 
ATOM     13  C   LIG    1       -0.430   1.766  -1.863  0.00  0.00    -0.023 C 
ATOM     14  C   LIG    1       -0.227   0.298  -2.241  0.00  0.00    +0.147 C 
ATOM     15  C   LIG    1        0.844   0.091  -3.310  0.00  0.00    +0.067 C 
ATOM     16  C   LIG    1        2.131   0.803  -2.931  0.00  0.00    +0.122 C 
ATOM     17  C   LIG    1        1.881   2.302  -2.683  0.00  0.00    +0.067 C 
ATOM     18  C   LIG    1        0.773   2.619  -1.680  0.00  0.00    -0.040 C 
ATOM     19  C   LIG    1        0.835   3.624  -0.760  0.00  0.00    +0.004 C 
BRANCH  14  20
ATOM     20  O   LIG    1       -1.433  -0.304  -2.734  0.00  0.00    -0.387 OA
ATOM     21  H   LIG    1       -1.647   0.132  -3.577  0.00  0.00    +0.210 HD
ENDBRANCH  14  20
BRANCH  16  22
ATOM     22  O   LIG    1        2.738   0.167  -1.808  0.00  0.00    -0.391 OA
ATOM     23  H   LIG    1        2.276   0.454  -1.000  0.00  0.00    +0.210 HD
ENDBRANCH  16  22
ENDBRANCH   1  19
BRANCH   6  24
ATOM     24  C   LIG    1        5.117   6.516   3.158  0.00  0.00    +0.119 C 
ATOM     25  C   LIG    1        6.626   6.537   3.480  0.00  0.00    +0.038 C 
BRANCH  24  26
ATOM     26  O   LIG    1        4.664   5.178   2.892  0.00  0.00    -0.376 OA
BRANCH  26  27
ATOM     27  C   LIG    1        4.841   4.262   3.977  0.00  0.00    +0.163 C 
BRANCH  27  28
ATOM     28  C   LIG    1        4.310   2.871   3.608  0.00  0.00    +0.062 C 
BRANCH  28  29
ATOM     29  C   LIG    1        2.811   2.792   3.276  0.00  0.00    +0.063 C 
ATOM     30  C   LIG    1        1.919   3.322   4.396  0.00  0.00    +0.041 C 
ATOM     31  C   LIG    1        2.416   1.352   2.935  0.00  0.00    +0.041 C 
BRANCH  29  32
ATOM     32  O   LIG    1        2.542   3.552   2.112  0.00  0.00    -0.389 OA
ATOM     33  H   LIG    1        3.130   4.335   2.117  0.00  0.00    +0.210 HD
ENDBRANCH  29  32
ENDBRANCH  28  29
ENDBRANCH  27  28
ENDBRANCH  26  27
ENDBRANCH  24  26
ENDBRANCH   6  24
TORSDOF 9
