REMARK  Name = *****
REMARK                            x       y       z     vdW  Elec       q    Type
REMARK                         _______ _______ _______ _____ _____    ______ ____
ROOT
ATOM      1  C   LIG    1        6.720   6.176  -4.833  0.00  0.00    +0.132 C 
ENDROOT
BRANCH   1   2
ATOM      2  C   LIG    1        6.609   7.645  -4.233  0.00  0.00    +0.173 C 
ATOM      3  C   LIG    1        7.565   8.674  -4.901  0.00  0.00    +0.176 C 
ATOM      4  C   LIG    1        7.618  10.029  -4.175  0.00  0.00    +0.177 C 
ATOM      5  C   LIG    1        7.865   9.833  -2.680  0.00  0.00    +0.184 C 
ATOM      6  C   LIG    1        6.793   8.879  -2.117  0.00  0.00    +0.207 C 
ATOM      7  O   LIG    1        6.863   7.600  -2.799  0.00  0.00    -0.356 OA
BRANCH   3   8
ATOM      8  O   LIG    1        8.914   8.177  -4.965  0.00  0.00    -0.387 OA
ATOM      9  H   LIG    1        9.148   7.790  -4.101  0.00  0.00    +0.210 HD
ENDBRANCH   3   8
BRANCH   4  10
ATOM     10  O   LIG    1        8.676  10.851  -4.702  0.00  0.00    -0.387 OA
ATOM     11  H   LIG    1        9.293  10.240  -5.156  0.00  0.00    +0.210 HD
ENDBRANCH   4  10
BRANCH   5  12
ATOM     12  O   LIG    1        7.928  11.101  -2.017  0.00  0.00    -0.386 OA
ATOM     13  H   LIG    1        8.381  11.701  -2.646  0.00  0.00    +0.210 HD
ENDBRANCH   5  12
BRANCH   6  14
ATOM     14  S   LIG    1        5.113   9.630  -2.157  0.00  0.00    -0.131 S 
ATOM     15  C   LIG    1        4.209   8.363  -1.257  0.00  0.00    +0.087 C 
ENDBRANCH   6  14
ENDBRANCH   1   2
BRANCH   1  17
ATOM     16  C   LIG    1        5.076   4.183  -4.573  0.00  0.00    +0.231 C 
ATOM     17  N   LIG    1        5.826   5.237  -4.069  0.00  0.00    -0.306 N 
ATOM     18  H   LIG    1        6.044   5.131  -3.081  0.00  0.00    +0.149 HD
ATOM     19  O   LIG    1        5.022   3.901  -5.750  0.00  0.00    -0.274 OA
BRANCH  16  24
ATOM     20  C   LIG    1        4.344   1.027  -3.100  0.00  0.00    +0.005 C 
ATOM     21  C   LIG    1        5.350   1.838  -2.289  0.00  0.00    +0.088 C 
ATOM     22  N   LIG    1        4.885   3.234  -2.276  0.00  0.00    -0.294 NA
ATOM     23  C   LIG    1        3.989   3.463  -1.143  0.00  0.00    +0.105 C 
ATOM     24  C   LIG    1        4.179   3.427  -3.564  0.00  0.00    +0.143 C 
ATOM     25  C   LIG    1        3.811   2.033  -4.117  0.00  0.00    +0.033 C 
BRANCH  20  26
ATOM     26  C   LIG    1        4.970  -0.235  -3.722  0.00  0.00    +0.004 C 
BRANCH  26  28
ATOM     27  C   LIG    1        4.463  -1.853  -1.780  0.00  0.00    +0.004 C 
ATOM     28  C   LIG    1        5.515  -1.244  -2.696  0.00  0.00    -0.003 C 
ENDBRANCH  26  28
ENDBRANCH  20  26
ENDBRANCH  16  24
ENDBRANCH   1  17
BRANCH   1  29
ATOM     29  C   LIG    1        6.570   6.142  -6.396  0.00  0.00    +0.134 C 
ATOM     30  C   LIG    1        5.191   6.469  -6.980  0.00  0.00    +0.039 C 
BRANCH  29  31
ATOM     31  O   LIG    1        7.030   4.884  -6.907  0.00  0.00    -0.390 OA
ATOM     32  H   LIG    1        6.372   4.218  -6.601  0.00  0.00    +0.210 HD
ENDBRANCH  29  31
ENDBRANCH   1  29
TORSDOF 11
