REMARK  Name = *****
REMARK                            x       y       z     vdW  Elec       q    Type
REMARK                         _______ _______ _______ _____ _____    ______ ____
ROOT
ATOM      1  C   LIG    1        5.091  -0.592   2.312  0.00  0.00    +0.161 C 
ENDROOT
BRANCH   1   2
ATOM      2  C   LIG    1        4.617  -1.129   3.657  0.00  0.00    -0.014 A 
ATOM      3  C   LIG    1        4.144  -2.439   3.810  0.00  0.00    +0.055 A 
ATOM      4  C   LIG    1        3.728  -2.891   5.054  0.00  0.00    +0.159 A 
ATOM      5  C   LIG    1        3.777  -2.057   6.170  0.00  0.00    +0.158 A 
ATOM      6  C   LIG    1        4.261  -0.763   6.050  0.00  0.00    +0.049 A 
ATOM      7  C   LIG    1        4.690  -0.307   4.799  0.00  0.00    +0.010 A 
BRANCH   4   8
ATOM      8  O   LIG    1        3.271  -4.170   5.177  0.00  0.00    -0.503 OA
ATOM      9  H   LIG    1        3.048  -4.259   6.124  0.00  0.00    +0.292 HD
ENDBRANCH   4   8
BRANCH   5  10
ATOM     10  O   LIG    1        3.341  -2.571   7.357  0.00  0.00    -0.503 OA
ATOM     11  H   LIG    1        3.439  -1.879   8.035  0.00  0.00    +0.292 HD
ENDBRANCH   5  10
ENDBRANCH   1   2
BRANCH   1  12
ATOM     12  O   LIG    1        6.497  -0.819   2.194  0.00  0.00    -0.386 OA
ATOM     13  H   LIG    1        6.651  -1.727   2.504  0.00  0.00    +0.210 HD
ENDBRANCH   1  12
BRANCH   1  14
ATOM     14  C   LIG    1        4.327  -1.023   0.995  0.00  0.00    +0.087 C 
BRANCH  14  16
ATOM     15  C   LIG    1        2.079  -0.500  -0.194  0.00  0.00    +0.005 C 
ATOM     16  C   LIG    1        2.845  -0.563   1.122  0.00  0.00    +0.018 C 
ENDBRANCH  14  16
BRANCH  14  17
ATOM     17  N   LIG    1        4.344  -2.446   0.567  0.00  0.00    -0.308 NA
ATOM     18  H   LIG    1        3.812  -2.534  -0.298  0.00  0.00    +0.122 HD
BRANCH  17  19
ATOM     19  C   LIG    1        5.639  -3.111   0.386  0.00  0.00    +0.048 C 
ATOM     20  C   LIG    1        6.584  -2.405  -0.586  0.00  0.00    +0.024 C 
ATOM     21  C   LIG    1        5.379  -4.538  -0.119  0.00  0.00    +0.024 C 
ENDBRANCH  17  19
ENDBRANCH  14  17
ENDBRANCH   1  14
TORSDOF 8
