REMARK  Name = *****
REMARK                            x       y       z     vdW  Elec       q    Type
REMARK                         _______ _______ _______ _____ _____    ______ ____
ROOT
ATOM      1  C   LIG    1        1.055   0.112  -0.081  0.00  0.00    +0.040 C 
ATOM      2  C   LIG    1        2.555  -0.079   0.071  0.00  0.00    +0.137 C 
ENDROOT
BRANCH   2   3
ATOM      3  O   LIG    1        3.247   0.767  -0.856  0.00  0.00    -0.390 OA
ATOM      4  H   LIG    1        2.910   1.673  -0.745  0.00  0.00    +0.210 HD
ENDBRANCH   2   3
BRANCH   2   5
ATOM      5  C   LIG    1        3.040   0.253   1.485  0.00  0.00    +0.186 C 
BRANCH   5   6
ATOM      6  O   LIG    1        4.451   0.058   1.564  0.00  0.00    -0.393 OA
ATOM      7  H   LIG    1        4.808   0.337   0.697  0.00  0.00    +0.209 HD
ENDBRANCH   5   6
ENDBRANCH   2   5
TORSDOF 3
