REMARK  Name = *****
REMARK                            x       y       z     vdW  Elec       q    Type
REMARK                         _______ _______ _______ _____ _____    ______ ____
ROOT
ATOM      1  C   LIG    1        0.807   0.183   0.621  0.00  0.00    +0.105 C 
ATOM      2  N   LIG    1        2.201   0.482   0.885  0.00  0.00    -0.302 NA
ATOM      3  C   LIG    1        2.899   1.227  -0.197  0.00  0.00    +0.111 C 
ATOM      4  C   LIG    1        3.711   2.499   0.236  0.00  0.00    +0.118 C 
ATOM      5  N   LIG    1        4.456   2.196   1.487  0.00  0.00    -0.320 N 
ATOM      6  C   LIG    1        5.502   1.278   1.295  0.00  0.00    +0.034 A 
ATOM      7  C   LIG    1        6.686   1.770   0.709  0.00  0.00    -0.022 A 
ATOM      8  C   LIG    1        6.763   3.239   0.399  0.00  0.00    +0.072 C 
ATOM      9  C   LIG    1        5.851   3.669  -0.733  0.00  0.00    -0.038 A 
ATOM     10  C   LIG    1        6.397   4.566  -1.675  0.00  0.00    +0.004 A 
ATOM     11  C   LIG    1        5.631   5.076  -2.718  0.00  0.00    +0.000 A 
ATOM     12  C   LIG    1        4.308   4.682  -2.849  0.00  0.00    +0.000 A 
ATOM     13  C   LIG    1        3.747   3.794  -1.925  0.00  0.00    +0.006 A 
ATOM     14  C   LIG    1        7.750   0.905   0.413  0.00  0.00    +0.006 A 
ATOM     15  C   LIG    1        7.654  -0.455   0.674  0.00  0.00    +0.000 A 
ATOM     16  C   LIG    1        6.489  -0.958   1.251  0.00  0.00    +0.002 A 
ATOM     17  C   LIG    1        5.442  -0.091   1.568  0.00  0.00    +0.023 A 
ATOM     18  C   LIG    1        3.505   1.974   2.583  0.00  0.00    +0.121 C 
ATOM     19  C   LIG    1        4.489   3.283  -0.835  0.00  0.00    -0.022 A 
ATOM     20  C   LIG    1        2.436   0.900   2.279  0.00  0.00    +0.103 C 
ENDROOT
TORSDOF 0
