REMARK  Name = *****
REMARK                            x       y       z     vdW  Elec       q    Type
REMARK                         _______ _______ _______ _____ _____    ______ ____
ROOT
ATOM      1  C   LIG    1        4.488   1.419  -0.615  0.00  0.00    +0.260 C 
ATOM      2  N   LIG    1        4.706   2.840  -0.576  0.00  0.00    -0.235 N 
ATOM      3  C   LIG    1        5.433   3.196   0.542  0.00  0.00    +0.317 C 
ATOM      4  O   LIG    1        5.677   4.351   0.887  0.00  0.00    -0.252 OA
ATOM      5  N   LIG    1        5.799   2.076   1.220  0.00  0.00    -0.199 N 
ATOM      6  C   LIG    1        5.183   0.979   0.687  0.00  0.00    +0.264 C 
ATOM      7  O   LIG    1        5.154  -0.148   1.163  0.00  0.00    -0.271 OA
ENDROOT
BRANCH   1  10
ATOM      8  O   LIG    1        5.111  -1.220  -2.988  0.00  0.00    -0.253 OA
ATOM      9  C   LIG    1        4.509  -0.483  -2.212  0.00  0.00    +0.307 C 
ATOM     10  N   LIG    1        5.017   0.724  -1.781  0.00  0.00    -0.235 N 
ATOM     11  N   LIG    1        3.285  -0.817  -1.694  0.00  0.00    -0.277 N 
ATOM     12  H   LIG    1        2.607  -0.073  -1.690  0.00  0.00    +0.152 HD
BRANCH  10  13
ATOM     13  C   LIG    1        6.294   1.143  -2.318  0.00  0.00    +0.270 C 
BRANCH  13  14
ATOM     14  O   LIG    1        7.323   0.668  -1.475  0.00  0.00    -0.377 OA
ATOM     15  H   LIG    1        7.338  -0.298  -1.604  0.00  0.00    +0.211 HD
ENDBRANCH  13  14
ENDBRANCH  10  13
BRANCH  11  16
ATOM     16  C   LIG    1        2.697  -2.068  -2.034  0.00  0.00    +0.265 C 
BRANCH  16  17
ATOM     17  O   LIG    1        1.473  -2.099  -1.338  0.00  0.00    -0.377 OA
ATOM     18  H   LIG    1        1.709  -2.279  -0.412  0.00  0.00    +0.211 HD
ENDBRANCH  16  17
ENDBRANCH  11  16
ENDBRANCH   1  10
BRANCH   2  19
ATOM     19  C   LIG    1        3.874   3.754  -1.305  0.00  0.00    +0.270 C 
BRANCH  19  20
ATOM     20  O   LIG    1        3.812   3.328  -2.649  0.00  0.00    -0.377 OA
ATOM     21  H   LIG    1        3.418   4.056  -3.158  0.00  0.00    +0.211 HD
ENDBRANCH  19  20
ENDBRANCH   2  19
BRANCH   5  22
ATOM     22  C   LIG    1        6.562   2.051   2.430  0.00  0.00    +0.276 C 
BRANCH  22  23
ATOM     23  O   LIG    1        7.901   2.401   2.127  0.00  0.00    -0.376 OA
ATOM     24  H   LIG    1        7.849   3.217   1.598  0.00  0.00    +0.211 HD
ENDBRANCH  22  23
ENDBRANCH   5  22
TORSDOF 9
