REMARK  Name = *****
REMARK                            x       y       z     vdW  Elec       q    Type
REMARK                         _______ _______ _______ _____ _____    ______ ____
ROOT
ATOM      1  C   LIG    1        4.345  -1.054  -3.052  0.00  0.00    +0.117 C 
ENDROOT
BRANCH   1   6
ATOM      2  C   LIG    1        7.147  -4.412  -0.827  0.00  0.00    +0.105 C 
ATOM      3  N   LIG    1        6.529  -3.096  -0.656  0.00  0.00    -0.303 NA
ATOM      4  C   LIG    1        7.030  -2.135  -1.655  0.00  0.00    +0.099 C 
ATOM      5  C   LIG    1        6.471  -2.334  -3.084  0.00  0.00    +0.100 C 
ATOM      6  N   LIG    1        4.991  -2.395  -3.188  0.00  0.00    -0.289 NA
ATOM      7  C   LIG    1        4.513  -3.376  -2.182  0.00  0.00    +0.100 C 
ATOM      8  C   LIG    1        5.059  -3.179  -0.749  0.00  0.00    +0.099 C 
ENDBRANCH   1   6
BRANCH   1   9
ATOM      9  C   LIG    1        4.843  -0.037  -4.097  0.00  0.00    -0.026 A 
ATOM     10  C   LIG    1        5.089  -0.419  -5.430  0.00  0.00    +0.007 A 
ATOM     11  C   LIG    1        5.570   0.504  -6.362  0.00  0.00    +0.020 A 
ATOM     12  C   LIG    1        5.777   1.825  -5.982  0.00  0.00    +0.041 A 
ATOM     13 CL   LIG    1        6.370   2.962  -7.129  0.00  0.00    -0.084 Cl
ATOM     14  C   LIG    1        5.508   2.234  -4.676  0.00  0.00    +0.020 A 
ATOM     15  C   LIG    1        5.044   1.306  -3.737  0.00  0.00    +0.007 A 
ENDBRANCH   1   9
BRANCH   1  16
ATOM     16  C   LIG    1        2.808  -1.104  -3.103  0.00  0.00    -0.026 A 
ATOM     17  C   LIG    1        2.048  -0.270  -2.266  0.00  0.00    +0.005 A 
ATOM     18  C   LIG    1        0.652  -0.323  -2.280  0.00  0.00    +0.000 A 
ATOM     19  C   LIG    1       -0.004  -1.212  -3.129  0.00  0.00    +0.000 A 
ATOM     20  C   LIG    1        0.732  -2.029  -3.982  0.00  0.00    +0.000 A 
ATOM     21  C   LIG    1        2.126  -1.963  -3.984  0.00  0.00    +0.005 A 
ENDBRANCH   1  16
TORSDOF 3
