REMARK  Name = *****
REMARK                            x       y       z     vdW  Elec       q    Type
REMARK                         _______ _______ _______ _____ _____    ______ ____
ROOT
ATOM      1  C   LIG    1       13.085   4.673   0.395  0.00  0.00    +0.168 A 
ATOM      2  N   LIG    1       13.318   5.963   0.155  0.00  0.00    -0.208 NA
ATOM      3  C   LIG    1       14.616   6.283   0.078  0.00  0.00    +0.168 A 
ATOM      4  N   LIG    1       15.621   5.415   0.148  0.00  0.00    -0.208 NA
ATOM      5  C   LIG    1       15.279   4.155   0.345  0.00  0.00    +0.164 A 
ATOM      6  N   LIG    1       14.024   3.727   0.488  0.00  0.00    -0.208 NA
ENDROOT
BRANCH   5   7
ATOM      7  C   LIG    1       16.356   3.152   0.388  0.00  0.00    +0.019 A 
ATOM      8  C   LIG    1       17.557   3.360  -0.313  0.00  0.00    +0.015 A 
ATOM      9  C   LIG    1       18.593   2.423  -0.272  0.00  0.00    +0.046 A 
ATOM     10  C   LIG    1       18.453   1.248   0.459  0.00  0.00    +0.120 A 
ATOM     11  C   LIG    1       17.279   1.025   1.176  0.00  0.00    +0.046 A 
ATOM     12  C   LIG    1       16.239   1.965   1.136  0.00  0.00    +0.015 A 
BRANCH  10  13
ATOM     13  O   LIG    1       19.536   0.414   0.438  0.00  0.00    -0.495 OA
ATOM     14  C   LIG    1       19.251  -0.967   0.634  0.00  0.00    +0.277 C 
ENDBRANCH  10  13
ENDBRANCH   5   7
BRANCH   1  18
ATOM     15  C   LIG    1        8.997   3.349   0.867  0.00  0.00    +0.124 A 
ATOM     16  C   LIG    1       10.057   2.467   1.003  0.00  0.00    +0.091 A 
ATOM     17  C   LIG    1       11.364   2.896   0.826  0.00  0.00    +0.131 A 
ATOM     18  C   LIG    1       11.686   4.241   0.573  0.00  0.00    +0.061 A 
ATOM     19  C   LIG    1       10.600   5.144   0.529  0.00  0.00    +0.019 A 
ATOM     20  C   LIG    1        9.271   4.700   0.665  0.00  0.00    +0.046 A 
BRANCH  17  21
ATOM     21  O   LIG    1       12.287   1.881   0.906  0.00  0.00    -0.506 OA
ATOM     22  H   LIG    1       13.153   2.253   0.658  0.00  0.00    +0.292 HD
ENDBRANCH  17  21
BRANCH  15  23
ATOM     23  O   LIG    1        7.689   2.961   0.965  0.00  0.00    -0.492 OA
BRANCH  23  24
ATOM     24  C   LIG    1        7.390   1.629   0.522  0.00  0.00    +0.232 C 
BRANCH  24  25
ATOM     25  C   LIG    1        6.176   1.034   1.262  0.00  0.00    +0.026 C 
BRANCH  25  26
ATOM     26  C   LIG    1        6.093  -0.477   0.912  0.00  0.00    +0.003 C 
ATOM     27  C   LIG    1        5.080  -1.262   1.736  0.00  0.00    +0.004 C 
ENDBRANCH  25  26
BRANCH  25  28
ATOM     28  C   LIG    1        4.852   1.747   0.922  0.00  0.00    +0.007 C 
BRANCH  28  29
ATOM     29  C   LIG    1        4.772   3.253   1.194  0.00  0.00    +0.000 C 
BRANCH  29  31
ATOM     30  C   LIG    1        4.136   3.134   3.675  0.00  0.00    +0.004 C 
ATOM     31  C   LIG    1        5.089   3.690   2.627  0.00  0.00    -0.003 C 
ENDBRANCH  29  31
ENDBRANCH  28  29
ENDBRANCH  25  28
ENDBRANCH  24  25
ENDBRANCH  23  24
ENDBRANCH  15  23
ENDBRANCH   1  18
BRANCH   3  32
ATOM     32  C   LIG    1       14.965   7.699  -0.075  0.00  0.00    +0.061 A 
ATOM     33  C   LIG    1       14.158   8.639  -0.740  0.00  0.00    +0.131 A 
ATOM     34  C   LIG    1       14.556   9.971  -0.878  0.00  0.00    +0.091 A 
ATOM     35  C   LIG    1       15.768  10.412  -0.347  0.00  0.00    +0.124 A 
ATOM     36  C   LIG    1       16.587   9.505   0.322  0.00  0.00    +0.046 A 
ATOM     37  C   LIG    1       16.184   8.170   0.452  0.00  0.00    +0.019 A 
BRANCH  33  38
ATOM     38  O   LIG    1       12.955   8.315  -1.321  0.00  0.00    -0.506 OA
ATOM     39  H   LIG    1       12.760   7.378  -1.123  0.00  0.00    +0.292 HD
ENDBRANCH  33  38
BRANCH  35  40
ATOM     40  O   LIG    1       16.078  11.723  -0.590  0.00  0.00    -0.492 OA
BRANCH  40  41
ATOM     41  C   LIG    1       16.948  12.354   0.356  0.00  0.00    +0.232 C 
BRANCH  41  42
ATOM     42  C   LIG    1       17.173  13.827  -0.051  0.00  0.00    +0.026 C 
BRANCH  42  43
ATOM     43  C   LIG    1       15.840  14.607  -0.064  0.00  0.00    +0.003 C 
ATOM     44  C   LIG    1       15.967  16.061  -0.508  0.00  0.00    +0.004 C 
ENDBRANCH  42  43
BRANCH  42  45
ATOM     45  C   LIG    1       18.257  14.484   0.835  0.00  0.00    +0.007 C 
BRANCH  45  46
ATOM     46  C   LIG    1       17.893  14.579   2.324  0.00  0.00    +0.000 C 
BRANCH  46  47
ATOM     47  C   LIG    1       18.984  15.287   3.129  0.00  0.00    -0.003 C 
ATOM     48  C   LIG    1       18.632  15.370   4.608  0.00  0.00    +0.004 C 
ENDBRANCH  46  47
ENDBRANCH  45  46
ENDBRANCH  42  45
ENDBRANCH  41  42
ENDBRANCH  40  41
ENDBRANCH  35  40
ENDBRANCH   3  32
TORSDOF 20
