REMARK  Name = *****
REMARK                            x       y       z     vdW  Elec       q    Type
REMARK                         _______ _______ _______ _____ _____    ______ ____
ROOT
ATOM      1  C   LIG    1        3.308   0.579  -2.365  0.00  0.00    +0.084 C 
ATOM      2  C   LIG    1        3.763  -0.344  -3.517  0.00  0.00    +0.027 C 
ENDROOT
BRANCH   1   3
ATOM      3  N   LIG    1        4.042   0.202  -1.169  0.00  0.00    -0.308 NA
ATOM      4  H   LIG    1        4.631   0.890  -0.718  0.00  0.00    +0.122 HD
BRANCH   3   6
ATOM      5  C   LIG    1        4.261  -0.837   0.906  0.00  0.00    +0.024 C 
ATOM      6  C   LIG    1        3.929  -1.115  -0.542  0.00  0.00    +0.051 C 
BRANCH   6   7
ATOM      7  C   LIG    1        4.861  -2.204  -1.194  0.00  0.00    +0.023 C 
BRANCH   7   8
ATOM      8  C   LIG    1        5.035  -3.657  -0.649  0.00  0.00    +0.036 C 
BRANCH   8   9
ATOM      9  C   LIG    1        5.892  -4.017   0.570  0.00  0.00    -0.047 A 
ATOM     10  C   LIG    1        6.622  -5.185   0.663  0.00  0.00    +0.003 A 
ATOM     11  C   LIG    1        7.353  -5.483   1.849  0.00  0.00    +0.000 A 
ATOM     12  C   LIG    1        7.318  -4.638   2.963  0.00  0.00    +0.000 A 
ATOM     13  C   LIG    1        6.563  -3.509   2.883  0.00  0.00    +0.000 A 
ATOM     14  C   LIG    1        5.946  -3.207   1.721  0.00  0.00    +0.003 A 
ENDBRANCH   8   9
ENDBRANCH   7   8
ENDBRANCH   6   7
ENDBRANCH   3   6
ENDBRANCH   1   3
BRANCH   1  15
ATOM     15  C   LIG    1        3.433   2.091  -2.859  0.00  0.00    +0.161 C 
BRANCH  15  16
ATOM     16  C   LIG    1        3.224   3.257  -1.885  0.00  0.00    -0.018 A 
ATOM     17  C   LIG    1        2.147   4.160  -2.030  0.00  0.00    +0.010 A 
ATOM     18  C   LIG    1        2.001   5.280  -1.200  0.00  0.00    +0.046 A 
ATOM     19  C   LIG    1        2.931   5.520  -0.203  0.00  0.00    +0.117 A 
ATOM     20  C   LIG    1        4.022   4.675  -0.048  0.00  0.00    +0.046 A 
ATOM     21  C   LIG    1        4.171   3.559  -0.889  0.00  0.00    +0.010 A 
BRANCH  19  22
ATOM     22  O   LIG    1        2.734   6.597   0.610  0.00  0.00    -0.507 OA
ATOM     23  H   LIG    1        3.387   6.569   1.327  0.00  0.00    +0.292 HD
ENDBRANCH  19  22
ENDBRANCH  15  16
BRANCH  15  24
ATOM     24  O   LIG    1        2.518   2.303  -3.958  0.00  0.00    -0.386 OA
ATOM     25  H   LIG    1        2.242   1.448  -4.321  0.00  0.00    +0.210 HD
ENDBRANCH  15  24
ENDBRANCH   1  15
TORSDOF 9
