REMARK  Name = *****
REMARK                            x       y       z     vdW  Elec       q    Type
REMARK                         _______ _______ _______ _____ _____    ______ ____
ROOT
ATOM      1  C   LIG    1        3.631   0.056  -0.612  0.00  0.00    +0.105 C 
ATOM      2  N   LIG    1        3.806  -0.034   0.851  0.00  0.00    -0.304 NA
ATOM      3  C   LIG    1        2.439  -0.251   1.338  0.00  0.00    +0.093 C 
ATOM      4  C   LIG    1        2.392  -1.798   1.295  0.00  0.00    +0.045 C 
ATOM      5  C   LIG    1        3.512  -2.128   2.244  0.00  0.00    +0.045 C 
ATOM      6  C   LIG    1        3.133  -1.650   3.650  0.00  0.00    +0.001 A 
ATOM      7  C   LIG    1        1.791  -1.650   4.125  0.00  0.00    +0.132 A 
ATOM      8  O   LIG    1        0.770  -2.476   3.710  0.00  0.00    -0.456 OA
ATOM      9  C   LIG    1        0.244  -2.397   2.433  0.00  0.00    +0.132 A 
ATOM     10  C   LIG    1       -1.132  -2.542   2.275  0.00  0.00    +0.046 A 
ATOM     11  C   LIG    1       -1.710  -2.611   0.982  0.00  0.00    +0.004 A 
ATOM     12  C   LIG    1       -0.923  -2.616  -0.134  0.00  0.00    +0.001 A 
ATOM     13  C   LIG    1        0.435  -2.466   0.015  0.00  0.00    +0.007 A 
ATOM     14  C   LIG    1        1.422  -0.790   5.169  0.00  0.00    +0.048 A 
ATOM     15  C   LIG    1        2.358   0.056   5.760  0.00  0.00    +0.023 A 
ATOM     16  C   LIG    1        3.693  -0.035   5.387  0.00  0.00    +0.042 A 
ATOM     17 CL   LIG    1        4.851   1.019   6.103  0.00  0.00    -0.084 Cl
ATOM     18  C   LIG    1        4.090  -0.911   4.375  0.00  0.00    +0.027 A 
ATOM     19  C   LIG    1        1.006  -2.293   1.305  0.00  0.00    -0.000 A 
ATOM     20  C   LIG    1        4.548  -1.242   1.394  0.00  0.00    +0.093 C 
ENDROOT
TORSDOF 0
