REMARK  Name = *****
REMARK                            x       y       z     vdW  Elec       q    Type
REMARK                         _______ _______ _______ _____ _____    ______ ____
ROOT
ATOM      1  C   LIG    1        4.588   1.679  -2.261  0.00  0.00    +0.122 C 
ATOM      2  C   LIG    1        5.904   1.848  -2.485  0.00  0.00    +0.079 C 
ATOM      3  N   LIG    1        6.430   2.735  -3.403  0.00  0.00    -0.267 N 
ATOM      4  C   LIG    1        5.625   3.662  -4.175  0.00  0.00    +0.139 C 
ATOM      5  C   LIG    1        7.824   2.749  -3.530  0.00  0.00    +0.248 C 
ATOM      6  O   LIG    1        8.453   3.596  -4.162  0.00  0.00    -0.273 OA
ATOM      7  C   LIG    1        8.476   1.535  -2.820  0.00  0.00    +0.208 C 
ATOM      8  S   LIG    1        7.169   1.058  -1.611  0.00  0.00    -0.081 S 
ENDROOT
BRANCH   7   9
ATOM      9  N   LIG    1        8.761   0.440  -3.784  0.00  0.00    -0.283 NA
ATOM     10  C   LIG    1        9.662   0.817  -4.886  0.00  0.00    +0.086 C 
ATOM     11  C   LIG    1       11.129   0.982  -4.485  0.00  0.00    +0.015 C 
ATOM     12  C   LIG    1       11.665  -0.251  -3.766  0.00  0.00    +0.002 C 
ATOM     13  C   LIG    1       10.713  -0.735  -2.678  0.00  0.00    +0.015 C 
ATOM     14  C   LIG    1        9.261  -0.796  -3.156  0.00  0.00    +0.086 C 
ENDBRANCH   7   9
BRANCH   1  15
ATOM     15  C   LIG    1        3.978   0.765  -1.269  0.00  0.00    +0.334 C 
ATOM     16  O   LIG    1        4.468  -0.216  -0.768  0.00  0.00    -0.245 OA
BRANCH  15  17
ATOM     17  O   LIG    1        2.741   1.279  -1.017  0.00  0.00    -0.462 OA
BRANCH  17  19
ATOM     18  C   LIG    1        1.738   1.911   1.035  0.00  0.00    +0.048 C 
ATOM     19  C   LIG    1        2.051   0.742   0.122  0.00  0.00    +0.229 C 
ENDBRANCH  17  19
ENDBRANCH  15  17
ENDBRANCH   1  15
TORSDOF 4
