REMARK  Name = *****
REMARK                            x       y       z     vdW  Elec       q    Type
REMARK                         _______ _______ _______ _____ _____    ______ ____
ROOT
ATOM      1  C   LIG    1       -4.508  -1.902   0.211  0.00  0.00    +0.064 C 
ATOM      2  C   LIG    1       -6.066  -1.930   0.217  0.00  0.00    +0.007 C 
ATOM      3  C   LIG    1       -6.403  -2.702  -1.055  0.00  0.00    +0.009 C 
ATOM      4  C   LIG    1       -5.632  -1.738  -1.954  0.00  0.00    -0.002 C 
ATOM      5  C   LIG    1       -6.292  -0.390  -1.606  0.00  0.00    +0.004 C 
ATOM      6  C   LIG    1       -6.585  -0.521  -0.112  0.00  0.00    +0.005 C 
ATOM      7  C   LIG    1       -4.197  -1.786  -1.343  0.00  0.00    +0.039 C 
ENDROOT
BRANCH   7   8
ATOM      8  C   LIG    1       -3.251  -2.803  -1.974  0.00  0.00    -0.043 A 
ATOM      9  C   LIG    1       -1.902  -2.810  -1.575  0.00  0.00    +0.004 A 
ATOM     10  C   LIG    1       -0.974  -3.664  -2.180  0.00  0.00    +0.000 A 
ATOM     11  C   LIG    1       -1.371  -4.521  -3.200  0.00  0.00    +0.000 A 
ATOM     12  C   LIG    1       -2.696  -4.528  -3.617  0.00  0.00    +0.000 A 
ATOM     13  C   LIG    1       -3.625  -3.680  -3.004  0.00  0.00    +0.004 A 
ENDBRANCH   7   8
BRANCH   1  14
ATOM     14  N   LIG    1       -3.905  -3.042   0.917  0.00  0.00    -0.313 NA
ATOM     15  H   LIG    1       -4.168  -3.920   0.471  0.00  0.00    +0.122 HD
BRANCH  14  17
ATOM     16  C   LIG    1       -3.577  -4.238   3.049  0.00  0.00    +0.020 C 
ATOM     17  C   LIG    1       -4.228  -3.059   2.345  0.00  0.00    +0.077 C 
ENDBRANCH  14  17
ENDBRANCH   1  14
TORSDOF 3
