REMARK  Name = *****
REMARK                            x       y       z     vdW  Elec       q    Type
REMARK                         _______ _______ _______ _____ _____    ______ ____
ROOT
ATOM      1  O   LIG    1       11.064  -1.298   3.591  0.00  0.00    -0.284 OA
ENDROOT
BRANCH   1   2
ATOM      2  P   LIG    1       12.135  -1.457   2.317  0.00  0.00    +0.462 P 
ATOM      3  O   LIG    1       11.138  -0.887   1.284  0.00  0.00    -0.228 OA
BRANCH   2   4
ATOM      4  N   LIG    1       13.001   0.022   2.393  0.00  0.00    -0.199 NA
ATOM      5  H   LIG    1       12.305   0.754   2.305  0.00  0.00    +0.135 HD
BRANCH   4   6
ATOM      6  C   LIG    1       14.076   0.351   1.435  0.00  0.00    +0.171 C 
ATOM      7  C   LIG    1       13.525   0.402   0.011  0.00  0.00    +0.036 C 
BRANCH   6   8
ATOM      8  C   LIG    1       14.686   1.727   1.832  0.00  0.00    +0.325 C 
ATOM      9  O   LIG    1       15.195   1.971   2.926  0.00  0.00    -0.249 OA
BRANCH   8  10
ATOM     10  O   LIG    1       14.498   2.661   0.855  0.00  0.00    -0.461 OA
BRANCH  10  12
ATOM     11  C   LIG    1       15.937   4.572   1.452  0.00  0.00    +0.051 C 
ATOM     12  C   LIG    1       14.523   4.053   1.224  0.00  0.00    +0.170 C 
ATOM     13  C   LIG    1       13.856   4.822   0.084  0.00  0.00    +0.051 C 
ENDBRANCH  10  12
ENDBRANCH   8  10
ENDBRANCH   6   8
ENDBRANCH   4   6
ENDBRANCH   2   4
BRANCH   2  14
ATOM     14  O   LIG    1       13.230  -2.083   3.452  0.00  0.00    -0.413 OA
BRANCH  14  15
ATOM     15  C   LIG    1       13.590  -3.398   3.212  0.00  0.00    +0.131 A 
ATOM     16  C   LIG    1       14.864  -3.841   3.566  0.00  0.00    +0.046 A 
ATOM     17  C   LIG    1       15.270  -5.138   3.217  0.00  0.00    +0.004 A 
ATOM     18  C   LIG    1       14.401  -5.992   2.535  0.00  0.00    +0.000 A 
ATOM     19  C   LIG    1       13.114  -5.565   2.227  0.00  0.00    +0.004 A 
ATOM     20  C   LIG    1       12.709  -4.277   2.571  0.00  0.00    +0.046 A 
ENDBRANCH  14  15
ENDBRANCH   2  14
ENDBRANCH   1   2
BRANCH   1  21
ATOM     21  C   LIG    1       11.003  -0.089   4.341  0.00  0.00    +0.206 C 
BRANCH  21  22
ATOM     22  C   LIG    1        9.980  -0.174   5.476  0.00  0.00    +0.179 C 
ATOM     23  C   LIG    1        8.554  -0.457   5.019  0.00  0.00    +0.186 C 
ATOM     24  C   LIG    1        7.849   0.901   5.051  0.00  0.00    +0.182 C 
ATOM     25  C   LIG    1        7.779   1.499   3.654  0.00  0.00    +0.055 C 
ATOM     26  F   LIG    1        6.560   0.673   5.458  0.00  0.00    -0.235 F 
ATOM     27  C   LIG    1        8.635   1.647   6.153  0.00  0.00    +0.263 C 
ATOM     28  O   LIG    1        9.970   1.089   6.170  0.00  0.00    -0.345 OA
BRANCH  27  29
ATOM     29  N   LIG    1        8.715   3.128   6.137  0.00  0.00    -0.271 N 
ATOM     30  C   LIG    1        7.535   3.861   6.112  0.00  0.00    +0.331 C 
ATOM     31  O   LIG    1        6.434   3.398   5.869  0.00  0.00    -0.246 OA
ATOM     32  N   LIG    1        7.660   5.215   6.357  0.00  0.00    -0.275 N 
ATOM     33  H   LIG    1        6.806   5.752   6.313  0.00  0.00    +0.173 HD
ATOM     34  C   LIG    1        8.822   5.910   6.371  0.00  0.00    +0.254 C 
ATOM     35  O   LIG    1        8.873   7.148   6.362  0.00  0.00    -0.268 OA
ATOM     36  C   LIG    1       10.041   5.104   6.392  0.00  0.00    +0.088 C 
ATOM     37  C   LIG    1        9.931   3.768   6.319  0.00  0.00    +0.098 C 
ENDBRANCH  27  29
BRANCH  23  38
ATOM     38  O   LIG    1        7.925  -1.335   5.970  0.00  0.00    -0.386 OA
ATOM     39  H   LIG    1        6.962  -1.195   5.867  0.00  0.00    +0.210 HD
ENDBRANCH  23  38
ENDBRANCH  21  22
ENDBRANCH   1  21
TORSDOF 12
