REMARK  Name = *****
REMARK                            x       y       z     vdW  Elec       q    Type
REMARK                         _______ _______ _______ _____ _____    ______ ____
ROOT
ATOM      1  C   LIG    1        2.964  -0.906  -1.246  0.00  0.00    -0.014 C 
ATOM      2  C   LIG    1        1.921  -1.810  -1.962  0.00  0.00    +0.012 C 
ATOM      3  C   LIG    1        2.563  -2.571  -3.138  0.00  0.00    -0.010 C 
ATOM      4  C   LIG    1        3.126  -1.562  -4.151  0.00  0.00    +0.007 C 
ATOM      5  C   LIG    1        4.190  -0.681  -3.478  0.00  0.00    -0.010 C 
ATOM      6  C   LIG    1        5.327  -1.568  -2.951  0.00  0.00    +0.007 C 
ATOM      7  C   LIG    1        4.774  -2.577  -1.935  0.00  0.00    -0.010 C 
ATOM      8  C   LIG    1        3.706  -3.451  -2.611  0.00  0.00    +0.007 C 
ATOM      9  C   LIG    1        3.546   0.077  -2.304  0.00  0.00    +0.012 C 
ATOM     10  C   LIG    1        4.134  -1.817  -0.762  0.00  0.00    +0.012 C 
ENDROOT
BRANCH   1  12
ATOM     11  C   LIG    1        1.234   0.852  -0.390  0.00  0.00    +0.024 C 
ATOM     12  C   LIG    1        2.366  -0.117  -0.033  0.00  0.00    +0.054 C 
BRANCH  12  13
ATOM     13  N   LIG    1        1.881  -1.016   1.022  0.00  0.00    -0.327 NA
ATOM     14  H   LIG    1        1.565  -0.467   1.821  0.00  0.00    +0.118 HD
ATOM     15  H   LIG    1        1.062  -1.526   0.694  0.00  0.00    +0.118 HD
ENDBRANCH  12  13
ENDBRANCH   1  12
TORSDOF 2
