REMARK  Name = *****
REMARK                            x       y       z     vdW  Elec       q    Type
REMARK                         _______ _______ _______ _____ _____    ______ ____
ROOT
ATOM      1  C   UNK A  3       -5.792  12.767  -2.208  0.00  0.00    +0.194 C 
ATOM      2  C   UNK A  3       -4.695  12.184  -3.120  0.00  0.00    +0.237 C 
ATOM      3  O   UNK A  3       -4.054  12.889  -3.903  0.00  0.00    -0.274 OA
ATOM      4  N   UNK A  3       -4.472  10.827  -3.118  0.00  0.00    -0.311 N 
ATOM      5  H   UNK A  3       -3.989  10.556  -3.968  0.00  0.00    +0.149 HD
ATOM      6  C   UNK A  3       -3.870  10.167  -1.954  0.00  0.00    +0.136 C 
ATOM      7  C   UNK A  3       -2.321  10.261  -1.933  0.00  0.00    +0.176 C 
ATOM      8  C   UNK A  1       -1.821  11.721  -1.877  0.00  0.00    +0.235 C 
ATOM      9  O   UNK A  1       -2.139  12.463  -0.952  0.00  0.00    -0.274 OA
ATOM     10  N   SER A  2       -0.886  12.085  -2.813  0.00  0.00    -0.300 N 
ATOM     11  H   SER A  2       -0.890  11.576  -3.689  0.00  0.00    +0.150 HD
ATOM     12  CA  SER A  2       -0.204  13.400  -2.885  0.00  0.00    +0.184 C 
ATOM     13  C   SER A  2        0.404  13.792  -1.512  0.00  0.00    +0.236 C 
ATOM     14  O   SER A  2        1.393  13.218  -1.054  0.00  0.00    -0.274 OA
ATOM     15  N   UNK A  3       -0.348  14.647  -0.727  0.00  0.00    -0.300 N 
ATOM     16  H   UNK A  3       -1.220  15.003  -1.090  0.00  0.00    +0.150 HD
ATOM     17  C   UNK A  3       -0.262  14.577   0.742  0.00  0.00    +0.185 C 
ATOM     18  C   UNK A  3       -1.655  14.917   1.351  0.00  0.00    +0.240 C 
ATOM     19  O   UNK A  3       -1.777  15.484   2.432  0.00  0.00    -0.273 OA
ATOM     20  N   UNK A  3       -2.699  14.360   0.613  0.00  0.00    -0.279 N 
ATOM     21  H   UNK A  3       -2.396  13.684  -0.093  0.00  0.00    +0.155 HD
ATOM     22  C   UNK A  3       -4.047  14.239   0.920  0.00  0.00    +0.110 C 
ATOM     23  C   UNK A  3       -4.652  14.817   1.968  0.00  0.00    +0.104 C 
ATOM     24  C   UNK A  3       -4.833  13.260   0.062  0.00  0.00    +0.260 C 
ATOM     25  O   UNK A  3       -5.117  12.150   0.501  0.00  0.00    -0.269 OA
ATOM     26  N   UNK A  3       -5.151  13.678  -1.218  0.00  0.00    -0.296 N 
ATOM     27  H   UNK A  3       -4.813  14.575  -1.543  0.00  0.00    +0.150 HD
ENDROOT
BRANCH   1  33
ATOM     28  N   UNK A  3       -9.391  13.993  -0.823  0.00  0.00    -0.134 NA
ATOM     29  H   UNK A  3      -10.137  13.365  -0.522  0.00  0.00    +0.306 HD
ATOM     30  C   UNK A  3       -8.845  13.523  -1.886  0.00  0.00    +0.362 C 
ATOM     31  N   UNK A  3       -7.832  14.196  -2.463  0.00  0.00    -0.234 N 
ATOM     32  H   UNK A  3       -7.562  15.011  -1.926  0.00  0.00    +0.245 HD
ATOM     33  C   UNK A  3       -6.779  13.506  -3.187  0.00  0.00    +0.168 C 
ATOM     34  C   UNK A  3       -7.476  12.600  -4.220  0.00  0.00    +0.075 C 
ATOM     35  C   UNK A  3       -8.538  11.719  -3.576  0.00  0.00    +0.188 C 
ATOM     36  N   UNK A  3       -9.209  12.365  -2.472  0.00  0.00    -0.238 N 
ATOM     37  H   UNK A  3       -9.929  11.818  -2.019  0.00  0.00    +0.244 HD
ENDBRANCH   1  33
BRANCH  23  38
ATOM     38  N   UNK A  3       -5.940  14.551   2.387  0.00  0.00    -0.274 N 
ATOM     39  H   UNK A  3       -6.462  13.809   1.930  0.00  0.00    +0.156 HD
ATOM     40  C   UNK A  3       -6.555  15.185   3.422  0.00  0.00    +0.301 C 
ATOM     41  O   UNK A  3       -6.060  16.088   4.120  0.00  0.00    -0.253 OA
ATOM     42  N   UNK A  3       -7.834  14.794   3.624  0.00  0.00    -0.313 N 
ATOM     43  H   UNK A  3       -8.092  13.833   3.459  0.00  0.00    +0.146 HD
ATOM     44  H   UNK A  3       -8.287  15.244   4.410  0.00  0.00    +0.146 HD
ENDBRANCH  23  38
BRANCH   7  45
ATOM     45  N   UNK A  3       -1.751   9.577  -0.754  0.00  0.00    -0.303 N 
ATOM     46  H   UNK A  1       -1.733  10.115   0.103  0.00  0.00    +0.149 HD
ATOM     47  C   UNK A  0       -0.995   8.437  -0.869  0.00  0.00    +0.215 C 
ATOM     48  O   UNK A  0       -0.852   7.888  -1.962  0.00  0.00    -0.276 OA
BRANCH  47  49
ATOM     49  C   UNK A  0       -0.333   7.843   0.376  0.00  0.00    +0.116 C 
BRANCH  49  50
ATOM     50  C   UNK A  0       -0.574   8.489   1.742  0.00  0.00    +0.088 C 
BRANCH  50  51
ATOM     51  N   UNK A  0        0.268   7.816   2.760  0.00  0.00    -0.325 NA
ATOM     52  H   UNK A  0        0.212   8.384   3.613  0.00  0.00    +0.119 HD
ATOM     53  H   UNK A  0       -0.183   6.942   3.035  0.00  0.00    +0.119 HD
ENDBRANCH  50  51
BRANCH  50  54
ATOM     54  C   UNK A  0       -2.055   8.511   2.228  0.00  0.00    +0.133 C 
BRANCH  54  55
ATOM     55  O   UNK A  0       -2.058   9.256   3.456  0.00  0.00    -0.390 OA
ATOM     56  H   UNK A  0       -2.956   9.596   3.607  0.00  0.00    +0.210 HD
ENDBRANCH  54  55
BRANCH  54  57
ATOM     57  C   UNK A  0       -2.706   7.131   2.451  0.00  0.00    +0.048 C 
BRANCH  57  58
ATOM     58  C   UNK A  0       -4.203   7.269   2.757  0.00  0.00    +0.080 C 
BRANCH  58  59
ATOM     59  N   UNK A  0       -4.847   5.978   2.968  0.00  0.00    -0.330 NA
ATOM     60  H   UNK A  0       -5.853   6.121   3.075  0.00  0.00    +0.118 HD
ATOM     61  H   UNK A  0       -4.539   5.572   3.853  0.00  0.00    +0.118 HD
ENDBRANCH  58  59
ENDBRANCH  57  58
ENDBRANCH  54  57
ENDBRANCH  50  54
ENDBRANCH  49  50
ENDBRANCH  47  49
ENDBRANCH   7  45
BRANCH  12  62
ATOM     62  CB  SER A  2       -1.004  14.502  -3.594  0.00  0.00    +0.187 C 
BRANCH  62  63
ATOM     63  OG  SER A  2       -1.487  14.029  -4.851  0.00  0.00    -0.393 OA
ATOM     64  H   SER A  2       -2.345  14.465  -5.014  0.00  0.00    +0.209 HD
ENDBRANCH  62  63
ENDBRANCH  12  62
BRANCH  17  65
ATOM     65  C   UNK A  3        0.862  15.430   1.351  0.00  0.00    +0.187 C 
BRANCH  65  66
ATOM     66  O   UNK A  3        2.156  15.140   0.818  0.00  0.00    -0.393 OA
ATOM     67  H   UNK A  3        2.168  14.210   0.509  0.00  0.00    +0.209 HD
ENDBRANCH  65  66
ENDBRANCH  17  65
TORSDOF 15
