REMARK  Name = *****
REMARK                            x       y       z     vdW  Elec       q    Type
REMARK                         _______ _______ _______ _____ _____    ______ ____
ROOT
ATOM      1  C   LIG    1       11.010  -0.617  -5.244  0.00  0.00    +0.252 C 
ATOM      2  O   LIG    1       10.164  -1.689  -4.813  0.00  0.00    -0.334 OA
ATOM      3  C   LIG    1        9.707  -1.371  -3.486  0.00  0.00    +0.164 C 
ATOM      4  C   LIG    1       10.170   0.062  -3.262  0.00  0.00    +0.161 C 
ATOM      5  C   LIG    1        9.012   0.982  -3.674  0.00  0.00    +0.039 C 
ATOM      6  C   LIG    1        7.816   0.090  -4.054  0.00  0.00    +0.004 C 
ATOM      7  C   LIG    1        7.495  -0.094  -5.556  0.00  0.00    -0.000 C 
ATOM      8  C   LIG    1        6.152  -0.866  -5.714  0.00  0.00    +0.035 C 
ATOM      9  C   LIG    1        6.082  -2.065  -4.722  0.00  0.00    +0.120 C 
ATOM     10  C   LIG    1        7.444  -2.459  -4.139  0.00  0.00    +0.042 C 
ATOM     11  C   LIG    1        4.830   0.021  -5.736  0.00  0.00    +0.013 C 
ATOM     12  C   LIG    1        5.047   1.320  -6.551  0.00  0.00    -0.056 C 
ATOM     13  C   LIG    1        3.976   2.121  -6.759  0.00  0.00    +0.051 C 
ATOM     14  C   LIG    1        3.400   2.563  -5.433  0.00  0.00    +0.179 C 
ATOM     15  C   LIG    1        3.637   1.678  -4.252  0.00  0.00    +0.047 C 
ATOM     16  O   LIG    1        2.705   3.572  -5.345  0.00  0.00    -0.288 OA
ATOM     17  C   LIG    1        6.348   2.048  -6.258  0.00  0.00    +0.032 C 
ATOM     18  C   LIG    1        3.709  -0.851  -6.372  0.00  0.00    +0.020 C 
ATOM     19  C   LIG    1        4.283   0.502  -4.385  0.00  0.00    -0.012 C 
ATOM     20  C   LIG    1        7.535   1.138  -6.460  0.00  0.00    +0.008 C 
ATOM     21  C   LIG    1        8.143  -1.294  -3.395  0.00  0.00    +0.012 C 
ATOM     22  C   LIG    1        7.646  -1.255  -1.929  0.00  0.00    +0.015 C 
ATOM     23  O   LIG    1       11.277   0.237  -4.140  0.00  0.00    -0.345 OA
ENDROOT
BRANCH   9  24
ATOM     24  O   LIG    1        5.531  -3.207  -5.379  0.00  0.00    -0.391 OA
ATOM     25  H   LIG    1        6.155  -3.498  -6.066  0.00  0.00    +0.210 HD
ENDBRANCH   9  24
BRANCH   3  26
ATOM     26  C   LIG    1       10.348  -2.355  -2.487  0.00  0.00    +0.193 C 
ATOM     27  O   LIG    1       10.609  -2.036  -1.323  0.00  0.00    -0.292 OA
BRANCH  26  28
ATOM     28  C   LIG    1       10.546  -3.797  -2.965  0.00  0.00    +0.233 C 
BRANCH  28  29
ATOM     29  O   LIG    1       11.143  -4.649  -2.000  0.00  0.00    -0.387 OA
ATOM     30  H   LIG    1       10.702  -4.471  -1.148  0.00  0.00    +0.210 HD
ENDBRANCH  28  29
ENDBRANCH  26  28
ENDBRANCH   3  26
BRANCH   1  31
ATOM     31  C   LIG    1       12.305  -1.145  -5.853  0.00  0.00    +0.061 C 
BRANCH  31  33
ATOM     32  C   LIG    1       14.478  -0.520  -6.998  0.00  0.00    +0.004 C 
ATOM     33  C   LIG    1       13.194  -0.007  -6.365  0.00  0.00    +0.002 C 
ENDBRANCH  31  33
ENDBRANCH   1  31
TORSDOF 6
