REMARK  Name = *****
REMARK                            x       y       z     vdW  Elec       q    Type
REMARK                         _______ _______ _______ _____ _____    ______ ____
ROOT
ATOM      1  C   LIG    1        2.929   1.092   0.872  0.00  0.00    +0.080 A 
ATOM      2  C   LIG    1        3.922   0.722   1.813  0.00  0.00    +0.045 A 
ATOM      3  C   LIG    1        4.250   1.688   2.774  0.00  0.00    +0.024 A 
ATOM      4  C   LIG    1        3.549   2.901   2.885  0.00  0.00    +0.002 A 
ATOM      5  C   LIG    1        2.530   3.209   1.995  0.00  0.00    +0.001 A 
ATOM      6  C   LIG    1        2.225   2.315   0.982  0.00  0.00    +0.017 A 
ENDROOT
BRANCH   1   8
ATOM      7  O   LIG    1        2.794  -0.980  -0.274  0.00  0.00    -0.245 OA
ATOM      8  C   LIG    1        2.648   0.243  -0.297  0.00  0.00    +0.341 C 
BRANCH   8   9
ATOM      9  O   LIG    1        2.346   1.004  -1.359  0.00  0.00    -0.458 OA
BRANCH   9  10
ATOM     10  C   LIG    1        2.352   0.354  -2.635  0.00  0.00    +0.266 C 
BRANCH  10  11
ATOM     11  C   LIG    1        0.993  -0.230  -3.013  0.00  0.00    +0.177 C 
BRANCH  11  12
ATOM     12  O   LIG    1        1.056  -0.785  -4.338  0.00  0.00    -0.386 OA
ATOM     13  H   LIG    1        1.182  -0.043  -4.955  0.00  0.00    +0.210 HD
ENDBRANCH  11  12
BRANCH  11  14
ATOM     14  C   LIG    1        0.547  -1.336  -2.055  0.00  0.00    +0.190 C 
BRANCH  14  15
ATOM     15  O   LIG    1       -0.699  -1.877  -2.496  0.00  0.00    -0.392 OA
ATOM     16  H   LIG    1       -0.558  -2.076  -3.443  0.00  0.00    +0.209 HD
ENDBRANCH  14  15
ENDBRANCH  11  14
ENDBRANCH  10  11
ENDBRANCH   9  10
ENDBRANCH   8   9
ENDBRANCH   1   8
BRANCH   2  17
ATOM     17  N   LIG    1        4.645  -0.512   1.759  0.00  0.00    -0.313 N 
ATOM     18  H   LIG    1        4.322  -1.123   0.998  0.00  0.00    +0.152 HD
BRANCH  17  19
ATOM     19  C   LIG    1        5.179  -1.298   2.838  0.00  0.00    +0.042 A 
ATOM     20  C   LIG    1        6.247  -2.234   2.628  0.00  0.00    +0.022 A 
ATOM     21  C   LIG    1        6.875  -2.443   1.377  0.00  0.00    +0.012 A 
ATOM     22  C   LIG    1        7.879  -3.398   1.208  0.00  0.00    +0.001 A 
ATOM     23  C   LIG    1        8.295  -4.151   2.294  0.00  0.00    +0.014 A 
ATOM     24  C   LIG    1        7.713  -3.954   3.561  0.00  0.00    +0.081 A 
ATOM     25  C   LIG    1        6.719  -2.989   3.744  0.00  0.00    +0.084 A 
ATOM     26  N   LIG    1        6.236  -2.780   4.975  0.00  0.00    -0.254 NA
ATOM     27  C   LIG    1        5.247  -1.885   5.154  0.00  0.00    +0.113 A 
ATOM     28  C   LIG    1        4.666  -1.167   4.131  0.00  0.00    +0.043 A 
BRANCH  24  29
ATOM     29  C   LIG    1        8.195  -4.851   4.676  0.00  0.00    +0.419 C 
ATOM     30  F   LIG    1        9.541  -4.719   4.887  0.00  0.00    -0.166 F 
ATOM     31  F   LIG    1        8.026  -6.172   4.355  0.00  0.00    -0.166 F 
ATOM     32  F   LIG    1        7.623  -4.711   5.901  0.00  0.00    -0.166 F 
ENDBRANCH  24  29
ENDBRANCH  17  19
ENDBRANCH   2  17
TORSDOF 10
