REMARK  Name = *****
REMARK                            x       y       z     vdW  Elec       q    Type
REMARK                         _______ _______ _______ _____ _____    ______ ____
ROOT
ATOM      1  C   LIG    1       -4.296  -0.972  -2.747  0.00  0.00    +0.176 C 
ATOM      2  C   LIG    1       -3.831   0.177  -3.731  0.00  0.00    +0.018 C 
ATOM      3  C   LIG    1       -2.288   0.382  -3.610  0.00  0.00    +0.016 C 
ATOM      4  C   LIG    1       -4.517   1.464  -3.178  0.00  0.00    +0.003 C 
ATOM      5  C   LIG    1       -5.812   1.954  -3.870  0.00  0.00    -0.003 C 
ATOM      6  C   LIG    1       -5.837   1.846  -5.404  0.00  0.00    +0.002 C 
ATOM      7  C   LIG    1       -5.444   0.412  -5.796  0.00  0.00    +0.005 C 
ATOM      8  C   LIG    1       -5.196   3.029  -6.235  0.00  0.00    -0.007 C 
ATOM      9  C   LIG    1       -5.837   2.982  -7.657  0.00  0.00    +0.016 C 
ATOM     10  C   LIG    1       -5.452   4.400  -5.577  0.00  0.00    -0.057 C 
ATOM     11  C   LIG    1       -5.191   5.522  -6.285  0.00  0.00    +0.046 C 
ATOM     12  C   LIG    1       -3.722   5.547  -6.637  0.00  0.00    +0.156 C 
ATOM     13  O   LIG    1       -3.149   6.629  -6.738  0.00  0.00    -0.293 OA
ATOM     14  C   LIG    1       -3.047   4.235  -7.023  0.00  0.00    +0.080 C 
ATOM     15  C   LIG    1       -5.317   4.456  -4.058  0.00  0.00    +0.013 C 
ATOM     16  C   LIG    1       -5.669   5.821  -3.446  0.00  0.00    +0.012 C 
ATOM     17  C   LIG    1       -3.659   2.972  -6.389  0.00  0.00    +0.019 C 
ATOM     18  C   LIG    1       -6.200   3.376  -3.423  0.00  0.00    +0.012 C 
ATOM     19  C   LIG    1       -4.802   1.174  -1.686  0.00  0.00    +0.009 C 
ATOM     20  C   LIG    1       -4.125  -0.098  -5.226  0.00  0.00    +0.011 C 
ATOM     21  C   LIG    1       -4.332  -0.244  -1.391  0.00  0.00    +0.057 C 
ENDROOT
BRANCH   1  22
ATOM     22  C   LIG    1       -3.310  -2.185  -2.797  0.00  0.00    +0.174 C 
ATOM     23  O   LIG    1       -3.183  -2.865  -3.820  0.00  0.00    -0.293 OA
ATOM     24  C   LIG    1       -2.491  -2.515  -1.568  0.00  0.00    +0.090 C 
ENDBRANCH   1  22
BRANCH   1  25
ATOM     25  O   LIG    1       -5.647  -1.353  -3.095  0.00  0.00    -0.450 OA
BRANCH  25  27
ATOM     26  C   LIG    1       -7.621  -2.606  -2.795  0.00  0.00    +0.136 C 
ATOM     27  C   LIG    1       -6.167  -2.448  -2.467  0.00  0.00    +0.305 C 
ATOM     28  O   LIG    1       -5.580  -3.147  -1.661  0.00  0.00    -0.251 OA
ENDBRANCH  25  27
ENDBRANCH   1  25
TORSDOF 3
