REMARK  Name = *****
REMARK                            x       y       z     vdW  Elec       q    Type
REMARK                         _______ _______ _______ _____ _____    ______ ____
ROOT
ATOM      1  C   LIG    1        6.139   1.439   1.575  0.00  0.00    +0.165 A 
ATOM      2  C   LIG    1        6.281   0.282   2.348  0.00  0.00    +0.202 A 
ATOM      3  C   LIG    1        5.291  -0.063   3.287  0.00  0.00    +0.182 A 
ATOM      4  O   LIG    1        5.477  -1.102   4.168  0.00  0.00    -0.452 OA
ATOM      5  C   LIG    1        5.372  -2.409   3.752  0.00  0.00    +0.129 A 
ATOM      6  C   LIG    1        5.434  -3.336   4.793  0.00  0.00    +0.046 A 
ATOM      7  C   LIG    1        5.420  -4.703   4.526  0.00  0.00    +0.007 A 
ATOM      8  C   LIG    1        5.362  -5.168   3.206  0.00  0.00    -0.045 A 
ATOM      9  C   LIG    1        5.400  -6.660   2.941  0.00  0.00    +0.058 C 
ATOM     10  C   LIG    1        4.196  -7.273   2.164  0.00  0.00    +0.091 C 
ATOM     11  N   LIG    1        4.450  -8.719   1.928  0.00  0.00    -0.298 NA
ATOM     12  C   LIG    1        3.655  -9.234   0.811  0.00  0.00    +0.105 C 
ATOM     13  C   LIG    1        4.240  -9.510   3.152  0.00  0.00    +0.089 C 
ATOM     14  C   LIG    1        2.858  -9.357   3.802  0.00  0.00    +0.051 C 
ATOM     15  C   LIG    1        2.288  -7.963   3.713  0.00  0.00    -0.038 A 
ATOM     16  C   LIG    1        1.091  -7.661   4.383  0.00  0.00    +0.053 A 
ATOM     17  C   LIG    1        0.459  -6.426   4.201  0.00  0.00    +0.162 A 
ATOM     18  C   LIG    1        1.000  -5.496   3.300  0.00  0.00    +0.170 A 
ATOM     19  O   LIG    1        0.259  -4.353   3.072  0.00  0.00    -0.449 OA
ATOM     20  C   LIG    1        0.894  -3.225   2.610  0.00  0.00    +0.170 A 
ATOM     21  C   LIG    1        1.063  -2.982   1.247  0.00  0.00    +0.159 A 
ATOM     22  C   LIG    1        1.572  -1.761   0.812  0.00  0.00    +0.049 A 
ATOM     23  C   LIG    1        1.851  -0.755   1.743  0.00  0.00    +0.007 A 
ATOM     24  C   LIG    1        1.642  -0.967   3.114  0.00  0.00    -0.038 A 
ATOM     25  C   LIG    1        1.764   0.172   4.099  0.00  0.00    +0.095 C 
ATOM     26  C   LIG    1        3.185   0.532   4.622  0.00  0.00    +0.105 C 
ATOM     27  N   LIG    1        3.121   1.809   5.557  0.00  0.00    +0.245 N 
ATOM     28  C   LIG    1        2.110   1.629   6.687  0.00  0.00    +0.193 C 
ATOM     29  C   LIG    1        4.501   1.978   6.232  0.00  0.00    +0.193 C 
ATOM     30  C   LIG    1        2.791   3.091   4.750  0.00  0.00    +0.138 C 
ATOM     31  C   LIG    1        3.091   3.022   3.237  0.00  0.00    +0.086 C 
ATOM     32  C   LIG    1        4.142   2.021   2.850  0.00  0.00    -0.027 A 
ATOM     33  C   LIG    1        1.180  -2.222   3.542  0.00  0.00    +0.053 A 
ATOM     34  C   LIG    1        2.200  -5.792   2.650  0.00  0.00    +0.055 A 
ATOM     35  C   LIG    1        2.869  -7.009   2.865  0.00  0.00    -0.023 A 
ATOM     36  C   LIG    1        5.300  -4.233   2.165  0.00  0.00    +0.007 A 
ATOM     37  C   LIG    1        5.277  -2.859   2.435  0.00  0.00    +0.046 A 
ATOM     38  C   LIG    1        4.210   0.798   3.535  0.00  0.00    +0.050 A 
ATOM     39  C   LIG    1        5.068   2.302   1.841  0.00  0.00    +0.053 A 
ENDROOT
BRANCH   1  41
ATOM     40  C   LIG    1        7.989   1.059   0.101  0.00  0.00    +0.277 C 
ATOM     41  O   LIG    1        6.963   1.912   0.592  0.00  0.00    -0.491 OA
ENDBRANCH   1  41
BRANCH   2  42
ATOM     42  O   LIG    1        7.412  -0.480   2.245  0.00  0.00    -0.501 OA
ATOM     43  H   LIG    1        7.399  -1.173   2.929  0.00  0.00    +0.292 HD
ENDBRANCH   2  42
BRANCH  17  44
ATOM     44  O   LIG    1       -0.718  -6.077   4.817  0.00  0.00    -0.491 OA
ATOM     45  C   LIG    1       -0.935  -6.649   6.101  0.00  0.00    +0.277 C 
ENDBRANCH  17  44
BRANCH  21  46
ATOM     46  O   LIG    1        0.717  -3.942   0.340  0.00  0.00    -0.503 OA
ATOM     47  H   LIG    1        0.737  -3.569  -0.555  0.00  0.00    +0.292 HD
ENDBRANCH  21  46
TORSDOF 4
