REMARK  Name = *****
REMARK                            x       y       z     vdW  Elec       q    Type
REMARK                         _______ _______ _______ _____ _____    ______ ____
ROOT
ATOM      1  C   LIG    1       -5.229  -5.865   0.881  0.00  0.00    +0.183 C 
ATOM      2  C   LIG    1       -6.122  -7.175   0.883  0.00  0.00    +0.021 C 
ATOM      3  C   LIG    1       -7.107  -7.229  -0.324  0.00  0.00    +0.016 C 
ATOM      4  C   LIG    1       -7.018  -7.051   2.167  0.00  0.00    +0.003 C 
ATOM      5  C   LIG    1       -6.838  -8.037   3.330  0.00  0.00    -0.000 C 
ATOM      6  C   LIG    1       -6.288  -9.423   2.975  0.00  0.00    +0.035 C 
ATOM      7  C   LIG    1       -5.038  -9.228   2.084  0.00  0.00    +0.120 C 
ATOM      8  C   LIG    1       -7.329 -10.569   2.619  0.00  0.00    +0.013 C 
ATOM      9  C   LIG    1       -6.776 -11.888   3.241  0.00  0.00    +0.020 C 
ATOM     10  C   LIG    1       -8.741 -10.348   3.219  0.00  0.00    -0.056 C 
ATOM     11  C   LIG    1       -9.732 -11.210   2.885  0.00  0.00    +0.051 C 
ATOM     12  C   LIG    1       -9.936 -11.198   1.387  0.00  0.00    +0.179 C 
ATOM     13  O   LIG    1      -11.036 -11.386   0.887  0.00  0.00    -0.288 OA
ATOM     14  C   LIG    1       -8.709 -11.070   0.555  0.00  0.00    +0.047 C 
ATOM     15  C   LIG    1       -9.193  -8.938   3.497  0.00  0.00    +0.032 C 
ATOM     16  C   LIG    1       -7.518 -10.829   1.130  0.00  0.00    -0.012 C 
ATOM     17  C   LIG    1       -8.113  -8.122   4.181  0.00  0.00    +0.008 C 
ATOM     18  C   LIG    1       -6.830  -5.624   2.719  0.00  0.00    +0.009 C 
ATOM     19  C   LIG    1       -5.269  -8.458   0.788  0.00  0.00    +0.043 C 
ATOM     20  C   LIG    1       -6.096  -4.875   1.649  0.00  0.00    +0.057 C 
ENDROOT
BRANCH   1  21
ATOM     21  C   LIG    1       -4.887  -5.384  -0.571  0.00  0.00    +0.214 C 
ATOM     22  O   LIG    1       -4.172  -6.077  -1.306  0.00  0.00    -0.289 OA
BRANCH  21  23
ATOM     23  C   LIG    1       -5.470  -4.054  -1.097  0.00  0.00    +0.310 C 
BRANCH  23  24
ATOM     24  O   LIG    1       -6.691  -4.210  -1.842  0.00  0.00    -0.457 OA
BRANCH  24  25
ATOM     25  C   LIG    1       -7.866  -3.872  -1.242  0.00  0.00    +0.307 C 
ATOM     26  O   LIG    1       -8.009  -3.430  -0.119  0.00  0.00    -0.251 OA
BRANCH  25  27
ATOM     27  C   LIG    1       -9.051  -4.059  -2.131  0.00  0.00    +0.117 C 
ATOM     28  C   LIG    1       -9.466  -2.689  -2.619  0.00  0.00    +0.015 C 
ENDBRANCH  25  27
ENDBRANCH  24  25
ENDBRANCH  23  24
ENDBRANCH  21  23
ENDBRANCH   1  21
BRANCH   7  29
ATOM     29  O   LIG    1       -4.434 -10.471   1.745  0.00  0.00    -0.391 OA
ATOM     30  H   LIG    1       -4.013 -10.823   2.548  0.00  0.00    +0.210 HD
ENDBRANCH   7  29
BRANCH   1  31
ATOM     31  O   LIG    1       -4.082  -6.132   1.714  0.00  0.00    -0.419 OA
BRANCH  31  32
ATOM     32  C   LIG    1       -3.235  -5.082   1.899  0.00  0.00    +0.511 C 
ATOM     33  O   LIG    1       -3.102  -4.144   1.154  0.00  0.00    -0.203 OA
BRANCH  32  34
ATOM     34  O   LIG    1       -2.783  -5.188   3.185  0.00  0.00    -0.434 OA
BRANCH  34  36
ATOM     35  C   LIG    1       -3.181  -2.810   3.680  0.00  0.00    +0.048 C 
ATOM     36  C   LIG    1       -2.223  -3.992   3.752  0.00  0.00    +0.232 C 
ENDBRANCH  34  36
ENDBRANCH  32  34
ENDBRANCH  31  32
ENDBRANCH   1  31
TORSDOF 10
