REMARK  Name = *****
REMARK                            x       y       z     vdW  Elec       q    Type
REMARK                         _______ _______ _______ _____ _____    ______ ____
ROOT
ATOM      1  O   LIG    1        8.643  -2.741  11.195  0.00  0.00    -0.340 OA
ENDROOT
BRANCH   1   7
ATOM      2  C   LIG    1       10.361   1.396  11.178  0.00  0.00    +0.039 C 
ATOM      3  C   LIG    1        9.474   0.440  10.381  0.00  0.00    +0.138 C 
ATOM      4  C   LIG    1        8.048   1.041  10.276  0.00  0.00    +0.114 C 
ATOM      5  C   LIG    1        7.180   0.110  11.125  0.00  0.00    +0.167 C 
ATOM      6  C   LIG    1        8.023  -0.533  12.266  0.00  0.00    +0.200 C 
ATOM      7  C   LIG    1        9.122  -1.513  11.752  0.00  0.00    +0.282 C 
ATOM      8  O   LIG    1        9.820  -0.883  10.734  0.00  0.00    -0.344 OA
BRANCH   6   9
ATOM      9  O   LIG    1        7.207  -1.117  13.267  0.00  0.00    -0.384 OA
ATOM     10  H   LIG    1        6.293  -1.004  12.973  0.00  0.00    +0.210 HD
ENDBRANCH   6   9
BRANCH   5  11
ATOM     11  O   LIG    1        6.145   0.969  11.640  0.00  0.00    -0.387 OA
ATOM     12  H   LIG    1        5.442   0.433  12.032  0.00  0.00    +0.210 HD
ENDBRANCH   5  11
BRANCH   4  13
ATOM     13  N   LIG    1        7.287   1.324   9.006  0.00  0.00    -0.300 NA
ATOM     14  H   LIG    1        6.371   1.640   9.355  0.00  0.00    +0.123 HD
BRANCH  13  15
ATOM     15  C   LIG    1        7.622   2.342   7.974  0.00  0.00    +0.109 C 
ATOM     16  C   LIG    1        8.769   2.078   6.994  0.00  0.00    +0.166 C 
ATOM     17  C   LIG    1       10.051   2.227   7.749  0.00  0.00    +0.177 C 
ATOM     18  C   LIG    1       10.272   3.646   8.315  0.00  0.00    +0.173 C 
ATOM     19  C   LIG    1        8.999   4.321   8.690  0.00  0.00    -0.016 C 
ATOM     20  C   LIG    1        7.797   3.728   8.546  0.00  0.00    -0.002 C 
BRANCH  18  21
ATOM     21  O   LIG    1       11.075   3.762   9.495  0.00  0.00    -0.385 OA
ATOM     22  H   LIG    1       10.521   3.725  10.302  0.00  0.00    +0.210 HD
ENDBRANCH  18  21
BRANCH  17  23
ATOM     23  O   LIG    1       11.008   1.655   6.879  0.00  0.00    -0.386 OA
ATOM     24  H   LIG    1       10.981   0.693   7.134  0.00  0.00    +0.210 HD
ENDBRANCH  17  23
BRANCH  16  25
ATOM     25  O   LIG    1        8.705   0.798   6.348  0.00  0.00    -0.387 OA
ATOM     26  H   LIG    1        9.543   0.730   5.846  0.00  0.00    +0.210 HD
ENDBRANCH  16  25
BRANCH  19  27
ATOM     27  C   LIG    1        9.204   5.675   9.287  0.00  0.00    +0.189 C 
BRANCH  27  28
ATOM     28  O   LIG    1       10.014   6.427   8.401  0.00  0.00    -0.391 OA
ATOM     29  H   LIG    1       10.924   6.383   8.752  0.00  0.00    +0.210 HD
ENDBRANCH  27  28
ENDBRANCH  19  27
ENDBRANCH  13  15
ENDBRANCH   4  13
ENDBRANCH   1   7
BRANCH   1  30
ATOM     30  C   LIG    1        9.614  -3.784  10.840  0.00  0.00    +0.183 C 
ATOM     31  C   LIG    1       10.460  -4.358  12.003  0.00  0.00    +0.178 C 
ATOM     32  O   LIG    1       11.713  -3.666  12.276  0.00  0.00    -0.341 OA
ATOM     33  C   LIG    1       12.441  -2.964  11.216  0.00  0.00    +0.282 C 
ATOM     34  C   LIG    1       12.026  -3.576   9.883  0.00  0.00    +0.201 C 
ATOM     35  C   LIG    1       10.502  -3.557   9.583  0.00  0.00    +0.179 C 
BRANCH  35  36
ATOM     36  O   LIG    1       10.323  -4.718   8.706  0.00  0.00    -0.386 OA
ATOM     37  H   LIG    1        9.393  -4.725   8.409  0.00  0.00    +0.210 HD
ENDBRANCH  35  36
BRANCH  34  38
ATOM     38  O   LIG    1       12.884  -3.258   8.797  0.00  0.00    -0.384 OA
ATOM     39  H   LIG    1       12.509  -3.713   8.016  0.00  0.00    +0.210 HD
ENDBRANCH  34  38
BRANCH  31  40
ATOM     40  C   LIG    1       10.609  -5.931  11.921  0.00  0.00    +0.190 C 
BRANCH  40  41
ATOM     41  O   LIG    1       11.466  -6.436  10.904  0.00  0.00    -0.392 OA
ATOM     42  H   LIG    1       11.099  -6.207  10.028  0.00  0.00    +0.209 HD
ENDBRANCH  40  41
ENDBRANCH  31  40
BRANCH  33  43
ATOM     43  O   LIG    1       12.416  -1.543  11.406  0.00  0.00    -0.340 OA
BRANCH  43  44
ATOM     44  C   LIG    1       13.136  -0.530  10.645  0.00  0.00    +0.183 C 
BRANCH  44  45
ATOM     45  C   LIG    1       12.628  -0.250   9.188  0.00  0.00    +0.181 C 
BRANCH  45  46
ATOM     46  O   LIG    1       12.942  -1.125   8.125  0.00  0.00    -0.386 OA
ATOM     47  H   LIG    1       13.727  -1.628   8.390  0.00  0.00    +0.210 HD
ENDBRANCH  45  46
BRANCH  45  48
ATOM     48  C   LIG    1       13.151   1.083   8.553  0.00  0.00    +0.208 C 
BRANCH  48  49
ATOM     49  O   LIG    1       12.761   2.150   9.380  0.00  0.00    -0.382 OA
ATOM     50  H   LIG    1       12.315   2.825   8.835  0.00  0.00    +0.210 HD
ENDBRANCH  48  49
BRANCH  48  51
ATOM     51  C   LIG    1       14.346   1.408   7.848  0.00  0.00    +0.257 C 
ATOM     52  O   LIG    1       15.491   0.815   7.970  0.00  0.00    -0.298 OA
ENDBRANCH  48  51
ENDBRANCH  45  48
ENDBRANCH  44  45
BRANCH  44  53
ATOM     53  C   LIG    1       14.658  -0.211  10.666  0.00  0.00    +0.171 C 
BRANCH  53  54
ATOM     54  O   LIG    1       15.181   0.705  11.638  0.00  0.00    -0.387 OA
ATOM     55  H   LIG    1       15.065   0.391  12.539  0.00  0.00    +0.210 HD
ENDBRANCH  53  54
BRANCH  53  56
ATOM     56  C   LIG    1       15.667  -1.131   9.984  0.00  0.00    +0.190 C 
BRANCH  56  57
ATOM     57  O   LIG    1       15.711  -2.412  10.571  0.00  0.00    -0.392 OA
ATOM     58  H   LIG    1       15.028  -2.941  10.119  0.00  0.00    +0.209 HD
ENDBRANCH  56  57
ENDBRANCH  53  56
ENDBRANCH  44  53
ENDBRANCH  43  44
ENDBRANCH  33  43
ENDBRANCH   1  30
TORSDOF 26
