REMARK  Name = *****
REMARK                            x       y       z     vdW  Elec       q    Type
REMARK                         _______ _______ _______ _____ _____    ______ ____
ROOT
ATOM      1  O   LIG    1        1.354  -0.205  -0.149  0.00  0.00    -0.252 OA
ATOM      2  C   LIG    1        2.416   0.194   0.301  0.00  0.00    +0.308 C 
ATOM      3  N   LIG    1        3.310  -0.581   1.031  0.00  0.00    -0.269 N 
ATOM      4  H   LIG    1        4.163  -0.129   1.320  0.00  0.00    +0.156 HD
ATOM      5  N   LIG    1        2.908   1.486   0.159  0.00  0.00    -0.269 N 
ATOM      6  H   LIG    1        3.784   1.689   0.611  0.00  0.00    +0.156 HD
ENDROOT
BRANCH   3   7
ATOM      7  C   LIG    1        3.192  -1.945   1.376  0.00  0.00    +0.036 A 
ATOM      8  C   LIG    1        4.243  -2.508   2.111  0.00  0.00    +0.044 A 
ATOM      9  C   LIG    1        4.227  -3.863   2.465  0.00  0.00    +0.061 A 
ATOM     10 CL   LIG    1        5.571  -4.471   3.366  0.00  0.00    -0.082 Cl
ATOM     11  C   LIG    1        3.152  -4.670   2.085  0.00  0.00    +0.059 A 
ATOM     12 CL   LIG    1        3.077  -6.354   2.459  0.00  0.00    -0.082 Cl
ATOM     13  C   LIG    1        2.093  -4.110   1.370  0.00  0.00    +0.023 A 
ATOM     14  C   LIG    1        2.111  -2.754   1.021  0.00  0.00    +0.025 A 
ENDBRANCH   3   7
BRANCH   5  15
ATOM     15  C   LIG    1        2.309   2.570  -0.517  0.00  0.00    +0.035 A 
ATOM     16  C   LIG    1        3.008   3.786  -0.512  0.00  0.00    +0.025 A 
ATOM     17  C   LIG    1        2.479   4.919  -1.138  0.00  0.00    +0.022 A 
ATOM     18  C   LIG    1        1.244   4.841  -1.775  0.00  0.00    +0.041 A 
ATOM     19 CL   LIG    1        0.580   6.237  -2.528  0.00  0.00    -0.084 Cl
ATOM     20  C   LIG    1        0.545   3.639  -1.799  0.00  0.00    +0.022 A 
ATOM     21  C   LIG    1        1.078   2.505  -1.174  0.00  0.00    +0.025 A 
ENDBRANCH   5  15
TORSDOF 2
