REMARK  Name = *****
REMARK                            x       y       z     vdW  Elec       q    Type
REMARK                         _______ _______ _______ _____ _____    ______ ____
ROOT
ATOM      1  O   LIG    1        1.455  -0.212  -0.566  0.00  0.00    -0.252 OA
ATOM      2  C   LIG    1        2.452   0.173   0.004  0.00  0.00    +0.306 C 
ATOM      3  N   LIG    1        3.174   1.358  -0.254  0.00  0.00    -0.271 N 
ATOM      4  C   LIG    1        4.043   1.636   0.891  0.00  0.00    +0.155 C 
ATOM      5  C   LIG    1        4.336   0.232   1.409  0.00  0.00    +0.152 C 
ATOM      6  C   LIG    1        5.547  -0.300   0.625  0.00  0.00    +0.302 C 
ATOM      7  S   LIG    1        6.543   1.092  -0.040  0.00  0.00    -0.004 S 
ATOM      8  C   LIG    1        7.699   1.270   1.355  0.00  0.00    +0.278 C 
ATOM      9  C   LIG    1        6.944   1.869   2.520  0.00  0.00    +0.059 C 
ATOM     10  C   LIG    1        6.014   2.911   1.919  0.00  0.00    +0.064 C 
ATOM     11  C   LIG    1        5.373   2.343   0.643  0.00  0.00    +0.230 C 
ATOM     12  N   LIG    1        3.115  -0.469   1.060  0.00  0.00    -0.272 N 
ENDROOT
BRANCH   3  13
ATOM     13  C   LIG    1        2.676   2.373  -1.161  0.00  0.00    +0.145 C 
BRANCH  13  14
ATOM     14  C   LIG    1        1.804   3.407  -0.490  0.00  0.00    -0.030 A 
ATOM     15  C   LIG    1        0.420   3.215  -0.383  0.00  0.00    +0.005 A 
ATOM     16  C   LIG    1       -0.380   4.167   0.253  0.00  0.00    +0.000 A 
ATOM     17  C   LIG    1        0.195   5.318   0.788  0.00  0.00    +0.000 A 
ATOM     18  C   LIG    1        1.570   5.519   0.690  0.00  0.00    +0.000 A 
ATOM     19  C   LIG    1        2.370   4.568   0.056  0.00  0.00    +0.005 A 
ENDBRANCH  13  14
ENDBRANCH   3  13
BRANCH  12  20
ATOM     20  C   LIG    1        2.623  -1.631   1.766  0.00  0.00    +0.145 C 
BRANCH  20  21
ATOM     21  C   LIG    1        1.763  -1.257   2.951  0.00  0.00    -0.030 A 
ATOM     22  C   LIG    1        0.382  -1.071   2.787  0.00  0.00    +0.005 A 
ATOM     23  C   LIG    1       -0.424  -0.717   3.872  0.00  0.00    +0.000 A 
ATOM     24  C   LIG    1        0.142  -0.534   5.131  0.00  0.00    +0.000 A 
ATOM     25  C   LIG    1        1.513  -0.709   5.308  0.00  0.00    +0.000 A 
ATOM     26  C   LIG    1        2.320  -1.067   4.224  0.00  0.00    +0.005 A 
ENDBRANCH  20  21
ENDBRANCH  12  20
TORSDOF 4
