REMARK  Name = *****
REMARK                            x       y       z     vdW  Elec       q    Type
REMARK                         _______ _______ _______ _____ _____    ______ ____
ROOT
ATOM      1  C   LIG    1        4.430  -2.735  -2.087  0.00  0.00    +0.059 C 
ATOM      2  C   LIG    1        3.665  -3.858  -1.311  0.00  0.00    +0.063 C 
ATOM      3  C   LIG    1        2.380  -4.229  -1.970  0.00  0.00    +0.016 A 
ATOM      4  C   LIG    1        1.942  -3.772  -3.191  0.00  0.00    +0.054 A 
ATOM      5  N   LIG    1        0.746  -4.305  -3.631  0.00  0.00    -0.230 NA
ATOM      6  C   LIG    1        0.291  -5.160  -2.748  0.00  0.00    +0.156 A 
ATOM      7  C   LIG    1        2.712  -2.784  -3.991  0.00  0.00    +0.058 C 
ATOM      8  S   LIG    1        1.278  -5.362  -1.343  0.00  0.00    -0.057 S 
ATOM      9  C   LIG    1        4.204  -2.842  -3.621  0.00  0.00    +0.025 C 
ENDROOT
BRANCH   6  10
ATOM     10  N   LIG    1       -0.838  -5.868  -2.899  0.00  0.00    -0.338 N 
ATOM     11  H   LIG    1       -0.930  -6.729  -2.373  0.00  0.00    +0.144 HD
ATOM     12  H   LIG    1       -1.200  -5.918  -3.843  0.00  0.00    +0.144 HD
ENDBRANCH   6  10
BRANCH   1  13
ATOM     13  N   LIG    1        5.862  -2.794  -1.704  0.00  0.00    -0.313 NA
ATOM     14  H   LIG    1        5.936  -2.812  -0.686  0.00  0.00    +0.122 HD
BRANCH  13  15
ATOM     15  C   LIG    1        6.670  -1.681  -2.212  0.00  0.00    +0.081 C 
BRANCH  15  17
ATOM     16  C   LIG    1        8.978  -0.635  -2.228  0.00  0.00    +0.005 C 
ATOM     17  C   LIG    1        8.132  -1.818  -1.766  0.00  0.00    +0.012 C 
ENDBRANCH  15  17
ENDBRANCH  13  15
ENDBRANCH   1  13
TORSDOF 4
