REMARK  Name = *****
REMARK                            x       y       z     vdW  Elec       q    Type
REMARK                         _______ _______ _______ _____ _____    ______ ____
ROOT
ATOM      1  C   LIG    1        6.661  -5.051   0.040  0.00  0.00    +0.064 A 
ATOM      2  C   LIG    1        7.300  -5.290  -1.195  0.00  0.00    +0.049 A 
ATOM      3  I   LIG    1        6.992  -7.160  -2.198  0.00  0.00    -0.041 I 
ATOM      4  C   LIG    1        8.355  -4.457  -1.606  0.00  0.00    +0.065 A 
ATOM      5  C   LIG    1        9.019  -3.702  -0.619  0.00  0.00    +0.040 A 
ATOM      6  I   LIG    1       11.128  -3.424  -0.929  0.00  0.00    -0.042 I 
ATOM      7  C   LIG    1        8.397  -3.423   0.618  0.00  0.00    +0.065 A 
ATOM      8  C   LIG    1        7.129  -3.994   0.850  0.00  0.00    +0.049 A 
ATOM      9  I   LIG    1        5.707  -3.098   2.223  0.00  0.00    -0.041 I 
ENDROOT
BRANCH   1  11
ATOM     10  C   LIG    1        4.357  -5.912  -0.231  0.00  0.00    +0.138 C 
ATOM     11  N   LIG    1        5.605  -5.888   0.521  0.00  0.00    -0.271 N 
ATOM     12  C   LIG    1        5.797  -6.601   1.709  0.00  0.00    +0.245 C 
ATOM     13  O   LIG    1        6.870  -6.611   2.320  0.00  0.00    -0.273 OA
BRANCH  12  14
ATOM     14  C   LIG    1        4.633  -7.469   2.202  0.00  0.00    +0.252 C 
BRANCH  14  15
ATOM     15  O   LIG    1        4.656  -8.763   1.624  0.00  0.00    -0.386 OA
ATOM     16  H   LIG    1        5.573  -9.090   1.698  0.00  0.00    +0.210 HD
ENDBRANCH  14  15
ENDBRANCH  12  14
ENDBRANCH   1  11
BRANCH   4  17
ATOM     17  C   LIG    1        8.557  -4.144  -3.067  0.00  0.00    +0.246 C 
ATOM     18  N   LIG    1        8.688  -2.801  -3.390  0.00  0.00    -0.309 N 
ATOM     19  H   LIG    1        8.743  -2.106  -2.656  0.00  0.00    +0.149 HD
ATOM     20  O   LIG    1        8.522  -5.013  -3.944  0.00  0.00    -0.270 OA
BRANCH  18  21
ATOM     21  C   LIG    1        8.802  -2.331  -4.772  0.00  0.00    +0.138 C 
BRANCH  21  22
ATOM     22  C   LIG    1        7.467  -1.911  -5.434  0.00  0.00    +0.157 C 
BRANCH  22  23
ATOM     23  O   LIG    1        6.501  -2.973  -5.411  0.00  0.00    -0.388 OA
ATOM     24  H   LIG    1        6.924  -3.762  -5.798  0.00  0.00    +0.210 HD
ENDBRANCH  22  23
BRANCH  22  25
ATOM     25  C   LIG    1        7.717  -1.533  -6.905  0.00  0.00    +0.188 C 
BRANCH  25  26
ATOM     26  O   LIG    1        6.511  -1.143  -7.558  0.00  0.00    -0.392 OA
ATOM     27  H   LIG    1        5.916  -1.916  -7.522  0.00  0.00    +0.209 HD
ENDBRANCH  25  26
ENDBRANCH  22  25
ENDBRANCH  21  22
ENDBRANCH  18  21
ENDBRANCH   4  17
BRANCH   7  28
ATOM     28  C   LIG    1        9.054  -2.564   1.642  0.00  0.00    +0.246 C 
ATOM     29  N   LIG    1        8.824  -2.887   2.955  0.00  0.00    -0.309 N 
ATOM     30  H   LIG    1        8.056  -3.519   3.187  0.00  0.00    +0.149 HD
ATOM     31  O   LIG    1        9.772  -1.606   1.310  0.00  0.00    -0.270 OA
BRANCH  29  32
ATOM     32  C   LIG    1        9.313  -2.068   4.045  0.00  0.00    +0.138 C 
BRANCH  32  33
ATOM     33  C   LIG    1        8.791  -2.554   5.402  0.00  0.00    +0.157 C 
BRANCH  33  34
ATOM     34  O   LIG    1        7.358  -2.475   5.416  0.00  0.00    -0.388 OA
ATOM     35  H   LIG    1        7.129  -1.525   5.398  0.00  0.00    +0.210 HD
ENDBRANCH  33  34
BRANCH  33  36
ATOM     36  C   LIG    1        9.368  -1.715   6.545  0.00  0.00    +0.188 C 
BRANCH  36  37
ATOM     37  O   LIG    1        8.972  -0.348   6.415  0.00  0.00    -0.392 OA
ATOM     38  H   LIG    1        9.465   0.044   5.673  0.00  0.00    +0.209 HD
ENDBRANCH  36  37
ENDBRANCH  33  36
ENDBRANCH  32  33
ENDBRANCH  29  32
ENDBRANCH   7  28
TORSDOF 15
