REMARK  Name = *****
REMARK                            x       y       z     vdW  Elec       q    Type
REMARK                         _______ _______ _______ _____ _____    ______ ____
ROOT
ATOM      1  C   LIG    1        7.908   1.131  -0.096  0.00  0.00    +0.160 A 
ATOM      2  C   LIG    1        8.128   2.469  -0.464  0.00  0.00    +0.164 A 
ATOM      3  F   LIG    1        7.271   3.443  -0.119  0.00  0.00    -0.202 F 
ATOM      4  C   LIG    1        9.249   2.827  -1.187  0.00  0.00    +0.057 A 
ATOM      5  C   LIG    1       10.126   1.825  -1.578  0.00  0.00    +0.068 A 
ATOM      6  C   LIG    1       11.328   2.175  -2.357  0.00  0.00    +0.205 A 
ATOM      7  C   LIG    1       12.237   1.094  -2.778  0.00  0.00    +0.122 A 
ATOM      8  C   LIG    1       11.902  -0.153  -2.415  0.00  0.00    +0.106 A 
ATOM      9  N   LIG    1       10.767  -0.511  -1.713  0.00  0.00    -0.328 N 
ATOM     10  O   LIG    1       11.579   3.343  -2.650  0.00  0.00    -0.286 OA
ATOM     11  C   LIG    1        9.861   0.492  -1.247  0.00  0.00    +0.147 A 
ATOM     12  N   LIG    1        8.767   0.159  -0.507  0.00  0.00    -0.211 NA
ENDROOT
BRANCH   1  17
ATOM     13  N   LIG    1        5.054   1.231   3.764  0.00  0.00    -0.092 NA
ATOM     14  C   LIG    1        5.586   0.838   2.646  0.00  0.00    +0.081 C 
ATOM     15  C   LIG    1        5.583  -0.603   2.203  0.00  0.00    +0.069 C 
ATOM     16  C   LIG    1        6.801  -0.580   1.266  0.00  0.00    +0.117 C 
ATOM     17  N   LIG    1        6.802   0.760   0.666  0.00  0.00    -0.307 N 
ATOM     18  C   LIG    1        6.271   1.728   1.632  0.00  0.00    +0.161 C 
BRANCH  13  20
ATOM     19  C   LIG    1        4.717   3.035   5.159  0.00  0.00    +0.313 C 
ATOM     20  O   LIG    1        5.204   2.623   3.888  0.00  0.00    -0.397 OA
ENDBRANCH  13  20
BRANCH  15  21
ATOM     21  C   LIG    1        4.254  -0.902   1.504  0.00  0.00    +0.088 C 
BRANCH  21  22
ATOM     22  N   LIG    1        4.230  -2.209   0.843  0.00  0.00    -0.329 NA
ATOM     23  H   LIG    1        3.306  -2.353   0.434  0.00  0.00    +0.118 HD
ATOM     24  H   LIG    1        4.868  -2.201   0.046  0.00  0.00    +0.118 HD
ENDBRANCH  21  22
ENDBRANCH  15  21
ENDBRANCH   1  17
BRANCH   9  25
ATOM     25  C   LIG    1       10.480  -1.934  -1.450  0.00  0.00    +0.089 C 
ATOM     26  C   LIG    1        9.429  -2.662  -2.254  0.00  0.00    +0.027 C 
ATOM     27  C   LIG    1       10.865  -3.062  -2.381  0.00  0.00    +0.027 C 
ENDBRANCH   9  25
BRANCH   7  28
ATOM     28  C   LIG    1       13.454   1.316  -3.586  0.00  0.00    +0.342 C 
ATOM     29  O   LIG    1       14.188   0.414  -3.952  0.00  0.00    -0.245 OA
BRANCH  28  30
ATOM     30  O   LIG    1       13.685   2.609  -3.905  0.00  0.00    -0.477 OA
ATOM     31  H   LIG    1       13.018   3.245  -3.549  0.00  0.00    +0.295 HD
ENDBRANCH  28  30
ENDBRANCH   7  28
TORSDOF 7
