REMARK  Name = *****
REMARK                            x       y       z     vdW  Elec       q    Type
REMARK                         _______ _______ _______ _____ _____    ______ ____
ROOT
ATOM      1  CA  ALA A  1        5.428   4.758   0.142  0.00  0.00    +0.138 C 
ATOM      2  CB  ALA A  1        3.988   5.027   0.591  0.00  0.00    +0.034 C 
ENDROOT
BRANCH   1   3
ATOM      3  C   ALA A  1        6.080   6.132  -0.178  0.00  0.00    +0.233 C 
ATOM      4  N   UNK A  2        5.901   6.707  -1.433  0.00  0.00    -0.283 N 
ATOM      5  C   UNK A  2        5.673   5.972  -2.701  0.00  0.00    +0.080 C 
ATOM      6  C   UNK A  2        6.389   6.828  -3.772  0.00  0.00    +0.012 C 
ATOM      7  C   UNK A  2        5.852   6.758  -5.201  0.00  0.00    +0.005 C 
ATOM      8  C   UNK A  2        4.332   6.712  -5.266  0.00  0.00    +0.000 C 
ATOM      9  C   UNK A  2        3.817   5.556  -4.423  0.00  0.00    +0.002 C 
ATOM     10  C   UNK A  2        6.312   8.236  -3.199  0.00  0.00    +0.039 C 
ATOM     11  C   UNK A  2        4.176   5.750  -2.953  0.00  0.00    +0.023 C 
ATOM     12  C   UNK A  2        6.520   8.027  -1.702  0.00  0.00    +0.185 C 
ATOM     13  O   ALA A  1        6.588   6.810   0.723  0.00  0.00    -0.274 OA
BRANCH  12  14
ATOM     14  C   UNK A  2        5.938   9.278  -1.005  0.00  0.00    +0.326 C 
ATOM     15  O   UNK A  2        6.313  10.416  -1.201  0.00  0.00    -0.249 OA
BRANCH  14  16
ATOM     16  O   UNK A  2        4.898   9.014  -0.169  0.00  0.00    -0.479 OA
ATOM     17  H   UNK A  2        4.810   8.056  -0.029  0.00  0.00    +0.295 HD
ENDBRANCH  14  16
ENDBRANCH  12  14
ENDBRANCH   1   3
BRANCH   1  18
ATOM     18  N   ALA A  1        6.220   4.096   1.202  0.00  0.00    -0.294 NA
ATOM     19  H   ALA A  1        6.226   4.713   2.027  0.00  0.00    +0.123 HD
BRANCH  18  20
ATOM     20  C   UNK A  0        5.769   2.738   1.625  0.00  0.00    +0.164 C 
BRANCH  20  21
ATOM     21  C   UNK A  0        6.705   2.222   2.709  0.00  0.00    +0.324 C 
ATOM     22  O   UNK A  0        7.630   1.457   2.560  0.00  0.00    -0.249 OA
BRANCH  21  23
ATOM     23  O   UNK A  0        6.306   2.740   3.923  0.00  0.00    -0.464 OA
BRANCH  23  25
ATOM     24  C   UNK A  0        8.498   3.081   4.915  0.00  0.00    +0.048 C 
ATOM     25  C   UNK A  0        7.136   2.404   5.054  0.00  0.00    +0.229 C 
ENDBRANCH  23  25
ENDBRANCH  21  23
ENDBRANCH  20  21
BRANCH  20  26
ATOM     26  C   UNK A  0        5.790   1.712   0.460  0.00  0.00    +0.035 C 
BRANCH  26  27
ATOM     27  C   UNK A  0        5.394   0.283   0.875  0.00  0.00    +0.037 C 
BRANCH  27  28
ATOM     28  C   UNK A  0        4.005   0.189   1.455  0.00  0.00    -0.047 A 
ATOM     29  C   UNK A  0        3.799   0.294   2.840  0.00  0.00    +0.003 A 
ATOM     30  C   UNK A  0        2.512   0.243   3.374  0.00  0.00    +0.000 A 
ATOM     31  C   UNK A  0        1.420   0.059   2.532  0.00  0.00    +0.000 A 
ATOM     32  C   UNK A  0        1.614  -0.062   1.156  0.00  0.00    +0.000 A 
ATOM     33  C   UNK A  0        2.899   0.013   0.617  0.00  0.00    +0.003 A 
ENDBRANCH  27  28
ENDBRANCH  26  27
ENDBRANCH  20  26
ENDBRANCH  18  20
ENDBRANCH   1  18
TORSDOF 11
