REMARK  Name = *****
REMARK                            x       y       z     vdW  Elec       q    Type
REMARK                         _______ _______ _______ _____ _____    ______ ____
ROOT
ATOM      1  N   LIG    1        5.982   0.346   1.020  0.00  0.00    -0.299 N 
ATOM      2  C   LIG    1        6.633   0.080  -0.220  0.00  0.00    +0.037 A 
ATOM      3  C   LIG    1        7.718   0.808  -0.766  0.00  0.00    -0.026 A 
ATOM      4  C   LIG    1        8.253   0.403  -2.010  0.00  0.00    +0.005 A 
ATOM      5  C   LIG    1        7.726  -0.662  -2.731  0.00  0.00    +0.000 A 
ATOM      6  C   LIG    1        6.692  -1.410  -2.175  0.00  0.00    +0.002 A 
ATOM      7  C   LIG    1        8.429   1.957  -0.086  0.00  0.00    +0.041 C 
ATOM      8  C   LIG    1        7.592   2.854   0.822  0.00  0.00    +0.041 C 
ATOM      9  C   LIG    1        7.324   2.146   2.122  0.00  0.00    -0.026 A 
ATOM     10  C   LIG    1        7.843   2.681   3.315  0.00  0.00    +0.005 A 
ATOM     11  C   LIG    1        7.808   1.936   4.494  0.00  0.00    +0.000 A 
ATOM     12  C   LIG    1        7.272   0.656   4.488  0.00  0.00    +0.002 A 
ATOM     13  C   LIG    1        6.689   0.149   3.325  0.00  0.00    +0.024 A 
ATOM     14  C   LIG    1        6.203  -1.063  -0.921  0.00  0.00    +0.024 A 
ATOM     15  C   LIG    1        6.672   0.903   2.140  0.00  0.00    +0.037 A 
ENDROOT
BRANCH   1  16
ATOM     16  C   LIG    1        4.663   1.075   0.850  0.00  0.00    +0.115 C 
BRANCH  16  18
ATOM     17  C   LIG    1        3.053  -0.929   1.162  0.00  0.00    +0.010 C 
ATOM     18  C   LIG    1        3.492   0.239   0.260  0.00  0.00    +0.018 C 
BRANCH  18  19
ATOM     19  C   LIG    1        2.231   1.104  -0.035  0.00  0.00    +0.088 C 
BRANCH  19  20
ATOM     20  N   LIG    1        2.429   2.315  -0.852  0.00  0.00    -0.308 NA
ATOM     21  C   LIG    1        1.150   3.016  -1.019  0.00  0.00    +0.104 C 
ATOM     22  C   LIG    1        2.998   2.013  -2.167  0.00  0.00    +0.104 C 
ENDBRANCH  19  20
ENDBRANCH  18  19
ENDBRANCH  16  18
ENDBRANCH   1  16
TORSDOF 4
