REMARK  Name = *****
REMARK                            x       y       z     vdW  Elec       q    Type
REMARK                         _______ _______ _______ _____ _____    ______ ____
ROOT
ATOM      1  C   LIG    1        0.796  -0.091  -0.052  0.00  0.00    +0.088 C 
ATOM      2  C   LIG    1        2.277  -0.056  -0.036  0.00  0.00    +0.135 A 
ATOM      3  N   LIG    1        3.122  -1.148   0.084  0.00  0.00    -0.281 N 
ATOM      4  C   LIG    1        2.836  -2.487   0.457  0.00  0.00    +0.059 A 
ATOM      5  C   LIG    1        3.607  -3.562  -0.029  0.00  0.00    +0.026 A 
ATOM      6  C   LIG    1        4.641  -3.415  -1.104  0.00  0.00    +0.077 C 
ATOM      7  N   LIG    1        5.553  -2.504  -1.143  0.00  0.00    -0.275 NA
ATOM      8  C   LIG    1        5.601  -1.473  -0.114  0.00  0.00    +0.218 C 
ATOM      9  C   LIG    1        3.345  -4.865   0.431  0.00  0.00    +0.032 A 
ATOM     10  C   LIG    1        2.317  -5.095   1.341  0.00  0.00    +0.042 A 
ATOM     11 CL   LIG    1        2.003  -6.694   1.889  0.00  0.00    -0.084 Cl
ATOM     12  C   LIG    1        1.543  -4.040   1.810  0.00  0.00    +0.022 A 
ATOM     13  C   LIG    1        1.802  -2.738   1.374  0.00  0.00    +0.028 A 
ATOM     14  C   LIG    1        4.380  -0.640  -0.160  0.00  0.00    +0.160 A 
ATOM     15  N   LIG    1        4.311   0.663  -0.331  0.00  0.00    -0.132 NA
ATOM     16  N   LIG    1        2.996   1.027  -0.253  0.00  0.00    -0.134 NA
ENDROOT
BRANCH   6  17
ATOM     17  C   LIG    1        4.654  -4.412  -2.217  0.00  0.00    +0.019 A 
ATOM     18  C   LIG    1        3.534  -4.685  -3.014  0.00  0.00    +0.050 A 
ATOM     19 CL   LIG    1        2.032  -3.849  -2.846  0.00  0.00    -0.083 Cl
ATOM     20  C   LIG    1        3.625  -5.646  -4.027  0.00  0.00    +0.021 A 
ATOM     21  C   LIG    1        4.826  -6.321  -4.254  0.00  0.00    +0.002 A 
ATOM     22  C   LIG    1        5.947  -6.032  -3.478  0.00  0.00    +0.001 A 
ATOM     23  C   LIG    1        5.865  -5.076  -2.465  0.00  0.00    +0.011 A 
ENDBRANCH   6  17
TORSDOF 1
