REMARK  Name = *****
REMARK                            x       y       z     vdW  Elec       q    Type
REMARK                         _______ _______ _______ _____ _____    ______ ____
ROOT
ATOM      1  CA  LIG    1        3.172   1.332  -1.024  0.00  0.00    +0.176 C 
ENDROOT
BRANCH   1   3
ATOM      2  C   LIG    1        3.131   3.605   0.122  0.00  0.00    +0.024 C 
ATOM      3  C   LIG    1        2.342   2.629  -0.771  0.00  0.00    +0.034 C 
ATOM      4  C   LIG    1        1.004   2.306  -0.088  0.00  0.00    +0.024 C 
BRANCH   3   5
ATOM      5  S   LIG    1        1.990   3.533  -2.352  0.00  0.00    -0.170 S 
ATOM      6  H   LIG    1        1.290   4.541  -1.806  0.00  0.00    +0.102 HD
ENDBRANCH   3   5
ENDBRANCH   1   3
BRANCH   1   7
ATOM      7  N   LIG    1        4.496   1.589  -1.647  0.00  0.00    -0.317 NA
ATOM      8  H1  LIG    1        4.945   0.696  -1.862  0.00  0.00    +0.119 HD
ATOM      9  H2  LIG    1        4.395   2.093  -2.526  0.00  0.00    +0.119 HD
ENDBRANCH   1   7
BRANCH   1  10
ATOM     10  C   LIG    1        2.418   0.261  -1.842  0.00  0.00    +0.323 C 
ATOM     11  O   LIG    1        2.089  -0.827  -1.394  0.00  0.00    -0.249 OA
BRANCH  10  12
ATOM     12  OXT LIG    1        2.208   0.596  -3.137  0.00  0.00    -0.479 OA
ATOM     13  HXT LIG    1        2.425   1.535  -3.315  0.00  0.00    +0.295 HD
ENDBRANCH  10  12
ENDBRANCH   1  10
TORSDOF 5
