REMARK  Name = *****
REMARK                            x       y       z     vdW  Elec       q    Type
REMARK                         _______ _______ _______ _____ _____    ______ ____
ROOT
ATOM      1  S   LIG    1        4.730   0.302  -1.050  0.00  0.00    +0.084 S 
ATOM      2  O   LIG    1        5.441   0.230  -2.310  0.00  0.00    -0.149 OA
ATOM      3  O   LIG    1        5.271  -0.393   0.104  0.00  0.00    -0.149 OA
ENDROOT
BRANCH   1   4
ATOM      4  C   LIG    1        4.609   2.028  -0.602  0.00  0.00    +0.109 A 
ATOM      5  C   LIG    1        4.784   3.010  -1.581  0.00  0.00    +0.030 A 
ATOM      6  C   LIG    1        4.814   4.359  -1.211  0.00  0.00    +0.024 A 
ATOM      7  C   LIG    1        4.656   4.742   0.124  0.00  0.00    +0.025 A 
ATOM      8  C   LIG    1        4.538   3.745   1.097  0.00  0.00    +0.024 A 
ATOM      9  C   LIG    1        4.496   2.394   0.741  0.00  0.00    +0.030 A 
BRANCH   7  10
ATOM     10  N   LIG    1        4.868   6.071   0.506  0.00  0.00    -0.358 N 
ATOM     11  H   LIG    1        4.617   6.750  -0.207  0.00  0.00    +0.142 HD
ATOM     12  H   LIG    1        4.487   6.311   1.415  0.00  0.00    +0.142 HD
ENDBRANCH   7  10
ENDBRANCH   1   4
BRANCH   1  15
ATOM     13  C   LIG    1        2.647  -1.003   1.050  0.00  0.00    +0.111 C 
ATOM     14  C   LIG    1        2.194  -0.280  -0.193  0.00  0.00    +0.238 C 
ATOM     15  N   LIG    1        3.119  -0.191  -1.279  0.00  0.00    -0.104 N 
ATOM     16  O   LIG    1        1.023   0.088  -0.276  0.00  0.00    -0.274 OA
BRANCH  15  17
ATOM     17  C   LIG    1        2.557   0.398  -2.457  0.00  0.00    +0.249 A 
ATOM     18  C   LIG    1        2.555  -0.151  -3.726  0.00  0.00    +0.036 A 
ATOM     19  C   LIG    1        3.110  -1.450  -4.175  0.00  0.00    +0.051 C 
ATOM     20  C   LIG    1        1.843   0.806  -4.504  0.00  0.00    +0.085 A 
ATOM     21  C   LIG    1        1.472   0.741  -5.938  0.00  0.00    +0.069 C 
ATOM     22  N   LIG    1        1.479   1.863  -3.770  0.00  0.00    -0.081 NA
ATOM     23  O   LIG    1        1.899   1.590  -2.485  0.00  0.00    -0.337 OA
ENDBRANCH  15  17
ENDBRANCH   1  15
TORSDOF 4
