REMARK  Name = *****
REMARK                            x       y       z     vdW  Elec       q    Type
REMARK                         _______ _______ _______ _____ _____    ______ ____
ROOT
ATOM      1  C   LIG    1        2.702  -1.401   1.481  0.00  0.00    +0.115 C 
ATOM      2  C   LIG    1        3.562  -1.080   2.568  0.00  0.00    +0.075 C 
ATOM      3  C   LIG    1        4.080  -2.124   3.380  0.00  0.00    +0.008 C 
ATOM      4  C   LIG    1        4.690  -1.516   4.480  0.00  0.00    -0.018 C 
ATOM      5  C   LIG    1        5.432  -1.909   5.693  0.00  0.00    +0.038 C 
ATOM      6  C   LIG    1        5.549  -0.555   6.460  0.00  0.00    +0.015 C 
ATOM      7  C   LIG    1        5.256   0.609   5.428  0.00  0.00    +0.047 C 
ATOM      8  C   LIG    1        4.592  -0.164   4.338  0.00  0.00    +0.027 C 
ATOM      9  C   LIG    1        3.897  -3.469   3.019  0.00  0.00    +0.048 C 
ATOM     10  C   LIG    1        3.154  -3.764   1.890  0.00  0.00    +0.126 C 
ATOM     11  F   LIG    1        2.970  -5.045   1.543  0.00  0.00    -0.205 F 
ATOM     12  N   LIG    1        4.130   0.103   3.075  0.00  0.00    -0.337 NA
ATOM     13  C   LIG    1        2.547  -2.766   1.151  0.00  0.00    +0.067 C 
ENDROOT
BRANCH   1  15
ATOM     14  C   LIG    1        0.632   0.473   1.866  0.00  0.00    +0.200 C 
ATOM     15  S   LIG    1        1.611  -0.289   0.598  0.00  0.00    -0.004 S 
ATOM     16  O   LIG    1        2.419   0.719  -0.050  0.00  0.00    -0.170 OA
ATOM     17  O   LIG    1        0.693  -1.104  -0.184  0.00  0.00    -0.170 OA
ENDBRANCH   1  15
BRANCH   7  18
ATOM     18  C   LIG    1        4.369   1.688   6.040  0.00  0.00    +0.130 C 
BRANCH  18  19
ATOM     19  C   LIG    1        5.100   2.429   7.133  0.00  0.00    +0.305 C 
ATOM     20  O   LIG    1        6.309   2.595   7.170  0.00  0.00    -0.251 OA
BRANCH  19  21
ATOM     21  O   LIG    1        4.273   2.943   8.070  0.00  0.00    -0.481 OA
ATOM     22  H   LIG    1        3.326   2.753   7.926  0.00  0.00    +0.295 HD
ENDBRANCH  19  21
ENDBRANCH  18  19
ENDBRANCH   7  18
BRANCH  12  23
ATOM     23  C   LIG    1        4.482   1.318   2.333  0.00  0.00    +0.157 C 
BRANCH  23  24
ATOM     24  C   LIG    1        5.728   1.142   1.484  0.00  0.00    -0.028 C 
ATOM     25  C   LIG    1        6.962   0.797   2.062  0.00  0.00    +0.007 C 
ATOM     26  C   LIG    1        8.112   0.638   1.284  0.00  0.00    +0.020 C 
ATOM     27  C   LIG    1        8.043   0.828  -0.090  0.00  0.00    +0.041 C 
ATOM     28 CL   LIG    1        9.454   0.618  -1.052  0.00  0.00    -0.084 Cl
ATOM     29  C   LIG    1        6.838   1.187  -0.686  0.00  0.00    +0.020 C 
ATOM     30  C   LIG    1        5.689   1.355   0.098  0.00  0.00    +0.007 C 
ENDBRANCH  23  24
ENDBRANCH  12  23
TORSDOF 6
