REMARK  Name = *****
REMARK                            x       y       z     vdW  Elec       q    Type
REMARK                         _______ _______ _______ _____ _____    ______ ____
ROOT
ATOM      1  N   LIG    1        1.019  -7.278   2.193  0.00  0.00    -0.282 N 
ATOM      2  H   LIG    1        1.696  -7.822   2.712  0.00  0.00    +0.155 HD
ENDROOT
BRANCH   1   3
ATOM      3  C   LIG    1        0.414  -8.037   1.154  0.00  0.00    +0.126 A 
ATOM      4  N   LIG    1        0.495  -7.654  -0.147  0.00  0.00    -0.213 NA
ATOM      5  C   LIG    1       -0.176  -8.347  -1.103  0.00  0.00    +0.174 A 
ATOM      6  N   LIG    1       -0.081  -7.984  -2.477  0.00  0.00    -0.225 N 
ATOM      7  C   LIG    1       -0.877  -8.625  -3.441  0.00  0.00    +0.266 C 
ATOM      8  C   LIG    1       -2.050  -9.451  -2.844  0.00  0.00    +0.181 C 
ATOM      9  O   LIG    1       -1.729 -10.161  -1.648  0.00  0.00    -0.474 OA
ATOM     10  C   LIG    1       -2.492 -10.528  -3.841  0.00  0.00    +0.066 C 
ATOM     11  C   LIG    1       -3.230  -8.499  -2.588  0.00  0.00    +0.066 C 
ATOM     12  O   LIG    1       -0.738  -8.471  -4.641  0.00  0.00    -0.271 OA
ATOM     13  C   LIG    1       -0.969  -9.449  -0.767  0.00  0.00    +0.162 A 
ATOM     14  C   LIG    1       -0.979  -9.901   0.546  0.00  0.00    +0.052 A 
ATOM     15  C   LIG    1       -0.282  -9.190   1.517  0.00  0.00    +0.047 A 
BRANCH   6  16
ATOM     16  C   LIG    1        1.036  -7.201  -2.989  0.00  0.00    +0.289 C 
BRANCH  16  17
ATOM     17  O   LIG    1        1.371  -6.127  -2.151  0.00  0.00    -0.267 OA
BRANCH  17  18
ATOM     18  P   LIG    1        2.567  -5.192  -2.620  0.00  0.00    +0.474 P 
ATOM     19  O   LIG    1        2.851  -4.035  -1.728  0.00  0.00    -0.228 OA
BRANCH  18  20
ATOM     20  O   LIG    1        2.245  -4.732  -4.112  0.00  0.00    -0.303 OA
ATOM     21  H   LIG    1        1.869  -3.833  -4.145  0.00  0.00    +0.222 HD
ENDBRANCH  18  20
BRANCH  18  22
ATOM     22  O   LIG    1        3.856  -6.114  -2.803  0.00  0.00    -0.303 OA
ATOM     23  H   LIG    1        4.568  -5.820  -2.206  0.00  0.00    +0.222 HD
ENDBRANCH  18  22
ENDBRANCH  17  18
ENDBRANCH  16  17
ENDBRANCH   6  16
ENDBRANCH   1   3
BRANCH   1  26
ATOM     24  C   LIG    1        3.050  -4.287   2.439  0.00  0.00    +0.221 A 
ATOM     25  N   LIG    1        2.645  -5.569   2.621  0.00  0.00    -0.196 NA
ATOM     26  C   LIG    1        1.441  -5.929   2.089  0.00  0.00    +0.165 A 
ATOM     27  C   LIG    1        0.601  -4.990   1.514  0.00  0.00    +0.181 A 
ATOM     28  F   LIG    1       -0.662  -5.269   1.160  0.00  0.00    -0.200 F 
ATOM     29  C   LIG    1        1.083  -3.717   1.403  0.00  0.00    +0.156 A 
ATOM     30  N   LIG    1        2.301  -3.353   1.832  0.00  0.00    -0.220 NA
BRANCH  24  31
ATOM     31  N   LIG    1        4.280  -3.873   2.959  0.00  0.00    -0.283 N 
ATOM     32  H   LIG    1        4.611  -4.460   3.708  0.00  0.00    +0.155 HD
BRANCH  31  37
ATOM     33  C   LIG    1        6.958  -1.292   2.712  0.00  0.00    +0.167 A 
ATOM     34  C   LIG    1        7.007  -1.043   1.323  0.00  0.00    +0.204 A 
ATOM     35  C   LIG    1        6.190  -1.806   0.472  0.00  0.00    +0.167 A 
ATOM     36  C   LIG    1        5.268  -2.711   1.030  0.00  0.00    +0.073 A 
ATOM     37  C   LIG    1        5.201  -2.960   2.406  0.00  0.00    +0.041 A 
ATOM     38  C   LIG    1        6.050  -2.229   3.237  0.00  0.00    +0.073 A 
BRANCH  33  40
ATOM     39  C   LIG    1        8.207  -1.182   4.723  0.00  0.00    +0.277 C 
ATOM     40  O   LIG    1        7.800  -0.550   3.513  0.00  0.00    -0.491 OA
ENDBRANCH  33  40
BRANCH  34  41
ATOM     41  O   LIG    1        7.942  -0.117   0.916  0.00  0.00    -0.488 OA
ATOM     42  C   LIG    1        7.639   0.647  -0.247  0.00  0.00    +0.277 C 
ENDBRANCH  34  41
BRANCH  35  43
ATOM     43  O   LIG    1        6.316  -1.649  -0.887  0.00  0.00    -0.491 OA
ATOM     44  C   LIG    1        6.074  -2.821  -1.659  0.00  0.00    +0.277 C 
ENDBRANCH  35  43
ENDBRANCH  31  37
ENDBRANCH  24  31
ENDBRANCH   1  26
TORSDOF 12
