REMARK  Name = *****
REMARK                            x       y       z     vdW  Elec       q    Type
REMARK                         _______ _______ _______ _____ _____    ______ ____
ROOT
ATOM      1  O   LIG    1        0.999   0.018   0.253  0.00  0.00    -0.271 OA
ATOM      2  C   LIG    1        2.228  -0.022   0.148  0.00  0.00    +0.269 C 
ATOM      3  C   LIG    1        2.969  -1.173  -0.580  0.00  0.00    +0.320 C 
ATOM      4  N   LIG    1        3.802  -1.896   0.371  0.00  0.00    -0.243 NA
ATOM      5  C   LIG    1        4.812  -1.311   0.920  0.00  0.00    +0.078 C 
ATOM      6  C   LIG    1        5.257   0.089   0.642  0.00  0.00    +0.023 A 
ATOM      7  C   LIG    1        4.358   1.166   0.604  0.00  0.00    +0.043 A 
ATOM      8  C   LIG    1        4.858   2.476   0.560  0.00  0.00    +0.025 A 
ATOM      9  C   LIG    1        6.231   2.710   0.468  0.00  0.00    +0.022 A 
ATOM     10  C   LIG    1        7.113   1.636   0.431  0.00  0.00    +0.042 A 
ATOM     11 CL   LIG    1        8.804   1.921   0.304  0.00  0.00    -0.084 Cl
ATOM     12  C   LIG    1        6.637   0.330   0.521  0.00  0.00    +0.032 A 
ATOM     13  N   LIG    1        2.964   1.034   0.624  0.00  0.00    -0.281 N 
ATOM     14  H   LIG    1        2.389   1.836   0.851  0.00  0.00    +0.155 HD
ENDROOT
BRANCH   5  15
ATOM     15  C   LIG    1        5.587  -2.116   1.921  0.00  0.00    +0.001 A 
ATOM     16  C   LIG    1        6.076  -1.532   3.097  0.00  0.00    +0.010 A 
ATOM     17  C   LIG    1        6.792  -2.306   4.013  0.00  0.00    +0.001 A 
ATOM     18  C   LIG    1        7.010  -3.661   3.765  0.00  0.00    +0.000 A 
ATOM     19  C   LIG    1        6.505  -4.250   2.605  0.00  0.00    +0.001 A 
ATOM     20  C   LIG    1        5.790  -3.481   1.686  0.00  0.00    +0.010 A 
ENDBRANCH   5  15
BRANCH   3  21
ATOM     21  O   LIG    1        3.648  -0.773  -1.754  0.00  0.00    -0.364 OA
ATOM     22  H   LIG    1        4.260  -1.509  -1.920  0.00  0.00    +0.212 HD
ENDBRANCH   3  21
TORSDOF 2
