REMARK  Name = *****
REMARK                            x       y       z     vdW  Elec       q    Type
REMARK                         _______ _______ _______ _____ _____    ______ ____
ROOT
ATOM      1  O   LIG    1        7.309  -0.138  -2.120  0.00  0.00    -0.226 OA
ATOM      2  C   LIG    1        7.766   0.941  -2.465  0.00  0.00    +0.404 C 
ATOM      3  N   LIG    1        8.322   1.873  -1.617  0.00  0.00    -0.256 N 
ATOM      4  C   LIG    1        8.411   1.596  -0.181  0.00  0.00    +0.140 C 
ATOM      5  C   LIG    1        7.965   2.816   0.641  0.00  0.00    -0.019 A 
ATOM      6  C   LIG    1        7.905   4.108   0.071  0.00  0.00    -0.041 A 
ATOM      7  C   LIG    1        7.564   5.212   0.866  0.00  0.00    +0.004 A 
ATOM      8  C   LIG    1        7.270   5.045   2.216  0.00  0.00    +0.000 A 
ATOM      9  C   LIG    1        7.284   3.770   2.776  0.00  0.00    +0.000 A 
ATOM     10  C   LIG    1        8.101   4.310  -1.411  0.00  0.00    +0.054 C 
ATOM     11  C   LIG    1        7.627   2.663   1.996  0.00  0.00    +0.006 A 
ATOM     12  C   LIG    1        8.852   3.158  -2.064  0.00  0.00    +0.116 C 
ENDROOT
BRANCH   4  13
ATOM     13  C   LIG    1        9.812   1.069   0.177  0.00  0.00    -0.022 A 
ATOM     14  C   LIG    1       10.853   1.919   0.592  0.00  0.00    +0.006 A 
ATOM     15  C   LIG    1       12.122   1.416   0.895  0.00  0.00    +0.000 A 
ATOM     16  C   LIG    1       12.381   0.053   0.780  0.00  0.00    +0.000 A 
ATOM     17  C   LIG    1       11.373  -0.805   0.349  0.00  0.00    +0.000 A 
ATOM     18  C   LIG    1       10.101  -0.303   0.045  0.00  0.00    +0.006 A 
ENDBRANCH   4  13
BRANCH   2  19
ATOM     19  O   LIG    1        7.786   1.370  -3.753  0.00  0.00    -0.445 OA
BRANCH  19  20
ATOM     20  C   LIG    1        7.279   0.474  -4.755  0.00  0.00    +0.195 C 
ATOM     21  C   LIG    1        7.847   0.953  -6.109  0.00  0.00    +0.034 C 
ATOM     22  C   LIG    1        7.372   2.395  -6.369  0.00  0.00    +0.022 C 
ATOM     23  C   LIG    1        5.840   2.452  -6.256  0.00  0.00    +0.085 C 
ATOM     24  N   LIG    1        5.251   1.102  -6.110  0.00  0.00    -0.299 NA
ATOM     25  C   LIG    1        5.720   0.249  -7.225  0.00  0.00    +0.085 C 
ATOM     26  C   LIG    1        7.248   0.068  -7.209  0.00  0.00    +0.022 C 
ATOM     27  C   LIG    1        5.734   0.520  -4.826  0.00  0.00    +0.129 C 
ENDBRANCH  19  20
ENDBRANCH   2  19
TORSDOF 3
