REMARK  Name = *****
REMARK                            x       y       z     vdW  Elec       q    Type
REMARK                         _______ _______ _______ _____ _____    ______ ____
ROOT
ATOM      1  C   LIG    1        2.601   1.284  -4.770  0.00  0.00    +0.341 C 
ATOM      2  O   LIG    1        1.538   1.906  -4.858  0.00  0.00    -0.247 OA
ENDROOT
BRANCH   1   3
ATOM      3  O   LIG    1        2.934   0.462  -3.731  0.00  0.00    -0.459 OA
BRANCH   3   8
ATOM      4  C   LIG    1        1.017  -0.149   0.631  0.00  0.00    +0.105 C 
ATOM      5  N   LIG    1        2.403  -0.038   0.217  0.00  0.00    -0.299 NA
ATOM      6  C   LIG    1        2.780   1.223  -0.423  0.00  0.00    +0.060 C 
ATOM      7  C   LIG    1        1.977   1.490  -1.708  0.00  0.00    +0.063 C 
ATOM      8  C   LIG    1        1.930   0.306  -2.694  0.00  0.00    +0.179 C 
ATOM      9  C   LIG    1        2.110  -1.075  -2.039  0.00  0.00    +0.063 C 
ATOM     10  C   LIG    1        4.259   0.945  -0.703  0.00  0.00    +0.020 C 
ATOM     11  C   LIG    1        4.332  -0.569  -0.917  0.00  0.00    +0.020 C 
ATOM     12  C   LIG    1        2.893  -1.055  -0.715  0.00  0.00    +0.060 C 
ENDBRANCH   3   8
ENDBRANCH   1   3
BRANCH   1  13
ATOM     13  C   LIG    1        3.709   1.362  -5.840  0.00  0.00    +0.253 C 
BRANCH  13  14
ATOM     14  C   LIG    1        5.038   1.913  -5.361  0.00  0.00    -0.008 A 
ATOM     15  C   LIG    1        6.226   1.527  -6.007  0.00  0.00    +0.007 A 
ATOM     16  C   LIG    1        7.466   2.012  -5.580  0.00  0.00    +0.000 A 
ATOM     17  C   LIG    1        7.534   2.915  -4.523  0.00  0.00    +0.000 A 
ATOM     18  C   LIG    1        6.363   3.346  -3.906  0.00  0.00    +0.000 A 
ATOM     19  C   LIG    1        5.123   2.856  -4.326  0.00  0.00    +0.007 A 
ENDBRANCH  13  14
BRANCH  13  20
ATOM     20  O   LIG    1        3.303   2.163  -6.955  0.00  0.00    -0.376 OA
ATOM     21  H   LIG    1        2.840   2.934  -6.576  0.00  0.00    +0.211 HD
ENDBRANCH  13  20
ENDBRANCH   1  13
TORSDOF 5
