REMARK  Name = *****
REMARK                            x       y       z     vdW  Elec       q    Type
REMARK                         _______ _______ _______ _____ _____    ______ ____
ROOT
ATOM      1  N   LIG    1        2.275  -4.940  -1.490  0.00  0.00    -0.199 N 
ATOM      2  H   LIG    1        1.534  -4.254  -1.616  0.00  0.00    +0.175 HD
ENDROOT
BRANCH   1   7
ATOM      3  C   LIG    1        3.614  -7.029  -4.145  0.00  0.00    +0.222 A 
ATOM      4  N   LIG    1        3.468  -6.197  -5.186  0.00  0.00    -0.160 NA
ATOM      5  C   LIG    1        2.950  -4.995  -4.918  0.00  0.00    +0.323 A 
ATOM      6  N   LIG    1        2.556  -4.576  -3.715  0.00  0.00    -0.178 NA
ATOM      7  C   LIG    1        2.723  -5.457  -2.724  0.00  0.00    +0.148 A 
ATOM      8  C   LIG    1        3.264  -6.710  -2.860  0.00  0.00    +0.112 A 
BRANCH   3  10
ATOM      9  C   LIG    1        4.886  -8.371  -5.564  0.00  0.00    +0.278 C 
ATOM     10  O   LIG    1        4.081  -8.304  -4.386  0.00  0.00    -0.479 OA
ENDBRANCH   3  10
BRANCH   5  11
ATOM     11  O   LIG    1        2.800  -4.081  -5.938  0.00  0.00    -0.466 OA
ATOM     12  C   LIG    1        3.219  -4.604  -7.194  0.00  0.00    +0.280 C 
ENDBRANCH   5  11
ENDBRANCH   1   7
BRANCH   1  13
ATOM     13  S   LIG    1        3.435  -4.351  -0.424  0.00  0.00    +0.073 S 
ATOM     14  O   LIG    1        4.178  -5.470   0.104  0.00  0.00    -0.150 OA
ATOM     15  O   LIG    1        2.740  -3.434   0.463  0.00  0.00    -0.150 OA
BRANCH  13  16
ATOM     16  C   LIG    1        4.540  -3.389  -1.437  0.00  0.00    +0.109 A 
ATOM     17  C   LIG    1        5.712  -3.986  -1.915  0.00  0.00    +0.030 A 
ATOM     18  C   LIG    1        6.617  -3.229  -2.661  0.00  0.00    +0.024 A 
ATOM     19  C   LIG    1        6.354  -1.889  -2.960  0.00  0.00    +0.025 A 
ATOM     20  C   LIG    1        5.210  -1.291  -2.421  0.00  0.00    +0.024 A 
ATOM     21  C   LIG    1        4.294  -2.037  -1.670  0.00  0.00    +0.030 A 
BRANCH  19  22
ATOM     22  N   LIG    1        7.338  -1.105  -3.573  0.00  0.00    -0.358 N 
ATOM     23  H   LIG    1        7.974  -1.627  -4.167  0.00  0.00    +0.142 HD
ATOM     24  H   LIG    1        6.981  -0.271  -4.026  0.00  0.00    +0.142 HD
ENDBRANCH  19  22
ENDBRANCH  13  16
ENDBRANCH   1  13
TORSDOF 6
