REMARK  Name = *****
REMARK                            x       y       z     vdW  Elec       q    Type
REMARK                         _______ _______ _______ _____ _____    ______ ____
ROOT
ATOM      1  C   LIG    1        0.093   1.157  -7.376  0.00  0.00    +0.151 C 
ENDROOT
BRANCH   1   2
ATOM      2  O   LIG    1        0.771   1.645  -6.225  0.00  0.00    -0.389 OA
ATOM      3  H   LIG    1        0.254   2.429  -5.924  0.00  0.00    +0.210 HD
ENDBRANCH   1   2
BRANCH   1   4
ATOM      4  C   LIG    1        0.786   1.690  -8.650  0.00  0.00    +0.142 C 
BRANCH   4   5
ATOM      5  N   LIG    1        0.743   3.194  -8.932  0.00  0.00    -0.174 NA
BRANCH   5   6
ATOM      6  S   LIG    1        1.018   4.369  -7.651  0.00  0.00    +0.061 S 
ATOM      7  O   LIG    1        0.340   3.901  -6.427  0.00  0.00    -0.153 OA
ATOM      8  O   LIG    1        0.587   5.659  -8.135  0.00  0.00    -0.153 OA
BRANCH   6   9
ATOM      9  C   LIG    1        2.741   4.460  -7.392  0.00  0.00    +0.106 A 
ATOM     10  C   LIG    1        3.647   3.796  -8.216  0.00  0.00    +0.030 A 
ATOM     11  C   LIG    1        4.992   4.149  -8.233  0.00  0.00    +0.024 A 
ATOM     12  C   LIG    1        5.479   5.102  -7.348  0.00  0.00    +0.025 A 
ATOM     13  C   LIG    1        4.600   5.646  -6.404  0.00  0.00    +0.024 A 
ATOM     14  C   LIG    1        3.224   5.373  -6.455  0.00  0.00    +0.030 A 
BRANCH  12  15
ATOM     15  N   LIG    1        6.861   5.291  -7.259  0.00  0.00    -0.358 N 
ATOM     16  H   LIG    1        7.353   5.111  -8.130  0.00  0.00    +0.142 HD
ATOM     17  H   LIG    1        7.138   6.168  -6.834  0.00  0.00    +0.142 HD
ENDBRANCH  12  15
ENDBRANCH   6   9
ENDBRANCH   5   6
BRANCH   5  18
ATOM     18  C   LIG    1        1.362   3.462 -10.316  0.00  0.00    +0.112 C 
BRANCH  18  20
ATOM     19  C   LIG    1        2.509   5.073 -11.912  0.00  0.00    +0.008 C 
ATOM     20  C   LIG    1        1.589   4.933 -10.695  0.00  0.00    -0.002 C 
ATOM     21  C   LIG    1        0.246   5.603 -10.972  0.00  0.00    +0.008 C 
ENDBRANCH  18  20
ENDBRANCH   5  18
ENDBRANCH   4   5
ENDBRANCH   1   4
BRANCH   1  22
ATOM     22  C   LIG    1        0.205  -0.384  -7.239  0.00  0.00    +0.110 C 
BRANCH  22  23
ATOM     23  N   LIG    1        1.625  -0.703  -7.109  0.00  0.00    -0.275 N 
ATOM     24  H   LIG    1        2.169  -0.153  -6.495  0.00  0.00    +0.152 HD
ATOM     25  C   LIG    1        2.148  -1.913  -7.421  0.00  0.00    +0.401 C 
ATOM     26  O   LIG    1        1.540  -2.809  -8.034  0.00  0.00    -0.227 OA
BRANCH  25  27
ATOM     27  O   LIG    1        3.434  -2.031  -7.001  0.00  0.00    -0.444 OA
BRANCH  27  28
ATOM     28  C   LIG    1        3.891  -3.391  -6.965  0.00  0.00    +0.212 C 
ATOM     29  C   LIG    1        5.223  -3.480  -6.255  0.00  0.00    +0.090 C 
ATOM     30  C   LIG    1        5.848  -4.720  -6.853  0.00  0.00    +0.257 C 
ATOM     31  O   LIG    1        7.260  -4.522  -6.887  0.00  0.00    -0.351 OA
ATOM     32  C   LIG    1        7.549  -3.182  -6.481  0.00  0.00    +0.163 C 
ATOM     33  O   LIG    1        5.325  -4.875  -8.173  0.00  0.00    -0.347 OA
ATOM     34  C   LIG    1        6.250  -2.407  -6.544  0.00  0.00    +0.040 C 
ATOM     35  C   LIG    1        4.165  -4.043  -8.316  0.00  0.00    +0.208 C 
ENDBRANCH  27  28
ENDBRANCH  25  27
ENDBRANCH  22  23
BRANCH  22  36
ATOM     36  C   LIG    1       -0.639  -0.932  -6.032  0.00  0.00    +0.060 C 
BRANCH  36  37
ATOM     37  C   LIG    1       -0.277  -0.532  -4.608  0.00  0.00    -0.045 A 
ATOM     38  C   LIG    1        0.661  -1.290  -3.892  0.00  0.00    +0.003 A 
ATOM     39  C   LIG    1        1.012  -0.949  -2.582  0.00  0.00    +0.000 A 
ATOM     40  C   LIG    1        0.446   0.168  -1.972  0.00  0.00    +0.000 A 
ATOM     41  C   LIG    1       -0.487   0.934  -2.665  0.00  0.00    +0.000 A 
ATOM     42  C   LIG    1       -0.864   0.575  -3.966  0.00  0.00    +0.003 A 
ENDBRANCH  36  37
ENDBRANCH  22  36
ENDBRANCH   1  22
TORSDOF 14
