REMARK  Name = *****
REMARK                            x       y       z     vdW  Elec       q    Type
REMARK                         _______ _______ _______ _____ _____    ______ ____
ROOT
ATOM      1  C   LIG    1        9.608  -4.335  -2.784  0.00  0.00    +0.197 C 
ATOM      2  O   LIG    1        9.487  -4.958  -1.721  0.00  0.00    -0.286 OA
ENDROOT
BRANCH   1   4
ATOM      3  C   LIG    1        9.165  -5.124  -5.530  0.00  0.00    +0.117 A 
ATOM      4  C   LIG    1        9.375  -5.283  -4.125  0.00  0.00    +0.071 A 
ATOM      5  C   LIG    1        9.180  -6.834  -4.014  0.00  0.00    +0.033 A 
ATOM      6  C   LIG    1        8.866  -7.367  -5.261  0.00  0.00    +0.136 A 
ATOM      7  C   LIG    1        8.603  -8.748  -5.511  0.00  0.00    +0.049 A 
ATOM      8  C   LIG    1        8.375  -9.573  -4.376  0.00  0.00    +0.028 A 
ATOM      9  C   LIG    1        8.527  -9.052  -3.091  0.00  0.00    +0.049 A 
ATOM     10  C   LIG    1        9.209  -7.811  -2.975  0.00  0.00    +0.036 A 
ATOM     11  O   LIG    1        8.883  -6.347  -6.152  0.00  0.00    -0.459 OA
BRANCH   9  12
ATOM     12  N   LIG    1        8.179  -9.768  -1.870  0.00  0.00    -0.221 N 
ATOM     13  H   LIG    1        8.807  -9.553  -1.102  0.00  0.00    +0.173 HD
BRANCH  12  14
ATOM     14  S   LIG    1        6.607  -9.948  -1.203  0.00  0.00    +0.040 S 
ATOM     15  O   LIG    1        6.766 -10.787  -0.026  0.00  0.00    -0.155 OA
ATOM     16  O   LIG    1        5.663 -10.315  -2.234  0.00  0.00    -0.155 OA
ATOM     17  C   LIG    1        6.102  -8.344  -0.556  0.00  0.00    +0.218 C 
ENDBRANCH  12  14
ENDBRANCH   9  12
BRANCH   3  18
ATOM     18  C   LIG    1        9.120  -4.068  -6.609  0.00  0.00    +0.075 C 
BRANCH  18  19
ATOM     19  C   LIG    1        9.449  -2.650  -6.239  0.00  0.00    +0.007 C 
BRANCH  19  21
ATOM     20  C   LIG    1       12.010  -2.802  -6.492  0.00  0.00    +0.004 C 
ATOM     21  C   LIG    1       10.851  -2.492  -5.606  0.00  0.00    -0.003 C 
ENDBRANCH  19  21
ENDBRANCH  18  19
ENDBRANCH   3  18
ENDBRANCH   1   4
BRANCH   1  22
ATOM     22  C   LIG    1        9.887  -2.758  -2.405  0.00  0.00    +0.023 A 
ATOM     23  C   LIG    1       10.149  -2.212  -1.015  0.00  0.00    +0.015 A 
ATOM     24  C   LIG    1       10.225  -0.771  -0.521  0.00  0.00    +0.046 A 
ATOM     25  C   LIG    1       10.265   0.350  -1.519  0.00  0.00    +0.120 A 
ATOM     26  C   LIG    1        9.891  -0.395  -2.985  0.00  0.00    +0.046 A 
ATOM     27  C   LIG    1        9.675  -1.751  -3.291  0.00  0.00    +0.015 A 
BRANCH  25  28
ATOM     28  O   LIG    1        9.006   1.886  -1.373  0.00  0.00    -0.492 OA
BRANCH  28  29
ATOM     29  C   LIG    1        7.751   1.305   0.095  0.00  0.00    +0.230 C 
BRANCH  29  30
ATOM     30  C   LIG    1        7.965   0.227   1.285  0.00  0.00    +0.056 C 
BRANCH  30  31
ATOM     31  C   LIG    1        7.204  -0.973   0.911  0.00  0.00    +0.088 C 
BRANCH  31  32
ATOM     32  N   LIG    1        7.480  -1.614  -0.344  0.00  0.00    -0.302 NA
BRANCH  32  33
ATOM     33  C   LIG    1        6.682  -2.811  -0.588  0.00  0.00    +0.084 C 
BRANCH  33  34
ATOM     34  C   LIG    1        5.141  -2.664  -0.726  0.00  0.00    +0.015 C 
BRANCH  34  35
ATOM     35  C   LIG    1        4.188  -2.021   0.327  0.00  0.00    -0.002 C 
ATOM     36  C   LIG    1        4.383  -2.249   1.836  0.00  0.00    +0.004 C 
ENDBRANCH  34  35
ENDBRANCH  33  34
ENDBRANCH  32  33
BRANCH  32  37
ATOM     37  C   LIG    1        7.437  -0.734  -1.476  0.00  0.00    +0.084 C 
BRANCH  37  38
ATOM     38  C   LIG    1        8.390   0.475  -1.428  0.00  0.00    +0.015 C 
BRANCH  38  39
ATOM     39  C   LIG    1        9.438   1.672   0.007  0.00  0.00    -0.002 C 
ATOM     40  C   LIG    1        8.134   3.254  -0.076  0.00  0.00    +0.004 C 
ENDBRANCH  38  39
ENDBRANCH  37  38
ENDBRANCH  32  37
ENDBRANCH  31  32
ENDBRANCH  30  31
ENDBRANCH  29  30
ENDBRANCH  28  29
ENDBRANCH  25  28
ENDBRANCH   1  22
TORSDOF 18
