REMARK  Name = *****
REMARK                            x       y       z     vdW  Elec       q    Type
REMARK                         _______ _______ _______ _____ _____    ______ ____
ROOT
ATOM      1  C   LIG    1        3.121  -0.158   1.757  0.00  0.00    -0.031 A 
ATOM      2  C   LIG    1        3.508  -1.451   2.128  0.00  0.00    +0.043 A 
ATOM      3  C   LIG    1        4.070  -1.701   3.386  0.00  0.00    +0.131 A 
ATOM      4  F   LIG    1        4.393  -2.975   3.661  0.00  0.00    -0.205 F 
ATOM      5  C   LIG    1        4.271  -0.685   4.336  0.00  0.00    +0.017 A 
ATOM      6  C   LIG    1        3.868   0.608   3.946  0.00  0.00    +0.012 A 
ATOM      7  C   LIG    1        3.312   0.872   2.684  0.00  0.00    +0.005 A 
ENDROOT
BRANCH   5   8
ATOM      8  C   LIG    1        4.877  -0.936   5.675  0.00  0.00    -0.015 A 
ATOM      9  C   LIG    1        5.825  -1.955   5.888  0.00  0.00    +0.008 A 
ATOM     10  C   LIG    1        6.400  -2.179   7.145  0.00  0.00    +0.001 A 
ATOM     11  C   LIG    1        6.043  -1.386   8.229  0.00  0.00    +0.000 A 
ATOM     12  C   LIG    1        5.112  -0.369   8.054  0.00  0.00    +0.001 A 
ATOM     13  C   LIG    1        4.539  -0.149   6.795  0.00  0.00    +0.008 A 
ENDBRANCH   5   8
BRANCH   1  15
ATOM     14  C   LIG    1        3.382   0.955  -0.495  0.00  0.00    +0.024 C 
ATOM     15  C   LIG    1        2.485   0.087   0.395  0.00  0.00    +0.124 C 
BRANCH  15  16
ATOM     16  C   LIG    1        1.076   0.683   0.449  0.00  0.00    +0.312 C 
ATOM     17  O   LIG    1        0.601   1.386  -0.430  0.00  0.00    -0.250 OA
BRANCH  16  18
ATOM     18  O   LIG    1        0.335   0.318   1.522  0.00  0.00    -0.480 OA
ATOM     19  H   LIG    1        0.796  -0.256   2.163  0.00  0.00    +0.295 HD
ENDBRANCH  16  18
ENDBRANCH  15  16
ENDBRANCH   1  15
TORSDOF 4
