REMARK  Name = *****
REMARK                            x       y       z     vdW  Elec       q    Type
REMARK                         _______ _______ _______ _____ _____    ______ ____
ROOT
ATOM      1  C   LIG    1        2.348   0.517  -0.448  0.00  0.00    +0.195 C 
ATOM      2  N   LIG    1        2.249   1.778   0.106  0.00  0.00    -0.293 N 
ATOM      3  H   LIG    1        1.366   2.263   0.110  0.00  0.00    +0.172 HD
ATOM      4  C   LIG    1        3.318   2.491   0.621  0.00  0.00    +0.280 C 
ATOM      5  O   LIG    1        3.167   3.618   1.119  0.00  0.00    -0.265 OA
ATOM      6  C   LIG    1        4.570   1.782   0.506  0.00  0.00    +0.172 A 
ATOM      7  N   LIG    1        5.854   2.164   0.802  0.00  0.00    -0.229 NA
ATOM      8  C   LIG    1        6.592   1.125   0.466  0.00  0.00    +0.203 A 
ATOM      9  N   LIG    1        5.830   0.076   0.022  0.00  0.00    -0.291 N 
ATOM     10  C   LIG    1        4.530   0.508  -0.022  0.00  0.00    +0.171 A 
ATOM     11  N   LIG    1        3.461  -0.165  -0.505  0.00  0.00    -0.196 NA
ENDROOT
BRANCH   1  12
ATOM     12  N   LIG    1        1.204  -0.006  -0.955  0.00  0.00    -0.329 N 
ATOM     13  H   LIG    1        0.335   0.221  -0.490  0.00  0.00    +0.145 HD
ATOM     14  H   LIG    1        1.292  -0.990  -1.188  0.00  0.00    +0.145 HD
ENDBRANCH   1  12
BRANCH   9  15
ATOM     15  C   LIG    1        6.281  -1.264  -0.319  0.00  0.00    +0.287 C 
BRANCH  15  16
ATOM     16  O   LIG    1        7.622  -1.225  -0.824  0.00  0.00    -0.351 OA
BRANCH  16  17
ATOM     17  C   LIG    1        8.164  -2.536  -1.122  0.00  0.00    +0.171 C 
BRANCH  17  18
ATOM     18  C   LIG    1        9.610  -2.326  -1.613  0.00  0.00    +0.189 C 
BRANCH  18  19
ATOM     19  O   LIG    1        9.643  -1.484  -2.766  0.00  0.00    -0.392 OA
ATOM     20  H   LIG    1        9.253  -0.633  -2.485  0.00  0.00    +0.209 HD
ENDBRANCH  18  19
ENDBRANCH  17  18
BRANCH  17  21
ATOM     21  C   LIG    1        7.375  -3.295  -2.210  0.00  0.00    +0.189 C 
BRANCH  21  22
ATOM     22  O   LIG    1        6.062  -3.638  -1.768  0.00  0.00    -0.392 OA
ATOM     23  H   LIG    1        5.555  -3.892  -2.561  0.00  0.00    +0.209 HD
ENDBRANCH  21  22
ENDBRANCH  17  21
ENDBRANCH  16  17
ENDBRANCH  15  16
ENDBRANCH   9  15
TORSDOF 8
