REMARK  Name = *****
REMARK                            x       y       z     vdW  Elec       q    Type
REMARK                         _______ _______ _______ _____ _____    ______ ____
ROOT
ATOM      1  C   LIG    1       -3.610   1.617   0.150  0.00  0.00    +0.042 C 
ATOM      2  C   LIG    1       -2.697   0.395   0.116  0.00  0.00    +0.069 C 
ATOM      3  C   LIG    1       -3.231  -0.848  -0.674  0.00  0.00    -0.000 C 
ATOM      4  C   LIG    1       -4.716  -1.145  -0.345  0.00  0.00    +0.014 C 
ATOM      5  C   LIG    1       -2.376  -2.038  -0.088  0.00  0.00    +0.001 C 
ATOM      6  C   LIG    1       -1.244  -2.549  -0.992  0.00  0.00    -0.004 C 
ATOM      7  C   LIG    1       -1.699  -2.671  -2.454  0.00  0.00    -0.001 C 
ATOM      8  C   LIG    1       -2.038  -1.257  -2.932  0.00  0.00    +0.005 C 
ATOM      9  C   LIG    1       -2.388  -4.075  -2.988  0.00  0.00    -0.022 C 
ATOM     10  C   LIG    1       -2.817  -3.717  -4.454  0.00  0.00    +0.012 C 
ATOM     11  C   LIG    1       -0.990  -4.894  -2.732  0.00  0.00    +0.001 C 
ATOM     12  C   LIG    1       -0.794  -6.434  -3.018  0.00  0.00    +0.059 C 
ATOM     13  C   LIG    1       -2.021  -7.126  -2.654  0.00  0.00    +0.040 A 
ATOM     14  C   LIG    1       -3.265  -6.563  -2.426  0.00  0.00    -0.006 A 
ATOM     15  C   LIG    1       -3.999  -7.698  -1.989  0.00  0.00    +0.138 A 
ATOM     16  N   LIG    1       -3.253  -8.808  -1.862  0.00  0.00    -0.182 NA
ATOM     17  N   LIG    1       -2.029  -8.412  -2.218  0.00  0.00    -0.281 N 
ATOM     18  H   LIG    1       -1.233  -9.030  -2.075  0.00  0.00    +0.189 HD
ATOM     19  C   LIG    1       -1.122  -5.027  -1.181  0.00  0.00    +0.005 C 
ATOM     20  C   LIG    1       -3.616  -5.029  -2.482  0.00  0.00    +0.045 C 
ATOM     21  C   LIG    1       -0.538  -3.809  -0.504  0.00  0.00    +0.004 C 
ATOM     22  C   LIG    1       -1.800  -1.519   1.259  0.00  0.00    +0.007 C 
ATOM     23  C   LIG    1       -3.202  -0.642  -2.210  0.00  0.00    +0.010 C 
ATOM     24  C   LIG    1       -2.445  -0.163   1.518  0.00  0.00    +0.035 C 
ENDROOT
BRANCH   2  25
ATOM     25  O   LIG    1       -1.459   0.868  -0.429  0.00  0.00    -0.388 OA
ATOM     26  H   LIG    1       -0.804   0.153  -0.422  0.00  0.00    +0.210 HD
ENDBRANCH   2  25
TORSDOF 1
