REMARK  Name = *****
REMARK                            x       y       z     vdW  Elec       q    Type
REMARK                         _______ _______ _______ _____ _____    ______ ____
ROOT
ATOM      1  C   LIG    1        0.991  -3.604  -0.474  0.00  0.00    +0.089 C 
ENDROOT
BRANCH   1   2
ATOM      2  N   LIG    1        2.034  -3.865  -1.486  0.00  0.00    -0.302 NA
ATOM      3  C   LIG    1        2.000  -5.269  -1.942  0.00  0.00    +0.085 C 
ATOM      4  C   LIG    1        0.679  -5.638  -2.618  0.00  0.00    +0.025 C 
ATOM      5  C   LIG    1        0.343  -4.675  -3.769  0.00  0.00    +0.044 C 
ATOM      6  C   LIG    1        0.646  -3.196  -3.447  0.00  0.00    +0.025 C 
ATOM      7  C   LIG    1        1.935  -2.991  -2.651  0.00  0.00    +0.085 C 
BRANCH   5   8
ATOM      8  C   LIG    1       -1.077  -4.863  -4.245  0.00  0.00    +0.095 A 
ATOM      9  C   LIG    1       -2.314  -4.597  -3.580  0.00  0.00    +0.045 A 
ATOM     10  C   LIG    1       -3.274  -4.937  -4.521  0.00  0.00    +0.170 A 
ATOM     11  C   LIG    1       -4.649  -4.824  -4.330  0.00  0.00    +0.088 A 
ATOM     12  C   LIG    1       -5.049  -4.333  -3.090  0.00  0.00    +0.127 A 
ATOM     13  C   LIG    1       -4.131  -3.985  -2.102  0.00  0.00    +0.039 A 
ATOM     14  F   LIG    1       -6.357  -4.191  -2.838  0.00  0.00    -0.205 F 
ATOM     15  O   LIG    1       -2.661  -5.389  -5.645  0.00  0.00    -0.354 OA
ATOM     16  C   LIG    1       -2.753  -4.113  -2.332  0.00  0.00    +0.016 A 
ATOM     17  N   LIG    1       -1.289  -5.347  -5.478  0.00  0.00    -0.082 NA
ENDBRANCH   5   8
ENDBRANCH   1   2
BRANCH   1  18
ATOM     18  C   LIG    1        1.024  -2.211   0.202  0.00  0.00    +0.058 C 
BRANCH  18  21
ATOM     19  C   LIG    1       -0.357   0.544   0.717  0.00  0.00    +0.066 C 
ATOM     20  C   LIG    1       -0.649  -0.738   1.471  0.00  0.00    +0.049 C 
ATOM     21  C   LIG    1       -0.065  -1.930   1.230  0.00  0.00    +0.039 C 
ATOM     22  C   LIG    1       -0.565  -3.079   2.053  0.00  0.00    +0.258 C 
ATOM     23  O   LIG    1       -0.112  -4.203   1.935  0.00  0.00    -0.267 OA
ATOM     24  N   LIG    1       -1.601  -2.826   2.919  0.00  0.00    -0.294 N 
ATOM     25  C   LIG    1       -2.314  -3.986   3.438  0.00  0.00    +0.127 C 
ATOM     26  C   LIG    1       -3.114  -3.732   4.700  0.00  0.00    +0.025 C 
ATOM     27  C   LIG    1       -3.918  -2.450   4.552  0.00  0.00    +0.041 C 
ATOM     28  C   LIG    1       -2.988  -1.281   4.280  0.00  0.00    +0.180 C 
ATOM     29  C   LIG    1       -2.028  -1.546   3.122  0.00  0.00    +0.141 C 
ATOM     30  N   LIG    1       -1.577  -0.527   2.461  0.00  0.00    -0.236 NA
BRANCH  28  31
ATOM     31  O   LIG    1       -2.194  -1.035   5.442  0.00  0.00    -0.384 OA
ATOM     32  H   LIG    1       -1.587  -0.308   5.206  0.00  0.00    +0.210 HD
ENDBRANCH  28  31
ENDBRANCH  18  21
ENDBRANCH   1  18
TORSDOF 5
