REMARK  Name = *****
REMARK                            x       y       z     vdW  Elec       q    Type
REMARK                         _______ _______ _______ _____ _____    ______ ____
ROOT
ATOM      1  C   LIG    1        2.705  -1.533   0.956  0.00  0.00    +0.042 C 
ATOM      2  C   LIG    1        3.237  -1.969   2.335  0.00  0.00    +0.069 C 
ATOM      3  C   LIG    1        4.673  -2.069   3.048  0.00  0.00    +0.002 C 
ATOM      4  C   LIG    1        4.805  -0.739   3.805  0.00  0.00    +0.004 C 
ATOM      5  C   LIG    1        5.348   0.372   2.846  0.00  0.00    +0.034 C 
ATOM      6  C   LIG    1        6.872   0.094   2.632  0.00  0.00    +0.149 C 
ATOM      7  C   LIG    1        7.066  -1.316   2.022  0.00  0.00    +0.153 C 
ATOM      8  F   LIG    1        7.362  -0.059   3.948  0.00  0.00    -0.238 F 
ATOM      9  C   LIG    1        7.798   1.294   2.085  0.00  0.00    +0.026 C 
ATOM     10  C   LIG    1        7.342   2.493   2.936  0.00  0.00    -0.057 C 
ATOM     11  C   LIG    1        8.238   3.448   3.241  0.00  0.00    +0.046 C 
ATOM     12  C   LIG    1        8.262   4.255   1.980  0.00  0.00    +0.156 C 
ATOM     13  C   LIG    1        8.445   3.432   0.684  0.00  0.00    +0.080 C 
ATOM     14  O   LIG    1        8.235   5.489   2.016  0.00  0.00    -0.293 OA
ATOM     15  C   LIG    1        5.875   2.835   2.759  0.00  0.00    +0.032 C 
ATOM     16  C   LIG    1        9.290   0.841   2.191  0.00  0.00    +0.019 C 
ATOM     17  C   LIG    1        7.763   1.982   0.664  0.00  0.00    +0.022 C 
ATOM     18  C   LIG    1        5.053   1.755   3.448  0.00  0.00    +0.011 C 
ATOM     19  C   LIG    1        3.414  -0.567   4.405  0.00  0.00    +0.007 C 
ATOM     20  C   LIG    1        4.507  -3.228   4.141  0.00  0.00    +0.014 C 
ATOM     21  C   LIG    1        6.000  -2.416   2.333  0.00  0.00    +0.044 C 
ATOM     22  C   LIG    1        2.476  -0.976   3.284  0.00  0.00    +0.035 C 
ENDROOT
BRANCH   2  23
ATOM     23  O   LIG    1        2.748  -3.327   2.340  0.00  0.00    -0.388 OA
ATOM     24  H   LIG    1        3.311  -3.828   1.702  0.00  0.00    +0.210 HD
ENDBRANCH   2  23
BRANCH   7  25
ATOM     25  O   LIG    1        8.318  -1.846   2.545  0.00  0.00    -0.389 OA
ATOM     26  H   LIG    1        8.334  -1.600   3.501  0.00  0.00    +0.210 HD
ENDBRANCH   7  25
TORSDOF 2
