REMARK  Name = *****
REMARK                            x       y       z     vdW  Elec       q    Type
REMARK                         _______ _______ _______ _____ _____    ______ ____
ROOT
ATOM      1  S   LIG    1        7.895  -5.082   4.231  0.00  0.00    +0.025 S 
ATOM      2  O   LIG    1        8.127  -4.931   5.662  0.00  0.00    -0.164 OA
ATOM      3  O   LIG    1        9.005  -5.028   3.298  0.00  0.00    -0.164 OA
ENDROOT
BRANCH   1   7
ATOM      4  C   LIG    1        4.888  -1.796   3.092  0.00  0.00    +0.028 A 
ATOM      5  C   LIG    1        4.639  -2.667   4.162  0.00  0.00    +0.025 A 
ATOM      6  C   LIG    1        5.554  -3.666   4.513  0.00  0.00    +0.029 A 
ATOM      7  C   LIG    1        6.722  -3.829   3.769  0.00  0.00    +0.094 A 
ATOM      8  C   LIG    1        6.971  -3.010   2.668  0.00  0.00    +0.029 A 
ATOM      9  C   LIG    1        6.046  -2.015   2.328  0.00  0.00    +0.025 A 
BRANCH   4  10
ATOM     10  N   LIG    1        3.974  -0.818   2.672  0.00  0.00    -0.325 N 
ATOM     11  H   LIG    1        4.407  -0.144   2.039  0.00  0.00    +0.148 HD
BRANCH  10  12
ATOM     12  C   LIG    1        3.206  -0.124   3.704  0.00  0.00    +0.278 C 
BRANCH  12  14
ATOM     13  O   LIG    1        2.972   2.224   2.351  0.00  0.00    -0.165 OA
ATOM     14  S   LIG    1        2.118   1.099   2.854  0.00  0.00    +0.012 S 
BRANCH  14  15
ATOM     15  O   LIG    1        1.475   1.651   4.219  0.00  0.00    -0.268 OA
ATOM     16  H   LIG    1        1.577   2.634   4.199  0.00  0.00    +0.243 HD
ENDBRANCH  14  15
ENDBRANCH  12  14
ENDBRANCH  10  12
ENDBRANCH   4  10
ENDBRANCH   1   7
BRANCH   1  17
ATOM     17  C   LIG    1        7.080  -6.642   3.983  0.00  0.00    +0.094 A 
ATOM     18  C   LIG    1        6.364  -7.221   5.031  0.00  0.00    +0.029 A 
ATOM     19  C   LIG    1        5.679  -8.420   4.818  0.00  0.00    +0.025 A 
ATOM     20  C   LIG    1        5.735  -9.078   3.582  0.00  0.00    +0.028 A 
ATOM     21  C   LIG    1        6.467  -8.473   2.547  0.00  0.00    +0.025 A 
ATOM     22  C   LIG    1        7.159  -7.275   2.745  0.00  0.00    +0.029 A 
BRANCH  20  23
ATOM     23  N   LIG    1        4.991 -10.228   3.290  0.00  0.00    -0.325 N 
ATOM     24  H   LIG    1        5.341 -10.703   2.462  0.00  0.00    +0.148 HD
BRANCH  23  25
ATOM     25  C   LIG    1        4.700 -11.156   4.378  0.00  0.00    +0.278 C 
BRANCH  25  26
ATOM     26  S   LIG    1        3.780 -12.597   3.686  0.00  0.00    +0.012 S 
ATOM     27  O   LIG    1        3.496 -13.550   4.807  0.00  0.00    -0.165 OA
BRANCH  26  28
ATOM     28  O   LIG    1        2.405 -11.795   3.474  0.00  0.00    -0.268 OA
ATOM     29  H   LIG    1        1.715 -12.280   3.987  0.00  0.00    +0.243 HD
ENDBRANCH  26  28
ENDBRANCH  25  26
ENDBRANCH  23  25
ENDBRANCH  20  23
ENDBRANCH   1  17
TORSDOF 10
