REMARK  Name = *****
REMARK                            x       y       z     vdW  Elec       q    Type
REMARK                         _______ _______ _______ _____ _____    ______ ____
ROOT
ATOM      1  C   LIG    1       -0.405   2.216  11.909  0.00  0.00    +0.178 C 
ATOM      2  C   LIG    1       -1.649   2.301  11.000  0.00  0.00    +0.151 C 
ATOM      3  C   LIG    1       -1.285   2.929   9.677  0.00  0.00    +0.095 C 
ATOM      4  C   LIG    1       -0.030   2.285   9.104  0.00  0.00    +0.253 C 
ATOM      5  O   LIG    1        0.451   1.168   9.837  0.00  0.00    -0.346 OA
ATOM      6  C   LIG    1        0.617   1.286  11.242  0.00  0.00    +0.150 C 
ATOM      7  C   LIG    1        0.490  -0.116  11.835  0.00  0.00    +0.040 C 
ENDROOT
BRANCH   2   8
ATOM      8  O   LIG    1       -2.718   3.077  11.556  0.00  0.00    -0.389 OA
ATOM      9  H   LIG    1       -2.607   3.091  12.526  0.00  0.00    +0.210 HD
ENDBRANCH   2   8
BRANCH   1  10
ATOM     10  O   LIG    1        0.173   3.519  12.109  0.00  0.00    -0.343 OA
BRANCH  10  14
ATOM     11  C   LIG    1        2.063   4.702  15.601  0.00  0.00    +0.178 C 
ATOM     12  C   LIG    1        1.242   5.477  14.546  0.00  0.00    +0.151 C 
ATOM     13  C   LIG    1        1.699   4.987  13.181  0.00  0.00    +0.095 C 
ATOM     14  C   LIG    1        1.270   3.532  13.043  0.00  0.00    +0.254 C 
ATOM     15  O   LIG    1        0.863   2.939  14.274  0.00  0.00    -0.346 OA
ATOM     16  C   LIG    1        1.714   3.191  15.407  0.00  0.00    +0.150 C 
ATOM     17  C   LIG    1        0.951   2.631  16.603  0.00  0.00    +0.040 C 
BRANCH  12  18
ATOM     18  O   LIG    1        1.299   6.887  14.697  0.00  0.00    -0.389 OA
ATOM     19  H   LIG    1        1.874   7.236  13.986  0.00  0.00    +0.210 HD
ENDBRANCH  12  18
BRANCH  11  20
ATOM     20  O   LIG    1        3.498   4.753  15.410  0.00  0.00    -0.343 OA
BRANCH  20  26
ATOM     21  C   LIG    1        3.869   9.115  13.681  0.00  0.00    +0.040 C 
ATOM     22  C   LIG    1        4.513   8.177  14.695  0.00  0.00    +0.149 C 
ATOM     23  C   LIG    1        5.994   7.929  14.387  0.00  0.00    +0.171 C 
ATOM     24  C   LIG    1        6.552   6.905  15.386  0.00  0.00    +0.150 C 
ATOM     25  C   LIG    1        5.676   5.660  15.443  0.00  0.00    +0.095 C 
ATOM     26  C   LIG    1        4.181   5.996  15.607  0.00  0.00    +0.254 C 
ATOM     27  O   LIG    1        3.813   6.932  14.602  0.00  0.00    -0.346 OA
BRANCH  23  28
ATOM     28  O   LIG    1        6.757   9.133  14.450  0.00  0.00    -0.387 OA
ATOM     29  H   LIG    1        6.887   9.318  15.402  0.00  0.00    +0.210 HD
ENDBRANCH  23  28
BRANCH  24  30
ATOM     30  O   LIG    1        6.618   7.520  16.681  0.00  0.00    -0.389 OA
ATOM     31  H   LIG    1        7.230   6.988  17.223  0.00  0.00    +0.210 HD
ENDBRANCH  24  30
ENDBRANCH  20  26
ENDBRANCH  11  20
ENDBRANCH  10  14
ENDBRANCH   1  10
BRANCH   4  32
ATOM     32  O   LIG    1       -0.234   1.902   7.736  0.00  0.00    -0.348 OA
BRANCH  32  33
ATOM     33  C   LIG    1       -1.147   0.814   7.476  0.00  0.00    +0.122 C 
ATOM     34  C   LIG    1       -0.742  -0.531   8.101  0.00  0.00    +0.035 C 
ATOM     35  C   LIG    1        0.685  -0.889   7.663  0.00  0.00    -0.002 C 
ATOM     36  C   LIG    1        1.270  -2.065   8.462  0.00  0.00    +0.004 C 
ATOM     37  C   LIG    1        2.579  -2.605   7.864  0.00  0.00    +0.007 C 
ATOM     38  C   LIG    1        3.265  -1.549   7.007  0.00  0.00    +0.025 C 
ATOM     39  C   LIG    1        4.677  -1.793   6.473  0.00  0.00    +0.075 C 
ATOM     40  C   LIG    1        4.798  -2.992   5.491  0.00  0.00    +0.004 C 
ATOM     41  C   LIG    1        4.830  -4.403   6.183  0.00  0.00    +0.014 C 
ATOM     42  C   LIG    1        6.264  -2.779   4.958  0.00  0.00    +0.027 C 
ATOM     43  C   LIG    1        7.004  -2.317   6.277  0.00  0.00    +0.011 C 
ATOM     44  C   LIG    1        3.600  -3.042   4.517  0.00  0.00    +0.010 C 
ATOM     45  C   LIG    1        2.750  -1.771   4.427  0.00  0.00    +0.005 C 
ATOM     46  C   LIG    1        5.912  -1.968   7.341  0.00  0.00    +0.036 C 
ATOM     47  C   LIG    1        2.349  -1.126   5.788  0.00  0.00    +0.001 C 
ATOM     48  C   LIG    1        0.808  -1.073   6.125  0.00  0.00    -0.026 C 
ATOM     49  C   LIG    1        0.036  -2.333   5.667  0.00  0.00    +0.012 C 
ATOM     50  C   LIG    1        0.185   0.172   5.406  0.00  0.00    +0.009 C 
ATOM     51  C   LIG    1       -1.181   0.613   5.953  0.00  0.00    +0.032 C 
BRANCH  42  52
ATOM     52  C   LIG    1        6.466  -1.878   3.753  0.00  0.00    -0.022 C 
ATOM     53  C   LIG    1        6.433  -2.414   2.377  0.00  0.00    +0.264 C 
ATOM     54  O   LIG    1        6.561  -1.228   1.533  0.00  0.00    -0.457 OA
ATOM     55  C   LIG    1        6.740  -0.119   2.258  0.00  0.00    +0.332 C 
ATOM     56  O   LIG    1        6.837   1.000   1.869  0.00  0.00    -0.246 OA
ATOM     57  C   LIG    1        6.726  -0.567   3.687  0.00  0.00    +0.094 C 
ENDBRANCH  42  52
BRANCH  39  58
ATOM     58  O   LIG    1        4.956  -0.535   5.805  0.00  0.00    -0.388 OA
ATOM     59  H   LIG    1        5.001   0.167   6.481  0.00  0.00    +0.210 HD
ENDBRANCH  39  58
ENDBRANCH  32  33
ENDBRANCH   4  32
TORSDOF 12
