REMARK  Name = *****
REMARK                            x       y       z     vdW  Elec       q    Type
REMARK                         _______ _______ _______ _____ _____    ______ ____
ROOT
ATOM      1  N   LIG    1        8.361   4.321  -0.292  0.00  0.00    -0.314 NA
ATOM      2  H   LIG    1        8.369   5.088   0.380  0.00  0.00    +0.122 HD
ENDROOT
BRANCH   1   3
ATOM      3  C   LIG    1        7.215   4.509  -1.186  0.00  0.00    +0.096 C 
BRANCH   3   4
ATOM      4  C   LIG    1        5.843   4.553  -0.494  0.00  0.00    +0.096 C 
BRANCH   4   5
ATOM      5  N   LIG    1        4.688   4.719  -1.393  0.00  0.00    -0.314 NA
ATOM      6  H   LIG    1        3.835   4.600  -0.844  0.00  0.00    +0.122 HD
BRANCH   5   7
ATOM      7  C   LIG    1        4.615   6.017  -2.104  0.00  0.00    +0.096 C 
BRANCH   7   8
ATOM      8  C   LIG    1        5.650   6.319  -3.192  0.00  0.00    +0.092 C 
BRANCH   8   9
ATOM      9  N   LIG    1        5.812   5.232  -4.150  0.00  0.00    -0.329 NA
ATOM     10  H   LIG    1        4.970   5.128  -4.713  0.00  0.00    +0.118 HD
ATOM     11  H   LIG    1        6.589   5.416  -4.780  0.00  0.00    +0.118 HD
ENDBRANCH   8   9
ENDBRANCH   7   8
ENDBRANCH   5   7
ENDBRANCH   4   5
ENDBRANCH   3   4
ENDBRANCH   1   3
BRANCH   1  12
ATOM     12  C   LIG    1        9.619   4.354  -1.068  0.00  0.00    +0.096 C 
BRANCH  12  13
ATOM     13  C   LIG    1        9.924   5.646  -1.886  0.00  0.00    +0.096 C 
BRANCH  13  14
ATOM     14  N   LIG    1       11.197   5.651  -2.620  0.00  0.00    -0.314 NA
ATOM     15  H   LIG    1       11.189   4.942  -3.357  0.00  0.00    +0.122 HD
BRANCH  14  16
ATOM     16  C   LIG    1       12.361   5.415  -1.766  0.00  0.00    +0.096 C 
BRANCH  16  17
ATOM     17  C   LIG    1       13.697   5.474  -2.538  0.00  0.00    +0.092 C 
BRANCH  17  18
ATOM     18  N   LIG    1       13.827   4.428  -3.558  0.00  0.00    -0.329 NA
ATOM     19  H   LIG    1       14.770   4.471  -3.946  0.00  0.00    +0.118 HD
ATOM     20  H   LIG    1       13.747   3.511  -3.121  0.00  0.00    +0.118 HD
ENDBRANCH  17  18
ENDBRANCH  16  17
ENDBRANCH  14  16
ENDBRANCH  13  14
ENDBRANCH  12  13
ENDBRANCH   1  12
TORSDOF 12
