REMARK  Name = *****
REMARK                            x       y       z     vdW  Elec       q    Type
REMARK                         _______ _______ _______ _____ _____    ______ ____
ROOT
ATOM      1  O   LIG    1        1.145   0.176   0.206  0.00  0.00    -0.149 OA
ATOM      2  S   LIG    1        2.559   0.013   0.046  0.00  0.00    +0.065 S 
ATOM      3  S   LIG    1        2.960  -1.249  -1.200  0.00  0.00    +0.105 S 
ENDROOT
BRANCH   2   4
ATOM      4  O   LIG    1        3.133  -0.352   1.491  0.00  0.00    -0.255 OA
ATOM      5  H   LIG    1        2.444  -0.175   2.162  0.00  0.00    +0.244 HD
ENDBRANCH   2   4
BRANCH   2   6
ATOM      6  O   LIG    1        3.133   1.453  -0.340  0.00  0.00    -0.255 OA
ATOM      7  H   LIG    1        2.444   2.127  -0.171  0.00  0.00    +0.244 HD
ENDBRANCH   2   6
TORSDOF 2
