REMARK  Name = *****
REMARK                            x       y       z     vdW  Elec       q    Type
REMARK                         _______ _______ _______ _____ _____    ______ ____
ROOT
ATOM      1  C   LIG    1        6.452  -1.479   0.505  0.00  0.00    +0.069 C 
ENDROOT
BRANCH   1   2
ATOM      2  C   LIG    1        5.528  -1.345   1.728  0.00  0.00    -0.038 A 
ATOM      3  C   LIG    1        4.224  -1.867   1.697  0.00  0.00    +0.004 A 
ATOM      4  C   LIG    1        3.366  -1.724   2.796  0.00  0.00    +0.000 A 
ATOM      5  C   LIG    1        3.794  -1.059   3.943  0.00  0.00    +0.000 A 
ATOM      6  C   LIG    1        5.086  -0.550   3.999  0.00  0.00    +0.000 A 
ATOM      7  C   LIG    1        5.945  -0.701   2.909  0.00  0.00    +0.004 A 
ENDBRANCH   1   2
BRANCH   1   8
ATOM      8  C   LIG    1        7.271  -2.770   0.520  0.00  0.00    +0.049 A 
ATOM      9  N   LIG    1        8.118  -2.978   1.564  0.00  0.00    -0.259 NA
ATOM     10  C   LIG    1        8.869  -4.105   1.554  0.00  0.00    +0.111 A 
ATOM     11  C   LIG    1        8.850  -5.038   0.531  0.00  0.00    +0.020 A 
ATOM     12  C   LIG    1        7.999  -4.811  -0.539  0.00  0.00    +0.003 A 
ATOM     13  C   LIG    1        7.193  -3.671  -0.546  0.00  0.00    +0.024 A 
ENDBRANCH   1   8
BRANCH   1  14
ATOM     14  C   LIG    1        7.362  -0.230   0.337  0.00  0.00    +0.029 C 
BRANCH  14  15
ATOM     15  C   LIG    1        8.198  -0.208  -0.953  0.00  0.00    +0.085 C 
BRANCH  15  17
ATOM     16  C   LIG    1       10.012   1.122   0.015  0.00  0.00    +0.104 C 
ATOM     17  N   LIG    1        9.047   1.000  -1.082  0.00  0.00    -0.308 NA
ATOM     18  C   LIG    1        9.758   0.967  -2.364  0.00  0.00    +0.104 C 
ENDBRANCH  15  17
ENDBRANCH  14  15
ENDBRANCH   1  14
TORSDOF 5
