REMARK  Name = *****
REMARK                            x       y       z     vdW  Elec       q    Type
REMARK                         _______ _______ _______ _____ _____    ______ ____
ROOT
ATOM      1  C   LIG    1        2.809   0.289   0.065  0.00  0.00    +0.059 C 
ATOM      2  C   LIG    1        3.100  -0.911  -0.812  0.00  0.00    +0.037 C 
ATOM      3  C   LIG    1        2.921   0.462  -1.418  0.00  0.00    +0.029 C 
ENDROOT
BRANCH   2   4
ATOM      4  C   LIG    1        4.454  -1.584  -0.849  0.00  0.00    -0.043 A 
ATOM      5  C   LIG    1        5.174  -1.718  -2.049  0.00  0.00    +0.004 A 
ATOM      6  C   LIG    1        6.416  -2.358  -2.087  0.00  0.00    +0.000 A 
ATOM      7  C   LIG    1        6.962  -2.889  -0.922  0.00  0.00    +0.000 A 
ATOM      8  C   LIG    1        6.265  -2.782   0.277  0.00  0.00    +0.000 A 
ATOM      9  C   LIG    1        5.023  -2.142   0.308  0.00  0.00    +0.004 A 
ENDBRANCH   2   4
BRANCH   1  10
ATOM     10  N   LIG    1        3.824   0.897   0.927  0.00  0.00    -0.327 NA
ATOM     11  H   LIG    1        4.763   0.697   0.580  0.00  0.00    +0.118 HD
ATOM     12  H   LIG    1        3.736   1.912   0.924  0.00  0.00    +0.118 HD
ENDBRANCH   1  10
TORSDOF 2
