REMARK  Name = *****
REMARK                            x       y       z     vdW  Elec       q    Type
REMARK                         _______ _______ _______ _____ _____    ______ ____
ROOT
ATOM      1  O   LIG    1        3.024   0.786   0.123  0.00  0.00    -0.275 OA
ATOM      2  C   LIG    1        3.241  -0.339  -0.331  0.00  0.00    +0.219 C 
ATOM      3  N   LIG    1        3.958  -1.282   0.407  0.00  0.00    -0.290 N 
ATOM      4  C   LIG    1        4.727  -2.366  -0.198  0.00  0.00    +0.135 C 
ATOM      5  C   LIG    1        5.040  -3.517   0.785  0.00  0.00    +0.124 C 
ATOM      6  N   LIG    1        5.602  -3.019   2.045  0.00  0.00    -0.291 N 
ATOM      7  C   LIG    1        6.042  -4.070   2.949  0.00  0.00    +0.113 C 
ATOM      8  C   LIG    1        4.827  -4.860   3.438  0.00  0.00    +0.054 C 
ATOM      9  C   LIG    1        3.864  -5.193   2.314  0.00  0.00    -0.041 A 
ATOM     10  C   LIG    1        2.865  -6.150   2.554  0.00  0.00    +0.004 A 
ATOM     11  C   LIG    1        1.949  -6.482   1.561  0.00  0.00    +0.000 A 
ATOM     12  C   LIG    1        2.026  -5.867   0.316  0.00  0.00    +0.000 A 
ATOM     13  C   LIG    1        3.011  -4.909   0.066  0.00  0.00    +0.006 A 
ATOM     14  C   LIG    1        5.146  -1.833   2.615  0.00  0.00    +0.234 C 
ATOM     15  O   LIG    1        5.377  -1.548   3.792  0.00  0.00    -0.274 OA
ATOM     16  C   LIG    1        3.924  -4.527   1.063  0.00  0.00    -0.022 A 
ATOM     17  C   LIG    1        4.475  -0.810   1.690  0.00  0.00    +0.203 C 
ENDROOT
BRANCH   2  18
ATOM     18  C   LIG    1        2.665  -0.760  -1.691  0.00  0.00    +0.075 C 
ATOM     19  C   LIG    1        1.449  -1.676  -1.494  0.00  0.00    +0.012 C 
ATOM     20  C   LIG    1        0.181  -0.914  -1.107  0.00  0.00    +0.001 C 
ATOM     21  C   LIG    1       -0.134   0.195  -2.102  0.00  0.00    +0.000 C 
ATOM     22  C   LIG    1        1.033   1.163  -2.237  0.00  0.00    +0.001 C 
ATOM     23  C   LIG    1        2.332   0.443  -2.591  0.00  0.00    +0.012 C 
ENDBRANCH   2  18
TORSDOF 1
