REMARK  Name = *****
REMARK                            x       y       z     vdW  Elec       q    Type
REMARK                         _______ _______ _______ _____ _____    ______ ____
ROOT
ATOM      1  C   LIG    1        5.025   0.030  -9.521  0.00  0.00    +0.147 C 
ENDROOT
BRANCH   1   2
ATOM      2  N   LIG    1        6.154  -0.598  -8.802  0.00  0.00    -0.315 N 
ATOM      3  C   LIG    1        7.303  -0.846  -9.693  0.00  0.00    +0.131 C 
BRANCH   2   8
ATOM      4  C   LIG    1        4.922  -2.471  -5.907  0.00  0.00    +0.225 A 
ATOM      5  N   LIG    1        5.719  -3.538  -5.933  0.00  0.00    -0.201 NA
ATOM      6  C   LIG    1        6.703  -3.499  -6.824  0.00  0.00    +0.227 A 
ATOM      7  N   LIG    1        6.878  -2.568  -7.763  0.00  0.00    -0.221 NA
ATOM      8  C   LIG    1        6.013  -1.545  -7.797  0.00  0.00    +0.128 A 
ATOM      9  C   LIG    1        5.075  -1.453  -6.796  0.00  0.00    +0.111 A 
BRANCH   4  10
ATOM     10  O   LIG    1        3.871  -2.340  -4.981  0.00  0.00    -0.438 OA
BRANCH  10  14
ATOM     11  C   LIG    1        3.590  -5.397  -2.176  0.00  0.00    +0.120 A 
ATOM     12  C   LIG    1        2.433  -4.763  -2.645  0.00  0.00    +0.049 A 
ATOM     13  C   LIG    1        2.523  -3.686  -3.535  0.00  0.00    +0.050 A 
ATOM     14  C   LIG    1        3.779  -3.287  -3.989  0.00  0.00    +0.131 A 
ATOM     15  C   LIG    1        4.921  -3.861  -3.429  0.00  0.00    +0.050 A 
ATOM     16  C   LIG    1        4.836  -4.948  -2.581  0.00  0.00    +0.049 A 
BRANCH  11  18
ATOM     17  C   LIG    1        2.498  -6.490  -0.429  0.00  0.00    +0.277 C 
ATOM     18  O   LIG    1        3.611  -6.456  -1.313  0.00  0.00    -0.495 OA
ENDBRANCH  11  18
ENDBRANCH  10  14
ENDBRANCH   4  10
ENDBRANCH   2   8
ENDBRANCH   1   2
BRANCH   1  19
ATOM     19  C   LIG    1        3.554  -0.017  -8.985  0.00  0.00    +0.248 C 
BRANCH  19  20
ATOM     20  O   LIG    1        3.058   0.420  -7.688  0.00  0.00    -0.490 OA
BRANCH  20  21
ATOM     21  C   LIG    1        3.635   1.447  -7.003  0.00  0.00    +0.121 A 
ATOM     22  C   LIG    1        4.609   2.222  -7.569  0.00  0.00    +0.046 A 
ATOM     23  C   LIG    1        5.269   3.211  -6.896  0.00  0.00    +0.007 A 
ATOM     24  C   LIG    1        4.964   3.486  -5.582  0.00  0.00    -0.046 A 
ATOM     25  C   LIG    1        3.933   2.756  -4.978  0.00  0.00    +0.007 A 
ATOM     26  C   LIG    1        3.304   1.699  -5.666  0.00  0.00    +0.046 A 
BRANCH  24  27
ATOM     27  C   LIG    1        5.745   4.566  -4.892  0.00  0.00    +0.059 C 
BRANCH  27  28
ATOM     28  C   LIG    1        7.244   4.242  -4.747  0.00  0.00    +0.146 C 
ATOM     29  C   LIG    1        8.040   4.167  -6.050  0.00  0.00    +0.234 C 
ATOM     30  O   LIG    1        8.127   3.193  -6.794  0.00  0.00    -0.274 OA
ATOM     31  N   LIG    1        8.666   5.322  -6.350  0.00  0.00    -0.246 N 
ATOM     32  H   LIG    1        9.229   5.405  -7.175  0.00  0.00    +0.158 HD
ATOM     33  C   LIG    1        8.890   6.198  -5.316  0.00  0.00    +0.279 C 
ATOM     34  O   LIG    1        9.586   7.152  -5.362  0.00  0.00    -0.263 OA
ATOM     35  S   LIG    1        8.040   5.648  -3.882  0.00  0.00    -0.054 S 
ENDBRANCH  27  28
ENDBRANCH  24  27
ENDBRANCH  20  21
ENDBRANCH  19  20
ENDBRANCH   1  19
TORSDOF 10
