REMARK  Name = *****
REMARK                            x       y       z     vdW  Elec       q    Type
REMARK                         _______ _______ _______ _____ _____    ______ ____
ROOT
ATOM      1  C   LIG    1        4.402   0.066  -0.070  0.00  0.00    +0.271 C 
ENDROOT
BRANCH   1   3
ATOM      2  O   LIG    1        1.027   0.066  -0.070  0.00  0.00    -0.255 OA
ATOM      3  P   LIG    1        2.572   0.066  -0.070  0.00  0.00    +0.371 P 
BRANCH   3   4
ATOM      4  O   LIG    1        2.570  -0.716  -1.518  0.00  0.00    -0.322 OA
ATOM      5  H   LIG    1        1.637  -0.910  -1.746  0.00  0.00    +0.220 HD
ENDBRANCH   3   4
BRANCH   3   6
ATOM      6  O   LIG    1        2.590  -1.292   0.868  0.00  0.00    -0.322 OA
ATOM      7  H   LIG    1        1.655  -1.581   0.949  0.00  0.00    +0.220 HD
ENDBRANCH   3   6
ENDBRANCH   1   3
BRANCH   1   8
ATOM      8  P   LIG    1        5.220   0.799   1.408  0.00  0.00    +0.371 P 
ATOM      9  O   LIG    1        5.014   0.147   2.724  0.00  0.00    -0.255 OA
BRANCH   8  10
ATOM     10  O   LIG    1        4.866   2.362   1.479  0.00  0.00    -0.322 OA
ATOM     11  H   LIG    1        5.199   2.787   2.292  0.00  0.00    +0.220 HD
ENDBRANCH   8  10
BRANCH   8  12
ATOM     12  O   LIG    1        6.795   0.891   1.060  0.00  0.00    -0.322 OA
ATOM     13  H   LIG    1        7.366   0.973   1.845  0.00  0.00    +0.220 HD
ENDBRANCH   8  12
ENDBRANCH   1   8
BRANCH   1  14
ATOM     14  O   LIG    1        4.880  -1.328  -0.039  0.00  0.00    -0.367 OA
ATOM     15  H   LIG    1        4.361  -1.733   0.693  0.00  0.00    +0.212 HD
ENDBRANCH   1  14
BRANCH   1  16
ATOM     16  C   LIG    1        5.022   0.668  -1.370  0.00  0.00    +0.097 C 
BRANCH  16  17
ATOM     17  C   LIG    1        4.715   2.099  -1.747  0.00  0.00    -0.025 A 
ATOM     18  C   LIG    1        3.661   2.415  -2.600  0.00  0.00    +0.114 A 
ATOM     19  N   LIG    1        3.369   3.667  -3.026  0.00  0.00    -0.263 NA
ATOM     20  C   LIG    1        4.178   4.662  -2.606  0.00  0.00    +0.111 A 
ATOM     21  C   LIG    1        5.262   4.461  -1.772  0.00  0.00    +0.020 A 
ATOM     22  C   LIG    1        5.534   3.161  -1.346  0.00  0.00    +0.007 A 
ENDBRANCH  16  17
ENDBRANCH   1  16
TORSDOF 9
