REMARK  Name = *****
REMARK                            x       y       z     vdW  Elec       q    Type
REMARK                         _______ _______ _______ _____ _____    ______ ____
ROOT
ATOM      1  O   LIG    1        1.184   0.097  -0.043  0.00  0.00    -0.137 OA
ATOM      2  S   LIG    1        2.658   0.105  -0.277  0.00  0.00    +0.137 S 
ENDROOT
BRANCH   2   3
ATOM      3  O   LIG    1        3.230  -1.120   0.573  0.00  0.00    -0.246 OA
ATOM      4  H   LIG    1        2.469  -1.720   0.740  0.00  0.00    +0.245 HD
ENDBRANCH   2   3
BRANCH   2   5
ATOM      5  O   LIG    1        3.230   1.273   0.650  0.00  0.00    -0.246 OA
ATOM      6  H   LIG    1        2.469   1.861   0.855  0.00  0.00    +0.245 HD
ENDBRANCH   2   5
TORSDOF 2
