REMARK  Name = *****
REMARK                            x       y       z     vdW  Elec       q    Type
REMARK                         _______ _______ _______ _____ _____    ______ ____
ROOT
ATOM      1  C   LIG    1        5.676  -1.918  -1.636  0.00  0.00    +0.234 C 
ATOM      2  N   LIG    1        5.131  -0.812  -0.987  0.00  0.00    -0.284 N 
ATOM      3  H   LIG    1        4.298  -0.469  -1.456  0.00  0.00    +0.155 HD
ATOM      4  O   LIG    1        6.264  -2.841  -1.084  0.00  0.00    -0.274 OA
ENDROOT
BRANCH   2   5
ATOM      5  C   LIG    1        5.235  -0.611   0.413  0.00  0.00    +0.039 A 
ATOM      6  C   LIG    1        6.493  -0.477   1.048  0.00  0.00    -0.029 A 
ATOM      7  C   LIG    1        7.811  -0.497   0.319  0.00  0.00    +0.045 C 
ATOM      8  C   LIG    1        6.538  -0.170   2.423  0.00  0.00    +0.005 A 
ATOM      9  C   LIG    1        5.374  -0.013   3.166  0.00  0.00    +0.001 A 
ATOM     10  C   LIG    1        4.139  -0.157   2.545  0.00  0.00    +0.005 A 
ATOM     11  C   LIG    1        4.051  -0.448   1.171  0.00  0.00    -0.029 A 
ATOM     12  C   LIG    1        2.680  -0.640   0.583  0.00  0.00    +0.045 C 
ENDBRANCH   2   5
BRANCH   1  14
ATOM     13  N   LIG    1        4.042  -1.679  -3.558  0.00  0.00    -0.291 NA
ATOM     14  C   LIG    1        5.480  -1.866  -3.172  0.00  0.00    +0.143 C 
ATOM     15  C   LIG    1        6.146  -3.065  -3.873  0.00  0.00    +0.028 C 
ATOM     16  C   LIG    1        6.007  -2.984  -5.392  0.00  0.00    +0.003 C 
ATOM     17  C   LIG    1        4.577  -2.672  -5.821  0.00  0.00    +0.015 C 
ATOM     18  C   LIG    1        3.997  -1.496  -5.027  0.00  0.00    +0.085 C 
BRANCH  13  19
ATOM     19  C   LIG    1        3.187  -2.800  -3.098  0.00  0.00    +0.085 C 
BRANCH  19  20
ATOM     20  C   LIG    1        1.696  -2.632  -3.443  0.00  0.00    +0.015 C 
BRANCH  20  22
ATOM     21  C   LIG    1       -0.608  -3.648  -3.258  0.00  0.00    +0.004 C 
ATOM     22  C   LIG    1        0.866  -3.805  -2.915  0.00  0.00    -0.002 C 
ENDBRANCH  20  22
ENDBRANCH  19  20
ENDBRANCH  13  19
ENDBRANCH   1  14
TORSDOF 5
