REMARK  Name = *****
REMARK                            x       y       z     vdW  Elec       q    Type
REMARK                         _______ _______ _______ _____ _____    ______ ____
ROOT
ATOM      1  C   LIG    1       16.676  -5.386  -8.040  0.00  0.00    +0.188 C 
ENDROOT
BRANCH   1   2
ATOM      2  C   LIG    1       17.291  -5.539  -9.372  0.00  0.00    +0.188 C 
BRANCH   2   3
ATOM      3  O   LIG    1       18.647  -5.032  -9.469  0.00  0.00    -0.375 OA
BRANCH   3   4
ATOM      4  C   LIG    1       18.862  -3.601  -9.653  0.00  0.00    +0.188 C 
BRANCH   4   5
ATOM      5  C   LIG    1       19.289  -2.758  -8.387  0.00  0.00    +0.188 C 
BRANCH   5   6
ATOM      6  O   LIG    1       18.283  -2.537  -7.370  0.00  0.00    -0.375 OA
BRANCH   6   7
ATOM      7  C   LIG    1       18.025  -3.731  -6.645  0.00  0.00    +0.188 C 
BRANCH   7   8
ATOM      8  C   LIG    1       16.465  -3.940  -5.973  0.00  0.00    +0.188 C 
BRANCH   8   9
ATOM      9  O   LIG    1       16.113  -3.193  -4.837  0.00  0.00    -0.375 OA
BRANCH   9  10
ATOM     10  C   LIG    1       16.507  -1.880  -5.083  0.00  0.00    +0.188 C 
BRANCH  10  11
ATOM     11  C   LIG    1       15.547  -1.201  -5.998  0.00  0.00    +0.188 C 
BRANCH  11  12
ATOM     12  O   LIG    1       15.950   0.149  -6.186  0.00  0.00    -0.375 OA
BRANCH  12  13
ATOM     13  C   LIG    1       17.196   0.229  -6.891  0.00  0.00    +0.188 C 
BRANCH  13  14
ATOM     14  C   LIG    1       17.561   1.671  -7.160  0.00  0.00    +0.188 C 
BRANCH  14  15
ATOM     15  O   LIG    1       18.699   1.716  -8.030  0.00  0.00    -0.375 OA
BRANCH  15  16
ATOM     16  C   LIG    1       19.157   3.050  -8.230  0.00  0.00    +0.188 C 
BRANCH  16  17
ATOM     17  C   LIG    1       18.181   3.940  -9.006  0.00  0.00    +0.188 C 
BRANCH  17  18
ATOM     18  O   LIG    1       18.687   5.235  -9.332  0.00  0.00    -0.375 OA
BRANCH  18  19
ATOM     19  C   LIG    1       18.971   6.117  -8.244  0.00  0.00    +0.188 C 
BRANCH  19  20
ATOM     20  C   LIG    1       20.361   5.894  -7.641  0.00  0.00    +0.187 C 
BRANCH  20  21
ATOM     21  O   LIG    1       20.625   6.857  -6.627  0.00  0.00    -0.381 OA
ATOM     22  C   LIG    1       21.957   6.748  -6.135  0.00  0.00    +0.194 C 
ENDBRANCH  20  21
ENDBRANCH  19  20
ENDBRANCH  18  19
ENDBRANCH  17  18
ENDBRANCH  16  17
ENDBRANCH  15  16
ENDBRANCH  14  15
ENDBRANCH  13  14
ENDBRANCH  12  13
ENDBRANCH  11  12
ENDBRANCH  10  11
ENDBRANCH   9  10
ENDBRANCH   8   9
ENDBRANCH   7   8
ENDBRANCH   6   7
ENDBRANCH   5   6
ENDBRANCH   4   5
ENDBRANCH   3   4
ENDBRANCH   2   3
ENDBRANCH   1   2
BRANCH   1  23
ATOM     23  O   LIG    1       15.359  -5.707  -7.749  0.00  0.00    -0.375 OA
BRANCH  23  24
ATOM     24  C   LIG    1       15.330  -6.980  -7.170  0.00  0.00    +0.188 C 
BRANCH  24  25
ATOM     25  C   LIG    1       14.037  -7.088  -6.399  0.00  0.00    +0.188 C 
BRANCH  25  26
ATOM     26  O   LIG    1       13.995  -6.574  -5.059  0.00  0.00    -0.374 OA
BRANCH  26  27
ATOM     27  C   LIG    1       14.699  -7.279  -4.032  0.00  0.00    +0.201 C 
BRANCH  27  28
ATOM     28  C   LIG    1       16.189  -6.940  -3.941  0.00  0.00    +0.260 C 
BRANCH  28  29
ATOM     29  O   LIG    1       16.598  -5.587  -3.747  0.00  0.00    -0.459 OA
BRANCH  29  30
ATOM     30  C   LIG    1       16.539  -4.995  -2.506  0.00  0.00    +0.339 C 
ATOM     31  O   LIG    1       15.927  -5.362  -1.611  0.00  0.00    -0.245 OA
BRANCH  30  35
ATOM     32  C   LIG    1       19.018  -1.371  -2.675  0.00  0.00    +0.027 A 
ATOM     33  C   LIG    1       18.312  -1.766  -1.530  0.00  0.00    +0.024 A 
ATOM     34  C   LIG    1       17.589  -2.971  -1.440  0.00  0.00    +0.017 A 
ATOM     35  C   LIG    1       17.532  -3.821  -2.519  0.00  0.00    +0.059 A 
ATOM     36  C   LIG    1       18.381  -3.513  -3.580  0.00  0.00    +0.017 A 
ATOM     37  C   LIG    1       19.058  -2.284  -3.711  0.00  0.00    +0.024 A 
BRANCH  32  38
ATOM     38  N   LIG    1       19.551  -0.106  -2.876  0.00  0.00    -0.344 N 
ATOM     39  H   LIG    1       20.292  -0.075  -3.571  0.00  0.00    +0.146 HD
BRANCH  38  40
ATOM     40  C   LIG    1       19.657   0.842  -1.779  0.00  0.00    +0.101 C 
BRANCH  40  41
ATOM     41  C   LIG    1       20.975   1.612  -1.826  0.00  0.00    +0.018 C 
BRANCH  41  43
ATOM     42  C   LIG    1       22.401   3.273  -3.112  0.00  0.00    +0.004 C 
ATOM     43  C   LIG    1       21.105   2.479  -3.077  0.00  0.00    -0.002 C 
ENDBRANCH  41  43
ENDBRANCH  40  41
ENDBRANCH  38  40
ENDBRANCH  32  38
ENDBRANCH  30  35
ENDBRANCH  29  30
ENDBRANCH  28  29
ENDBRANCH  27  28
ENDBRANCH  26  27
ENDBRANCH  25  26
ENDBRANCH  24  25
ENDBRANCH  23  24
ENDBRANCH   1  23
TORSDOF 33
