REMARK  Name = *****
REMARK                            x       y       z     vdW  Elec       q    Type
REMARK                         _______ _______ _______ _____ _____    ______ ____
ROOT
ATOM      1  C   LIG    1       -5.194   0.243  -0.279  0.00  0.00    +0.109 C 
ATOM      2  C   LIG    1       -6.744   0.422  -0.462  0.00  0.00    +0.230 C 
ATOM      3  C   LIG    1       -7.364  -1.024  -0.595  0.00  0.00    +0.014 C 
ATOM      4  C   LIG    1       -8.033  -1.441   0.744  0.00  0.00    +0.015 C 
ATOM      5  C   LIG    1       -6.154  -1.927  -0.995  0.00  0.00    +0.007 C 
ATOM      6  C   LIG    1       -6.360  -2.841  -2.225  0.00  0.00    -0.003 C 
ATOM      7  C   LIG    1       -7.717  -3.579  -2.204  0.00  0.00    -0.001 C 
ATOM      8  C   LIG    1       -8.875  -2.580  -1.986  0.00  0.00    +0.005 C 
ATOM      9  C   LIG    1       -7.801  -4.921  -1.339  0.00  0.00    -0.025 C 
ATOM     10  C   LIG    1       -7.876  -4.655   0.180  0.00  0.00    +0.012 C 
ATOM     11  C   LIG    1       -6.535  -5.792  -1.570  0.00  0.00    -0.002 C 
ATOM     12  C   LIG    1       -6.659  -6.591  -2.865  0.00  0.00    +0.037 C 
ATOM     13  C   LIG    1       -7.698  -7.679  -2.661  0.00  0.00    +0.132 C 
ATOM     14  C   LIG    1       -9.075  -7.178  -2.161  0.00  0.00    +0.086 C 
ATOM     15  C   LIG    1       -5.222  -5.000  -1.511  0.00  0.00    +0.004 C 
ATOM     16  C   LIG    1       -9.120  -5.677  -1.748  0.00  0.00    +0.028 C 
ATOM     17  C   LIG    1       -5.202  -3.818  -2.463  0.00  0.00    +0.004 C 
ATOM     18  C   LIG    1       -8.428  -1.132  -1.723  0.00  0.00    +0.011 C 
ATOM     19  C   LIG    1       -4.949  -0.982  -1.173  0.00  0.00    +0.062 C 
ENDROOT
BRANCH  14  20
ATOM     20  N   LIG    1       -9.798  -8.032  -1.181  0.00  0.00    -0.293 NA
ATOM     21  C   LIG    1      -10.238  -9.339  -1.712  0.00  0.00    +0.113 C 
ATOM     22  C   LIG    1       -9.170 -10.441  -1.638  0.00  0.00    +0.175 C 
ATOM     23  O   LIG    1       -8.715 -10.629  -0.292  0.00  0.00    -0.377 OA
ATOM     24  C   LIG    1       -8.213  -9.418   0.277  0.00  0.00    +0.175 C 
ATOM     25  C   LIG    1       -9.197  -8.241   0.141  0.00  0.00    +0.113 C 
ENDBRANCH  14  20
BRANCH   1  26
ATOM     26  N   LIG    1       -4.529   0.097   1.148  0.00  0.00    +0.251 N 
ATOM     27  C   LIG    1       -2.968  -0.050   1.005  0.00  0.00    +0.134 C 
ATOM     28  C   LIG    1       -2.572  -1.276   1.816  0.00  0.00    +0.056 C 
ATOM     29  C   LIG    1       -3.706  -1.493   2.791  0.00  0.00    +0.056 C 
ATOM     30  C   LIG    1       -4.921  -1.146   1.958  0.00  0.00    +0.134 C 
BRANCH  26  31
ATOM     31  C   LIG    1       -4.781   1.340   2.053  0.00  0.00    +0.161 C 
BRANCH  31  33
ATOM     32  C   LIG    1       -3.323   3.368   1.587  0.00  0.00    +0.009 C 
ATOM     33  C   LIG    1       -4.468   2.679   1.457  0.00  0.00    +0.015 C 
ENDBRANCH  31  33
ENDBRANCH  26  31
ENDBRANCH   1  26
BRANCH  13  34
ATOM     34  O   LIG    1       -7.848  -8.407  -3.881  0.00  0.00    -0.390 OA
ATOM     35  H   LIG    1       -7.041  -8.938  -4.002  0.00  0.00    +0.210 HD
ENDBRANCH  13  34
BRANCH   2  36
ATOM     36  O   LIG    1       -7.377   1.229   0.540  0.00  0.00    -0.455 OA
BRANCH  36  37
ATOM     37  C   LIG    1       -8.671   1.583   0.265  0.00  0.00    +0.304 C 
ATOM     38  O   LIG    1       -9.163   1.656  -0.872  0.00  0.00    -0.251 OA
ATOM     39  C   LIG    1       -9.449   1.738   1.540  0.00  0.00    +0.136 C 
ENDBRANCH  36  37
ENDBRANCH   2  36
TORSDOF 7
