REMARK  Name = *****
REMARK                            x       y       z     vdW  Elec       q    Type
REMARK                         _______ _______ _______ _____ _____    ______ ____
ROOT
ATOM      1  C   LIG    1        4.221   1.651   4.030  0.00  0.00    +0.106 C 
ENDROOT
BRANCH   1   2
ATOM      2  C   LIG    1        2.911   1.496   4.930  0.00  0.00    +0.026 C 
ATOM      3  C   LIG    1        2.641   0.084   5.510  0.00  0.00    +0.007 C 
ATOM      4  C   LIG    1        3.526  -0.297   6.693  0.00  0.00    +0.000 C 
ATOM      5  C   LIG    1        3.438   0.729   7.816  0.00  0.00    +0.000 C 
ATOM      6  C   LIG    1        3.665   2.155   7.332  0.00  0.00    +0.000 C 
ATOM      7  C   LIG    1        2.813   2.501   6.110  0.00  0.00    +0.007 C 
ENDBRANCH   1   2
BRANCH   1   8
ATOM      8  C   LIG    1        4.381   3.071   3.444  0.00  0.00    -0.015 A 
ATOM      9  C   LIG    1        3.277   3.852   3.061  0.00  0.00    +0.006 A 
ATOM     10  C   LIG    1        3.434   5.159   2.585  0.00  0.00    +0.000 A 
ATOM     11  C   LIG    1        4.707   5.705   2.449  0.00  0.00    +0.000 A 
ATOM     12  C   LIG    1        5.818   4.941   2.773  0.00  0.00    +0.000 A 
ATOM     13  C   LIG    1        5.659   3.640   3.260  0.00  0.00    +0.006 A 
ENDBRANCH   1   8
BRANCH   1  14
ATOM     14  O   LIG    1        5.335   1.334   4.881  0.00  0.00    -0.382 OA
ATOM     15  H   LIG    1        5.590   2.170   5.313  0.00  0.00    +0.211 HD
ENDBRANCH   1  14
BRANCH   1  16
ATOM     16  C   LIG    1        4.212   0.590   2.849  0.00  0.00    +0.124 C 
BRANCH  16  21
ATOM     17  C   LIG    1        6.061  -3.603   3.178  0.00  0.00    +0.192 C 
ATOM     18  N   LIG    1        6.394  -2.366   2.347  0.00  0.00    +0.241 N 
ATOM     19  C   LIG    1        6.696  -1.199   3.324  0.00  0.00    +0.148 C 
ATOM     20  C   LIG    1        6.663   0.165   2.611  0.00  0.00    +0.135 C 
ATOM     21  N   LIG    1        5.391   0.469   1.931  0.00  0.00    -0.289 NA
ATOM     22  C   LIG    1        5.170  -0.583   0.912  0.00  0.00    +0.135 C 
ATOM     23  C   LIG    1        5.179  -2.041   1.440  0.00  0.00    +0.148 C 
ATOM     24  C   LIG    1        7.626  -2.671   1.504  0.00  0.00    +0.192 C 
ENDBRANCH  16  21
ENDBRANCH   1  16
TORSDOF 5
