REMARK  Name = *****
REMARK                            x       y       z     vdW  Elec       q    Type
REMARK                         _______ _______ _______ _____ _____    ______ ____
ROOT
ATOM      1  C   LIG    1        4.569  -0.035   1.958  0.00  0.00    +0.318 C 
ATOM      2 CL   LIG    1        5.133   0.662   0.391  0.00  0.00    -0.081 Cl
ENDROOT
BRANCH   1   3
ATOM      3  C   LIG    1        5.699  -0.830   2.653  0.00  0.00    +0.430 C 
ATOM      4  F   LIG    1        6.653  -1.256   1.790  0.00  0.00    -0.167 F 
ATOM      5  F   LIG    1        5.201  -1.943   3.248  0.00  0.00    -0.167 F 
ATOM      6  F   LIG    1        6.330  -0.101   3.603  0.00  0.00    -0.167 F 
ENDBRANCH   1   3
BRANCH   1   7
ATOM      7  O   LIG    1        4.049   1.072   2.701  0.00  0.00    -0.294 OA
BRANCH   7   9
ATOM      8  F   LIG    1        2.302  -0.117   3.445  0.00  0.00    -0.178 F 
ATOM      9  C   LIG    1        3.332   0.665   3.845  0.00  0.00    +0.484 C 
ATOM     10  F   LIG    1        4.123  -0.075   4.633  0.00  0.00    -0.178 F 
ENDBRANCH   7   9
ENDBRANCH   1   7
TORSDOF 3
