REMARK  Name = *****
REMARK                            x       y       z     vdW  Elec       q    Type
REMARK                         _______ _______ _______ _____ _____    ______ ____
ROOT
ATOM      1  N   LIG    1        8.467  -2.586  -3.202  0.00  0.00    -0.341 N 
ATOM      2  H   LIG    1        8.994  -2.630  -4.069  0.00  0.00    +0.146 HD
ENDROOT
BRANCH   1   3
ATOM      3  C   LIG    1        8.965  -3.517  -2.261  0.00  0.00    +0.038 A 
ATOM      4  C   LIG    1       10.331  -3.951  -2.297  0.00  0.00    +0.021 A 
ATOM      5  C   LIG    1       10.765  -4.851  -1.289  0.00  0.00    +0.074 A 
ATOM      6  C   LIG    1       12.054  -5.345  -1.297  0.00  0.00    +0.048 A 
ATOM      7  C   LIG    1       12.963  -4.968  -2.276  0.00  0.00    +0.043 A 
ATOM      8  C   LIG    1       12.592  -4.068  -3.262  0.00  0.00    +0.021 A 
ATOM      9 CL   LIG    1       14.557  -5.616  -2.257  0.00  0.00    -0.084 Cl
ATOM     10  N   LIG    1        9.973  -5.271  -0.290  0.00  0.00    -0.255 NA
ATOM     11  C   LIG    1        8.717  -4.805  -0.248  0.00  0.00    +0.113 A 
ATOM     12  C   LIG    1       11.287  -3.559  -3.271  0.00  0.00    +0.013 A 
ATOM     13  C   LIG    1        8.179  -3.950  -1.190  0.00  0.00    +0.043 A 
ENDBRANCH   1   3
BRANCH   1  14
ATOM     14  C   LIG    1        7.013  -2.453  -3.442  0.00  0.00    +0.067 C 
ATOM     15  C   LIG    1        6.417  -1.407  -2.494  0.00  0.00    +0.027 C 
BRANCH  14  16
ATOM     16  C   LIG    1        6.805  -2.036  -4.916  0.00  0.00    +0.023 C 
BRANCH  16  17
ATOM     17  C   LIG    1        5.335  -1.921  -5.357  0.00  0.00    +0.017 C 
BRANCH  17  18
ATOM     18  C   LIG    1        5.262  -1.488  -6.833  0.00  0.00    +0.084 C 
BRANCH  18  19
ATOM     19  N   LIG    1        3.901  -1.371  -7.391  0.00  0.00    -0.303 NA
BRANCH  19  21
ATOM     20  C   LIG    1        3.541   1.119  -6.916  0.00  0.00    +0.020 C 
ATOM     21  C   LIG    1        3.082  -0.329  -6.743  0.00  0.00    +0.081 C 
ENDBRANCH  19  21
BRANCH  19  22
ATOM     22  C   LIG    1        3.985  -1.212  -8.857  0.00  0.00    +0.081 C 
ATOM     23  C   LIG    1        2.649  -1.333  -9.585  0.00  0.00    +0.020 C 
ENDBRANCH  19  22
ENDBRANCH  18  19
ENDBRANCH  17  18
ENDBRANCH  16  17
ENDBRANCH  14  16
ENDBRANCH   1  14
TORSDOF 8
