REMARK  Name = *****
REMARK                            x       y       z     vdW  Elec       q    Type
REMARK                         _______ _______ _______ _____ _____    ______ ____
ROOT
ATOM      1  C   LIG    1        3.878   0.284   1.222  0.00  0.00    +0.040 C 
ATOM      2  C   LIG    1        3.502   0.666  -0.226  0.00  0.00    +0.135 C 
ATOM      3  S   LIG    1        4.248   2.317  -0.598  0.00  0.00    -0.002 S 
ATOM      4  O   LIG    1        5.276   2.615   0.379  0.00  0.00    -0.172 OA
ATOM      5  O   LIG    1        3.166   3.265  -0.800  0.00  0.00    -0.172 OA
ATOM      6  C   LIG    1        5.020   1.939  -2.188  0.00  0.00    +0.229 C 
ATOM      7  N   LIG    1        4.469   0.591  -2.463  0.00  0.00    -0.263 N 
ATOM      8  C   LIG    1        3.548   1.071  -3.348  0.00  0.00    +0.221 C 
ATOM      9  O   LIG    1        2.456   0.632  -3.642  0.00  0.00    -0.275 OA
ATOM     10  C   LIG    1        4.307   2.401  -3.471  0.00  0.00    +0.142 C 
ATOM     11  C   LIG    1        4.088  -0.243  -1.328  0.00  0.00    +0.215 C 
ENDROOT
BRANCH  11  12
ATOM     12  C   LIG    1        5.333  -0.996  -0.871  0.00  0.00    +0.328 C 
ATOM     13  O   LIG    1        6.444  -0.488  -0.806  0.00  0.00    -0.249 OA
BRANCH  12  14
ATOM     14  O   LIG    1        5.096  -2.274  -0.499  0.00  0.00    -0.479 OA
ATOM     15  H   LIG    1        4.167  -2.583  -0.561  0.00  0.00    +0.295 HD
ENDBRANCH  12  14
ENDBRANCH  11  12
BRANCH   2  16
ATOM     16  C   LIG    1        1.963   0.808  -0.358  0.00  0.00    +0.177 C 
BRANCH  16  17
ATOM     17  N   LIG    1        1.197  -0.423  -0.366  0.00  0.00    -0.249 N 
ATOM     18  N   LIG    1        1.694  -1.565   0.142  0.00  0.00    -0.066 NA
ATOM     19  N   LIG    1        0.771  -2.504  -0.006  0.00  0.00    -0.138 NA
ATOM     20  C   LIG    1       -0.303  -1.945  -0.638  0.00  0.00    +0.156 A 
ATOM     21  C   LIG    1       -0.041  -0.622  -0.900  0.00  0.00    +0.130 A 
ENDBRANCH  16  17
ENDBRANCH   2  16
TORSDOF 4
