REMARK  Name = *****
REMARK                            x       y       z     vdW  Elec       q    Type
REMARK                         _______ _______ _______ _____ _____    ______ ____
ROOT
ATOM      1  C   LIG    1        2.312   0.119  -0.078  0.00  0.00    +0.147 A 
ATOM      2  C   LIG    1        3.018   1.333  -0.030  0.00  0.00    +0.147 A 
ATOM      3  C   LIG    1        4.399   1.243   0.022  0.00  0.00    +0.163 A 
ATOM      4  N   LIG    1        4.840   2.533   0.029  0.00  0.00    -0.329 N 
ATOM      5  H   LIG    1        5.808   2.819   0.042  0.00  0.00    +0.168 HD
ATOM      6  C   LIG    1        3.739   3.346   0.008  0.00  0.00    +0.198 A 
ATOM      7  N   LIG    1        5.149   0.132   0.041  0.00  0.00    -0.216 NA
ATOM      8  C   LIG    1        4.366  -0.966   0.015  0.00  0.00    +0.225 A 
ATOM      9  N   LIG    1        2.617   2.656  -0.023  0.00  0.00    -0.231 NA
ATOM     10  N   LIG    1        3.016  -1.037  -0.035  0.00  0.00    -0.219 NA
ENDROOT
BRANCH   1  11
ATOM     11  N   LIG    1        0.929   0.044  -0.168  0.00  0.00    -0.341 N 
ATOM     12  H   LIG    1        0.450   0.890   0.121  0.00  0.00    +0.144 HD
ATOM     13  H   LIG    1        0.561  -0.845   0.139  0.00  0.00    +0.144 HD
ENDBRANCH   1  11
TORSDOF 1
