REMARK  Name = *****
REMARK                            x       y       z     vdW  Elec       q    Type
REMARK                         _______ _______ _______ _____ _____    ______ ____
ROOT
ATOM      1  C   LIG    1        3.979   3.179   2.233  0.00  0.00    +0.117 C 
ENDROOT
BRANCH   1   2
ATOM      2  N   LIG    1        3.349   4.515   2.301  0.00  0.00    -0.310 NA
ATOM      3  H   LIG    1        3.338   4.953   1.379  0.00  0.00    +0.122 HD
BRANCH   2   5
ATOM      4  C   LIG    1        3.259   6.645   3.514  0.00  0.00    +0.024 C 
ATOM      5  C   LIG    1        4.096   5.388   3.259  0.00  0.00    +0.055 C 
BRANCH   5   6
ATOM      6  C   LIG    1        5.535   5.749   2.780  0.00  0.00    +0.053 C 
BRANCH   6   7
ATOM      7  C   LIG    1        6.369   6.604   3.715  0.00  0.00    -0.046 A 
ATOM      8  C   LIG    1        6.728   6.138   4.992  0.00  0.00    +0.007 A 
ATOM      9  C   LIG    1        7.530   6.919   5.830  0.00  0.00    +0.045 A 
ATOM     10  C   LIG    1        7.978   8.160   5.406  0.00  0.00    +0.117 A 
ATOM     11  C   LIG    1        7.650   8.636   4.139  0.00  0.00    +0.045 A 
ATOM     12  C   LIG    1        6.855   7.850   3.297  0.00  0.00    +0.007 A 
BRANCH  10  13
ATOM     13  O   LIG    1        8.749   8.895   6.260  0.00  0.00    -0.507 OA
ATOM     14  H   LIG    1        8.943   9.749   5.846  0.00  0.00    +0.292 HD
ENDBRANCH  10  13
ENDBRANCH   6   7
ENDBRANCH   5   6
ENDBRANCH   2   5
ENDBRANCH   1   2
BRANCH   1  15
ATOM     15  C   LIG    1        3.263   2.097   1.377  0.00  0.00    +0.158 C 
BRANCH  15  16
ATOM     16  C   LIG    1        4.040   0.789   1.445  0.00  0.00    -0.011 A 
ATOM     17  C   LIG    1        4.236   0.123   2.671  0.00  0.00    +0.051 A 
ATOM     18  C   LIG    1        5.009  -1.034   2.738  0.00  0.00    +0.121 A 
ATOM     19  C   LIG    1        5.614  -1.556   1.603  0.00  0.00    +0.090 A 
ATOM     20  C   LIG    1        5.416  -0.913   0.390  0.00  0.00    +0.121 A 
ATOM     21  C   LIG    1        4.638   0.246   0.296  0.00  0.00    +0.051 A 
BRANCH  18  22
ATOM     22  O   LIG    1        5.163  -1.631   3.956  0.00  0.00    -0.507 OA
ATOM     23  H   LIG    1        5.614  -2.479   3.825  0.00  0.00    +0.292 HD
ENDBRANCH  18  22
BRANCH  20  24
ATOM     24  O   LIG    1        6.026  -1.442  -0.712  0.00  0.00    -0.507 OA
ATOM     25  H   LIG    1        5.812  -0.891  -1.484  0.00  0.00    +0.292 HD
ENDBRANCH  20  24
ENDBRANCH  15  16
BRANCH  15  26
ATOM     26  O   LIG    1        1.932   1.875   1.837  0.00  0.00    -0.386 OA
ATOM     27  H   LIG    1        1.567   2.760   2.023  0.00  0.00    +0.210 HD
ENDBRANCH  15  26
ENDBRANCH   1  15
TORSDOF 10
