REMARK  Name = *****
REMARK                            x       y       z     vdW  Elec       q    Type
REMARK                         _______ _______ _______ _____ _____    ______ ____
ROOT
ATOM      1  C   LIG    1        5.110  -3.876  -3.157  0.00  0.00    +0.299 A 
ATOM      2  N   LIG    1        5.599  -4.945  -2.429  0.00  0.00    -0.289 N 
ATOM      3  C   LIG    1        5.938  -4.476  -1.159  0.00  0.00    +0.086 A 
ATOM      4  C   LIG    1        5.807  -3.084  -1.314  0.00  0.00    +0.093 A 
ATOM      5  C   LIG    1        6.194  -2.200  -0.295  0.00  0.00    +0.030 A 
ATOM      6  C   LIG    1        6.661  -2.705   0.909  0.00  0.00    +0.003 A 
ATOM      7  C   LIG    1        6.700  -4.078   1.105  0.00  0.00    +0.017 A 
ATOM      8  C   LIG    1        6.337  -5.011   0.099  0.00  0.00    +0.085 A 
ATOM      9  N   LIG    1        5.271  -2.744  -2.522  0.00  0.00    -0.195 NA
ENDROOT
BRANCH   8  10
ATOM     10  C   LIG    1        6.430  -6.452   0.448  0.00  0.00    +0.344 C 
ATOM     11  O   LIG    1        6.650  -7.359  -0.325  0.00  0.00    -0.245 OA
BRANCH  10  12
ATOM     12  O   LIG    1        6.245  -6.603   1.797  0.00  0.00    -0.421 OA
BRANCH  12  13
ATOM     13  C   LIG    1        6.513  -7.897   2.362  0.00  0.00    +0.371 C 
ATOM     14  C   LIG    1        6.205  -7.827   3.859  0.00  0.00    +0.101 C 
BRANCH  13  15
ATOM     15  O   LIG    1        7.854  -8.402   2.282  0.00  0.00    -0.394 OA
BRANCH  15  16
ATOM     16  C   LIG    1        8.876  -7.534   2.262  0.00  0.00    +0.513 C 
ATOM     17  O   LIG    1        8.813  -6.328   2.026  0.00  0.00    -0.203 OA
BRANCH  16  18
ATOM     18  O   LIG    1       10.004  -8.193   2.559  0.00  0.00    -0.430 OA
BRANCH  18  19
ATOM     19  C   LIG    1       11.246  -7.643   2.091  0.00  0.00    +0.180 C 
ATOM     20  C   LIG    1       12.290  -8.707   2.433  0.00  0.00    +0.045 C 
ATOM     21  C   LIG    1       13.681  -8.295   1.980  0.00  0.00    +0.003 C 
ATOM     22  C   LIG    1       14.084  -6.951   2.577  0.00  0.00    +0.000 C 
ATOM     23  C   LIG    1       13.059  -5.870   2.247  0.00  0.00    +0.003 C 
ATOM     24  C   LIG    1       11.660  -6.293   2.703  0.00  0.00    +0.045 C 
ENDBRANCH  18  19
ENDBRANCH  16  18
ENDBRANCH  15  16
ENDBRANCH  13  15
ENDBRANCH  12  13
ENDBRANCH  10  12
ENDBRANCH   8  10
BRANCH   1  25
ATOM     25  O   LIG    1        4.577  -3.983  -4.378  0.00  0.00    -0.464 OA
BRANCH  25  27
ATOM     26  C   LIG    1        3.099  -3.091  -6.091  0.00  0.00    +0.048 C 
ATOM     27  C   LIG    1        3.641  -2.938  -4.678  0.00  0.00    +0.229 C 
ENDBRANCH  25  27
ENDBRANCH   1  25
BRANCH   2  28
ATOM     28  C   LIG    1        5.861  -6.248  -3.040  0.00  0.00    +0.162 C 
BRANCH  28  29
ATOM     29  C   LIG    1        4.753  -7.260  -2.869  0.00  0.00    -0.028 A 
ATOM     30  C   LIG    1        3.937  -7.290  -1.740  0.00  0.00    +0.006 A 
ATOM     31  C   LIG    1        2.934  -8.255  -1.581  0.00  0.00    +0.009 A 
ATOM     32  C   LIG    1        2.653  -9.220  -2.566  0.00  0.00    -0.017 A 
ATOM     33  C   LIG    1        3.485  -9.174  -3.699  0.00  0.00    +0.009 A 
ATOM     34  C   LIG    1        4.538  -8.248  -3.834  0.00  0.00    +0.006 A 
BRANCH  32  35
ATOM     35  C   LIG    1        1.496 -10.172  -2.412  0.00  0.00    -0.007 A 
ATOM     36  C   LIG    1        1.406 -11.486  -2.946  0.00  0.00    +0.030 A 
ATOM     37  C   LIG    1        0.220 -12.248  -2.770  0.00  0.00    +0.012 A 
ATOM     38  C   LIG    1       -0.875 -11.762  -2.070  0.00  0.00    +0.001 A 
ATOM     39  C   LIG    1       -0.807 -10.493  -1.529  0.00  0.00    +0.001 A 
ATOM     40  C   LIG    1        0.347  -9.717  -1.705  0.00  0.00    +0.009 A 
BRANCH  36  41
ATOM     41  C   LIG    1        2.450 -12.157  -3.711  0.00  0.00    +0.205 A 
ATOM     42  N   LIG    1        2.182 -13.001  -4.729  0.00  0.00    -0.133 NA
ATOM     43  N   LIG    1        3.422 -13.335  -5.095  0.00  0.00    -0.176 N 
ATOM     44  H   LIG    1        3.601 -14.014  -5.829  0.00  0.00    +0.214 HD
ATOM     45  N   LIG    1        4.412 -12.750  -4.418  0.00  0.00    -0.049 NA
ATOM     46  N   LIG    1        3.799 -12.040  -3.481  0.00  0.00    -0.108 NA
ENDBRANCH  36  41
ENDBRANCH  32  35
ENDBRANCH  28  29
ENDBRANCH   2  28
TORSDOF 13
