REMARK  Name = *****
REMARK                            x       y       z     vdW  Elec       q    Type
REMARK                         _______ _______ _______ _____ _____    ______ ____
ROOT
ATOM      1  C   LIG    1       14.741  -2.839   8.307  0.00  0.00    +0.002 C 
ENDROOT
BRANCH   1   2
ATOM      2  C   LIG    1       13.207  -2.942   8.203  0.00  0.00    +0.000 C 
BRANCH   2   3
ATOM      3  C   LIG    1       12.607  -2.524   6.857  0.00  0.00    -0.000 C 
BRANCH   3   4
ATOM      4  C   LIG    1       11.082  -2.713   6.856  0.00  0.00    -0.000 C 
BRANCH   4   5
ATOM      5  C   LIG    1       10.482  -2.309   5.513  0.00  0.00    -0.000 C 
BRANCH   5   6
ATOM      6  C   LIG    1        8.960  -2.472   5.494  0.00  0.00    -0.000 C 
BRANCH   6   7
ATOM      7  C   LIG    1        8.360  -2.051   4.147  0.00  0.00    -0.000 C 
BRANCH   7   8
ATOM      8  C   LIG    1        8.653  -0.595   3.774  0.00  0.00    -0.000 C 
BRANCH   8   9
ATOM      9  C   LIG    1        8.063   0.366   4.798  0.00  0.00    -0.000 C 
BRANCH   9  10
ATOM     10  C   LIG    1        8.352   1.822   4.454  0.00  0.00    -0.000 C 
BRANCH  10  11
ATOM     11  C   LIG    1        7.761   2.773   5.497  0.00  0.00    -0.000 C 
BRANCH  11  12
ATOM     12  C   LIG    1        6.239   2.644   5.593  0.00  0.00    -0.000 C 
BRANCH  12  14
ATOM     13  C   LIG    1        4.141   3.434   6.713  0.00  0.00    +0.004 C 
ATOM     14  C   LIG    1        5.651   3.591   6.630  0.00  0.00    -0.003 C 
ENDBRANCH  12  14
ENDBRANCH  11  12
ENDBRANCH  10  11
ENDBRANCH   9  10
ENDBRANCH   8   9
ENDBRANCH   7   8
ENDBRANCH   6   7
ENDBRANCH   5   6
ENDBRANCH   4   5
ENDBRANCH   3   4
ENDBRANCH   2   3
ENDBRANCH   1   2
BRANCH   1  15
ATOM     15  C   LIG    1       15.322  -1.423   8.182  0.00  0.00    +0.029 C 
BRANCH  15  16
ATOM     16  C   LIG    1       16.859  -1.364   8.266  0.00  0.00    +0.172 C 
BRANCH  16  17
ATOM     17  O   LIG    1       17.276  -0.001   8.158  0.00  0.00    -0.287 OA
BRANCH  17  18
ATOM     18  P   LIG    1       18.830   0.368   8.247  0.00  0.00    +0.475 P 
ATOM     19  O   LIG    1       19.797  -0.758   8.473  0.00  0.00    -0.227 OA
BRANCH  18  20
ATOM     20  O   LIG    1       19.105   1.137   6.869  0.00  0.00    -0.302 OA
ATOM     21  H   LIG    1       19.338   0.499   6.155  0.00  0.00    +0.222 HD
ENDBRANCH  18  20
BRANCH  18  22
ATOM     22  O   LIG    1       18.916   1.568   9.318  0.00  0.00    -0.281 OA
BRANCH  22  23
ATOM     23  C   LIG    1       20.181   2.175   9.550  0.00  0.00    +0.223 C 
BRANCH  23  24
ATOM     24  C   LIG    1       20.129   3.229  10.680  0.00  0.00    +0.161 C 
BRANCH  24  25
ATOM     25  N   LIG    1       19.251   4.488  10.418  0.00  0.00    +0.238 N 
ATOM     26  C   LIG    1       19.464   5.475  11.574  0.00  0.00    +0.192 C 
ATOM     27  C   LIG    1       17.772   4.112  10.402  0.00  0.00    +0.192 C 
ATOM     28  C   LIG    1       19.632   5.213   9.133  0.00  0.00    +0.192 C 
ENDBRANCH  24  25
ENDBRANCH  23  24
ENDBRANCH  22  23
ENDBRANCH  18  22
ENDBRANCH  17  18
ENDBRANCH  16  17
ENDBRANCH  15  16
ENDBRANCH   1  15
TORSDOF 21
