REMARK  Name = *****
REMARK                            x       y       z     vdW  Elec       q    Type
REMARK                         _______ _______ _______ _____ _____    ______ ____
ROOT
ATOM      1  C   LIG    1        1.165  -0.286   0.471  0.00  0.00    +0.158 C 
ATOM      2  N   LIG    1        2.451  -0.277  -0.280  0.00  0.00    -0.197 N 
ATOM      3  S   LIG    1        3.434  -1.657   0.013  0.00  0.00    +0.076 S 
ATOM      4  O   LIG    1        4.420  -1.744  -1.041  0.00  0.00    -0.150 OA
ATOM      5  O   LIG    1        2.607  -2.766   0.416  0.00  0.00    -0.150 OA
ATOM      6  C   LIG    1        4.378  -1.287   1.406  0.00  0.00    +0.127 A 
ATOM      7  C   LIG    1        4.536   0.016   1.818  0.00  0.00    +0.087 A 
ATOM      8  S   LIG    1        5.512   0.103   3.215  0.00  0.00    -0.091 S 
ATOM      9  C   LIG    1        5.780  -1.593   3.210  0.00  0.00    +0.048 A 
ATOM     10  C   LIG    1        4.009   1.204   1.166  0.00  0.00    +0.222 C 
ATOM     11  O   LIG    1        4.171   2.351   1.572  0.00  0.00    -0.284 OA
ATOM     12  C   LIG    1        5.107  -2.224   2.185  0.00  0.00    +0.037 A 
ATOM     13  C   LIG    1        3.233   0.944  -0.103  0.00  0.00    +0.156 C 
ATOM     14  C   LIG    1        3.178   1.773  -1.165  0.00  0.00    +0.210 C 
ENDROOT
BRANCH  14  15
ATOM     15  N   LIG    1        3.822   2.982  -1.279  0.00  0.00    -0.269 N 
ATOM     16  H   LIG    1        4.565   3.178  -0.612  0.00  0.00    +0.157 HD
BRANCH  15  17
ATOM     17  C   LIG    1        3.892   3.873  -2.352  0.00  0.00    +0.125 A 
ATOM     18  N   LIG    1        4.990   4.660  -2.392  0.00  0.00    -0.240 NA
ATOM     19  C   LIG    1        5.108   5.533  -3.421  0.00  0.00    +0.113 A 
ATOM     20  C   LIG    1        4.160   5.694  -4.414  0.00  0.00    +0.020 A 
ATOM     21  C   LIG    1        3.025   4.904  -4.355  0.00  0.00    +0.005 A 
ATOM     22  C   LIG    1        2.895   3.983  -3.319  0.00  0.00    +0.044 A 
ENDBRANCH  15  17
ENDBRANCH  14  15
BRANCH  14  23
ATOM     23  O   LIG    1        2.466   1.345  -2.282  0.00  0.00    -0.494 OA
ATOM     24  H   LIG    1        2.225   0.415  -2.108  0.00  0.00    +0.293 HD
ENDBRANCH  14  23
TORSDOF 3
