REMARK  Name = *****
REMARK                            x       y       z     vdW  Elec       q    Type
REMARK                         _______ _______ _______ _____ _____    ______ ____
ROOT
ATOM      1  C   LIG    1        1.022  -0.197  -0.200  0.00  0.00    +0.036 C 
ATOM      2  C   LIG    1        2.449  -0.024   0.220  0.00  0.00    -0.021 C 
ATOM      3  C   LIG    1        2.962   0.904   1.064  0.00  0.00    -0.015 C 
ENDROOT
BRANCH   3   4
ATOM      4  C   LIG    1        2.034   1.837   1.739  0.00  0.00    -0.017 A 
ATOM      5  C   LIG    1        1.430   1.485   2.954  0.00  0.00    +0.012 A 
ATOM      6  C   LIG    1        0.509   2.345   3.556  0.00  0.00    +0.046 A 
ATOM      7  C   LIG    1        0.194   3.554   2.946  0.00  0.00    +0.117 A 
ATOM      8  C   LIG    1        0.788   3.923   1.743  0.00  0.00    +0.046 A 
ATOM      9  C   LIG    1        1.713   3.065   1.143  0.00  0.00    +0.012 A 
BRANCH   7  10
ATOM     10  O   LIG    1       -0.719   4.357   3.562  0.00  0.00    -0.507 OA
ATOM     11  H   LIG    1       -0.828   5.165   3.034  0.00  0.00    +0.292 HD
ENDBRANCH   7  10
ENDBRANCH   3   4
BRANCH   3  12
ATOM     12  C   LIG    1        4.413   0.955   1.298  0.00  0.00    -0.015 C 
ATOM     13  C   LIG    1        5.309   1.203   0.313  0.00  0.00    -0.021 C 
ATOM     14  C   LIG    1        5.002   1.540  -1.112  0.00  0.00    +0.036 C 
BRANCH  12  15
ATOM     15  C   LIG    1        5.003   0.743   2.641  0.00  0.00    -0.017 A 
ATOM     16  C   LIG    1        5.255   1.836   3.482  0.00  0.00    +0.012 A 
ATOM     17  C   LIG    1        5.857   1.644   4.728  0.00  0.00    +0.046 A 
ATOM     18  C   LIG    1        6.204   0.362   5.136  0.00  0.00    +0.117 A 
ATOM     19  C   LIG    1        5.960  -0.737   4.317  0.00  0.00    +0.046 A 
ATOM     20  C   LIG    1        5.359  -0.545   3.069  0.00  0.00    +0.012 A 
BRANCH  18  21
ATOM     21  O   LIG    1        6.790   0.222   6.360  0.00  0.00    -0.507 OA
ATOM     22  H   LIG    1        6.942  -0.722   6.526  0.00  0.00    +0.292 HD
ENDBRANCH  18  21
ENDBRANCH  12  15
ENDBRANCH   3  12
TORSDOF 5
