REMARK  Name = *****
REMARK                            x       y       z     vdW  Elec       q    Type
REMARK                         _______ _______ _______ _____ _____    ______ ____
ROOT
ATOM      1  C   LIG    1        4.165   1.797  -1.168  0.00  0.00    +0.043 C 
ENDROOT
BRANCH   1   2
ATOM      2  C   LIG    1        5.657   2.095  -1.341  0.00  0.00    -0.043 A 
ATOM      3  C   LIG    1        6.125   3.405  -1.539  0.00  0.00    +0.005 A 
ATOM      4  C   LIG    1        7.490   3.675  -1.662  0.00  0.00    +0.020 A 
ATOM      5  C   LIG    1        8.411   2.638  -1.585  0.00  0.00    +0.041 A 
ATOM      6 CL   LIG    1       10.091   2.976  -1.728  0.00  0.00    -0.084 Cl
ATOM      7  C   LIG    1        7.975   1.331  -1.383  0.00  0.00    +0.020 A 
ATOM      8  C   LIG    1        6.605   1.060  -1.259  0.00  0.00    +0.005 A 
ENDBRANCH   1   2
BRANCH   1   9
ATOM      9  C   LIG    1        3.254   2.671  -2.072  0.00  0.00    +0.086 C 
BRANCH   9  10
ATOM     10  N   LIG    1        1.829   2.359  -1.947  0.00  0.00    -0.329 NA
ATOM     11  H   LIG    1        1.463   2.838  -1.117  0.00  0.00    +0.118 HD
ATOM     12  H   LIG    1        1.328   2.794  -2.724  0.00  0.00    +0.118 HD
ENDBRANCH   9  10
ENDBRANCH   1   9
BRANCH   1  13
ATOM     13  C   LIG    1        3.764   1.820   0.318  0.00  0.00    +0.129 C 
BRANCH  13  14
ATOM     14  C   LIG    1        3.911   3.168   0.981  0.00  0.00    +0.305 C 
ATOM     15  O   LIG    1        3.052   4.030   0.964  0.00  0.00    -0.251 OA
BRANCH  14  16
ATOM     16  O   LIG    1        5.101   3.343   1.605  0.00  0.00    -0.481 OA
ATOM     17  H   LIG    1        5.717   2.592   1.517  0.00  0.00    +0.295 HD
ENDBRANCH  14  16
ENDBRANCH  13  14
ENDBRANCH   1  13
TORSDOF 6
