REMARK  Name = *****
REMARK                            x       y       z     vdW  Elec       q    Type
REMARK                         _______ _______ _______ _____ _____    ______ ____
ROOT
ATOM      1  C   LIG    1        2.779  -2.066  -0.691  0.00  0.00    +0.123 C 
ENDROOT
BRANCH   1   4
ATOM      2 CL   LIG    1        1.448   0.108   1.316  0.00  0.00    -0.083 Cl
ATOM      3  C   LIG    1        2.521   0.473   0.004  0.00  0.00    +0.047 A 
ATOM      4  C   LIG    1        3.093  -0.517  -0.843  0.00  0.00    +0.005 A 
ATOM      5  C   LIG    1        3.939  -0.044  -1.875  0.00  0.00    +0.008 A 
ATOM      6  C   LIG    1        4.196   1.319  -2.057  0.00  0.00    +0.001 A 
ATOM      7  C   LIG    1        3.631   2.258  -1.207  0.00  0.00    +0.001 A 
ATOM      8  C   LIG    1        2.801   1.835  -0.179  0.00  0.00    +0.020 A 
ENDBRANCH   1   4
BRANCH   1   9
ATOM      9  C   LIG    1        3.323  -2.619   0.705  0.00  0.00    -0.013 A 
ATOM     10  C   LIG    1        4.134  -1.840   1.564  0.00  0.00    +0.006 A 
ATOM     11  C   LIG    1        4.641  -2.340   2.773  0.00  0.00    +0.000 A 
ATOM     12  C   LIG    1        4.386  -3.650   3.147  0.00  0.00    +0.000 A 
ATOM     13  C   LIG    1        3.656  -4.470   2.294  0.00  0.00    +0.000 A 
ATOM     14  C   LIG    1        3.160  -3.970   1.085  0.00  0.00    +0.006 A 
ENDBRANCH   1   9
BRANCH   1  15
ATOM     15  C   LIG    1        3.460  -2.913  -1.854  0.00  0.00    -0.013 A 
ATOM     16  C   LIG    1        4.786  -3.389  -1.725  0.00  0.00    +0.006 A 
ATOM     17  C   LIG    1        5.402  -4.129  -2.741  0.00  0.00    +0.000 A 
ATOM     18  C   LIG    1        4.724  -4.395  -3.925  0.00  0.00    +0.000 A 
ATOM     19  C   LIG    1        3.434  -3.909  -4.100  0.00  0.00    +0.000 A 
ATOM     20  C   LIG    1        2.814  -3.177  -3.083  0.00  0.00    +0.006 A 
ENDBRANCH   1  15
BRANCH   1  21
ATOM     21  N   LIG    1        1.280  -2.225  -0.841  0.00  0.00    -0.319 N 
ATOM     22  C   LIG    1        0.481  -1.420  -1.644  0.00  0.00    +0.200 A 
ATOM     23  N   LIG    1       -0.753  -1.855  -1.737  0.00  0.00    -0.244 NA
ATOM     24  C   LIG    1       -0.786  -2.982  -0.976  0.00  0.00    +0.130 A 
ATOM     25  C   LIG    1        0.445  -3.234  -0.418  0.00  0.00    +0.108 A 
ENDBRANCH   1  21
TORSDOF 4
