REMARK  Name = *****
REMARK                            x       y       z     vdW  Elec       q    Type
REMARK                         _______ _______ _______ _____ _____    ______ ____
ROOT
ATOM      1  N   LIG    1        2.969   0.043  -1.121  0.00  0.00    -0.296 NA
ATOM      2  C   LIG    1        1.986  -0.526  -2.068  0.00  0.00    +0.100 C 
ATOM      3  C   LIG    1        0.667   0.277  -2.197  0.00  0.00    +0.100 C 
ATOM      4  N   LIG    1        0.834   1.716  -2.532  0.00  0.00    -0.289 NA
ATOM      5  C   LIG    1        1.833   2.274  -1.587  0.00  0.00    +0.100 C 
ATOM      6  C   LIG    1        3.150   1.474  -1.450  0.00  0.00    +0.100 C 
ENDROOT
BRANCH   1   7
ATOM      7  C   LIG    1        2.563  -0.132   0.284  0.00  0.00    +0.112 C 
BRANCH   7   8
ATOM      8  C   LIG    1        2.475  -1.579   0.678  0.00  0.00    -0.011 C 
ATOM      9  C   LIG    1        1.370  -2.209   1.131  0.00  0.00    +0.005 C 
BRANCH   9  10
ATOM     10  C   LIG    1        1.379  -3.628   1.519  0.00  0.00    -0.025 A 
ATOM     11  C   LIG    1        0.510  -4.082   2.524  0.00  0.00    +0.008 A 
ATOM     12  C   LIG    1        0.522  -5.425   2.915  0.00  0.00    +0.001 A 
ATOM     13  C   LIG    1        1.384  -6.330   2.300  0.00  0.00    +0.000 A 
ATOM     14  C   LIG    1        2.236  -5.894   1.288  0.00  0.00    +0.001 A 
ATOM     15  C   LIG    1        2.223  -4.557   0.896  0.00  0.00    +0.008 A 
ENDBRANCH   9  10
ENDBRANCH   7   8
ENDBRANCH   1   7
BRANCH   4  16
ATOM     16  C   LIG    1        1.185   1.923  -3.974  0.00  0.00    +0.117 C 
BRANCH  16  17
ATOM     17  C   LIG    1        1.454   3.387  -4.368  0.00  0.00    -0.026 A 
ATOM     18  C   LIG    1        0.822   4.472  -3.734  0.00  0.00    +0.005 A 
ATOM     19  C   LIG    1        1.143   5.788  -4.073  0.00  0.00    +0.000 A 
ATOM     20  C   LIG    1        2.062   6.044  -5.088  0.00  0.00    +0.000 A 
ATOM     21  C   LIG    1        2.653   4.984  -5.771  0.00  0.00    +0.000 A 
ATOM     22  C   LIG    1        2.353   3.666  -5.414  0.00  0.00    +0.005 A 
ENDBRANCH  16  17
BRANCH  16  23
ATOM     23  C   LIG    1        0.126   1.324  -4.915  0.00  0.00    -0.026 A 
ATOM     24  C   LIG    1       -1.218   1.733  -4.857  0.00  0.00    +0.005 A 
ATOM     25  C   LIG    1       -2.182   1.145  -5.678  0.00  0.00    +0.000 A 
ATOM     26  C   LIG    1       -1.819   0.138  -6.571  0.00  0.00    +0.000 A 
ATOM     27  C   LIG    1       -0.490  -0.271  -6.652  0.00  0.00    +0.000 A 
ATOM     28  C   LIG    1        0.478   0.320  -5.835  0.00  0.00    +0.005 A 
ENDBRANCH  16  23
ENDBRANCH   4  16
TORSDOF 6
