REMARK  Name = *****
REMARK                            x       y       z     vdW  Elec       q    Type
REMARK                         _______ _______ _______ _____ _____    ______ ____
ROOT
ATOM      1  C   LIG    1       -5.861   8.573   1.395  0.00  0.00    +0.015 C 
ATOM      2  C   LIG    1       -6.352   7.191   0.932  0.00  0.00    +0.013 C 
ATOM      3  C   LIG    1       -7.746   6.837   1.563  0.00  0.00    +0.132 C 
ATOM      4  C   LIG    1       -7.848   5.319   1.341  0.00  0.00    +0.043 C 
ATOM      5  C   LIG    1       -6.406   4.798   1.368  0.00  0.00    +0.007 C 
ATOM      6  C   LIG    1       -5.493   6.037   1.520  0.00  0.00    +0.002 C 
ATOM      7  C   LIG    1       -4.090   5.816   0.919  0.00  0.00    +0.004 C 
ATOM      8  C   LIG    1       -3.010   6.724   1.562  0.00  0.00    +0.009 C 
ATOM      9  C   LIG    1       -2.183   7.600   0.616  0.00  0.00    +0.032 C 
ATOM     10  C   LIG    1       -1.846   7.002  -0.726  0.00  0.00    -0.056 C 
ATOM     11  C   LIG    1       -2.589   5.743  -1.153  0.00  0.00    +0.017 C 
ATOM     12  C   LIG    1       -1.837   4.511  -0.576  0.00  0.00    +0.021 C 
ATOM     13  C   LIG    1       -2.541   5.531  -2.659  0.00  0.00    -0.012 C 
ATOM     14  C   LIG    1       -1.724   6.202  -3.483  0.00  0.00    +0.047 C 
ATOM     15  C   LIG    1       -0.824   7.257  -2.963  0.00  0.00    +0.179 C 
ATOM     16  O   LIG    1        0.013   7.785  -3.671  0.00  0.00    -0.288 OA
ATOM     17  C   LIG    1       -1.020   7.670  -1.553  0.00  0.00    +0.051 C 
ATOM     18  C   LIG    1       -4.059   5.809  -0.624  0.00  0.00    +0.072 C 
ATOM     19  C   LIG    1       -4.897   6.986  -1.156  0.00  0.00    +0.138 C 
ATOM     20  O   LIG    1       -4.517   7.729  -2.061  0.00  0.00    -0.297 OA
ATOM     21  C   LIG    1       -6.316   7.131  -0.611  0.00  0.00    +0.084 C 
ENDROOT
BRANCH   3  22
ATOM     22  O   LIG    1       -7.660   7.042   2.983  0.00  0.00    -0.380 OA
ATOM     23  H   LIG    1       -8.560   6.999   3.364  0.00  0.00    +0.211 HD
ENDBRANCH   3  22
BRANCH   3  24
ATOM     24  C   LIG    1       -8.991   7.576   1.014  0.00  0.00    +0.190 C 
ATOM     25  O   LIG    1       -9.672   7.124   0.089  0.00  0.00    -0.292 OA
BRANCH  24  26
ATOM     26  C   LIG    1       -9.445   8.833   1.751  0.00  0.00    +0.233 C 
BRANCH  26  27
ATOM     27  O   LIG    1      -10.212   8.478   2.895  0.00  0.00    -0.387 OA
ATOM     28  H   LIG    1      -11.081   8.175   2.570  0.00  0.00    +0.210 HD
ENDBRANCH  26  27
ENDBRANCH  24  26
ENDBRANCH   3  24
TORSDOF 4
