REMARK  Name = *****
REMARK                            x       y       z     vdW  Elec       q    Type
REMARK                         _______ _______ _______ _____ _____    ______ ____
ROOT
ATOM      1  N   LIG    1        3.000  -0.725  -1.288  0.00  0.00    -0.346 NA
ATOM      2  C   LIG    1        2.872  -2.127  -1.441  0.00  0.00    +0.055 C 
ATOM      3  C   LIG    1        3.152  -2.710  -2.694  0.00  0.00    +0.049 C 
ATOM      4  C   LIG    1        3.023  -4.083  -2.912  0.00  0.00    +0.054 C 
ATOM      5  C   LIG    1        2.616  -4.907  -1.871  0.00  0.00    +0.145 C 
ATOM      6  C   LIG    1        2.337  -4.398  -0.592  0.00  0.00    +0.067 C 
ATOM      7  F   LIG    1        2.531  -6.219  -2.134  0.00  0.00    -0.203 F 
ATOM      8  C   LIG    1        3.596  -1.860  -3.824  0.00  0.00    +0.203 C 
ATOM      9  O   LIG    1        3.860  -2.336  -4.926  0.00  0.00    -0.286 OA
ATOM     10  C   LIG    1        3.722  -0.408  -3.600  0.00  0.00    +0.122 C 
ATOM     11  C   LIG    1        2.479  -3.003  -0.408  0.00  0.00    +0.052 C 
ATOM     12  C   LIG    1        3.409   0.040  -2.375  0.00  0.00    +0.105 C 
ENDROOT
BRANCH   6  13
ATOM     13  N   LIG    1        1.923  -5.173   0.516  0.00  0.00    -0.325 NA
ATOM     14  C   LIG    1        3.034  -5.438   1.464  0.00  0.00    +0.120 C 
ATOM     15  C   LIG    1        2.534  -6.202   2.719  0.00  0.00    +0.103 C 
ATOM     16  N   LIG    1        1.735  -7.420   2.459  0.00  0.00    -0.302 NA
ATOM     17  C   LIG    1        2.567  -8.516   1.962  0.00  0.00    +0.105 C 
ATOM     18  C   LIG    1        0.653  -7.079   1.507  0.00  0.00    +0.103 C 
ATOM     19  C   LIG    1        1.127  -6.384   0.208  0.00  0.00    +0.120 C 
ENDBRANCH   6  13
BRANCH   1  21
ATOM     20  C   LIG    1        1.104   0.249  -0.040  0.00  0.00    +0.027 C 
ATOM     21  C   LIG    1        2.592  -0.072  -0.030  0.00  0.00    +0.118 C 
ENDBRANCH   1  21
BRANCH  10  22
ATOM     22  C   LIG    1        4.160   0.546  -4.639  0.00  0.00    +0.342 C 
ATOM     23  O   LIG    1        4.257   1.750  -4.447  0.00  0.00    -0.245 OA
BRANCH  22  24
ATOM     24  O   LIG    1        4.459  -0.020  -5.825  0.00  0.00    -0.477 OA
ATOM     25  H   LIG    1        4.336  -0.999  -5.852  0.00  0.00    +0.295 HD
ENDBRANCH  22  24
ENDBRANCH  10  22
TORSDOF 4
