REMARK  Name = *****
REMARK                            x       y       z     vdW  Elec       q    Type
REMARK                         _______ _______ _______ _____ _____    ______ ____
ROOT
ATOM      1  C   LIG    1        4.562   0.104  -1.486  0.00  0.00    +0.005 C 
ATOM      2  C   LIG    1        5.559   0.402  -2.334  0.00  0.00    +0.006 C 
ENDROOT
BRANCH   2   3
ATOM      3  C   LIG    1        6.986   0.146  -2.074  0.00  0.00    -0.022 A 
ATOM      4  C   LIG    1        7.419  -0.958  -1.323  0.00  0.00    +0.057 A 
ATOM      5  C   LIG    1        8.777  -1.165  -1.187  0.00  0.00    +0.167 A 
ATOM      6  O   LIG    1        9.359  -2.188  -0.503  0.00  0.00    -0.453 OA
ATOM      7  C   LIG    1       10.755  -1.902  -0.724  0.00  0.00    +0.466 C 
ATOM      8  O   LIG    1       10.980  -0.722  -1.524  0.00  0.00    -0.453 OA
ATOM      9  C   LIG    1        9.701  -0.332  -1.768  0.00  0.00    +0.166 A 
ATOM     10  C   LIG    1        9.319   0.758  -2.517  0.00  0.00    +0.050 A 
ATOM     11  C   LIG    1        7.947   0.993  -2.672  0.00  0.00    +0.012 A 
ENDBRANCH   2   3
BRANCH   1  12
ATOM     12  C   LIG    1        3.101   0.324  -1.794  0.00  0.00    +0.143 C 
BRANCH  12  14
ATOM     13  C   LIG    1        2.205  -1.607  -0.349  0.00  0.00    +0.013 C 
ATOM     14  C   LIG    1        2.219  -0.966  -1.752  0.00  0.00    -0.008 C 
ATOM     15  C   LIG    1        0.764  -0.604  -2.118  0.00  0.00    +0.013 C 
ATOM     16  C   LIG    1        2.723  -2.007  -2.770  0.00  0.00    +0.013 C 
ENDBRANCH  12  14
BRANCH  12  17
ATOM     17  O   LIG    1        2.608   1.291  -0.868  0.00  0.00    -0.387 OA
ATOM     18  H   LIG    1        2.946   1.064   0.013  0.00  0.00    +0.210 HD
ENDBRANCH  12  17
ENDBRANCH   1  12
TORSDOF 4
