REMARK  Name = *****
REMARK                            x       y       z     vdW  Elec       q    Type
REMARK                         _______ _______ _______ _____ _____    ______ ____
ROOT
ATOM      1  C   LIG    1        3.204  -0.504  -1.761  0.00  0.00    +0.120 A 
ATOM      2  C   LIG    1        2.929  -1.873  -1.812  0.00  0.00    +0.050 A 
ATOM      3  C   LIG    1        2.899  -2.575  -3.040  0.00  0.00    -0.034 A 
ATOM      4  C   LIG    1        2.602  -4.098  -3.062  0.00  0.00    +0.002 C 
ATOM      5  C   LIG    1        1.067  -4.287  -2.880  0.00  0.00    +0.027 C 
ATOM      6  C   LIG    1        0.300  -4.441  -4.212  0.00  0.00    +0.085 C 
ATOM      7  N   LIG    1        0.869  -3.656  -5.308  0.00  0.00    -0.302 NA
ATOM      8  C   LIG    1        0.093  -3.803  -6.535  0.00  0.00    +0.105 C 
ATOM      9  C   LIG    1        2.322  -3.878  -5.538  0.00  0.00    +0.065 C 
ATOM     10  C   LIG    1        3.017  -2.507  -5.589  0.00  0.00    +0.054 C 
ATOM     11  C   LIG    1        2.954  -4.739  -4.431  0.00  0.00    +0.017 C 
ATOM     12  C   LIG    1        4.457  -5.007  -4.562  0.00  0.00    +0.006 C 
ATOM     13  C   LIG    1        4.908  -6.051  -3.533  0.00  0.00    +0.000 C 
ATOM     14  C   LIG    1        3.970  -6.163  -2.327  0.00  0.00    +0.001 C 
ATOM     15  C   LIG    1        3.410  -4.801  -1.923  0.00  0.00    +0.012 C 
ATOM     16  C   LIG    1        3.099  -1.848  -4.231  0.00  0.00    -0.042 A 
ATOM     17  C   LIG    1        3.387  -0.476  -4.172  0.00  0.00    +0.007 A 
ATOM     18  C   LIG    1        3.442   0.185  -2.947  0.00  0.00    +0.046 A 
ENDROOT
BRANCH   1  20
ATOM     19  C   LIG    1        3.029  -0.391   0.607  0.00  0.00    +0.277 C 
ATOM     20  O   LIG    1        3.269   0.264  -0.631  0.00  0.00    -0.495 OA
ENDBRANCH   1  20
TORSDOF 1
