REMARK  Name = *****
REMARK                            x       y       z     vdW  Elec       q    Type
REMARK                         _______ _______ _______ _____ _____    ______ ____
ROOT
ATOM      1  C   LIG    1        2.326  -1.551   0.992  0.00  0.00    +0.179 C 
ATOM      2  C   LIG    1        1.270  -2.636   0.751  0.00  0.00    +0.177 C 
ATOM      3  C   LIG    1        1.129  -2.900  -0.749  0.00  0.00    +0.180 C 
ATOM      4  C   LIG    1        2.480  -3.135  -1.432  0.00  0.00    +0.214 C 
ATOM      5  C   LIG    1        3.447  -1.982  -1.075  0.00  0.00    +0.339 C 
ATOM      6  O   LIG    1        3.565  -1.886   0.349  0.00  0.00    -0.331 OA
ENDROOT
BRANCH   2   7
ATOM      7  O   LIG    1       -0.002  -2.220   1.266  0.00  0.00    -0.387 OA
ATOM      8  H   LIG    1       -0.663  -2.845   0.908  0.00  0.00    +0.210 HD
ENDBRANCH   2   7
BRANCH   3   9
ATOM      9  O   LIG    1        0.257  -4.026  -0.970  0.00  0.00    -0.386 OA
ATOM     10  H   LIG    1        0.662  -4.808  -0.552  0.00  0.00    +0.210 HD
ENDBRANCH   3   9
BRANCH   4  11
ATOM     11  O   LIG    1        2.252  -3.227  -2.848  0.00  0.00    -0.383 OA
ATOM     12  H   LIG    1        1.476  -3.809  -2.964  0.00  0.00    +0.210 HD
ENDBRANCH   4  11
BRANCH   1  13
ATOM     13  C   LIG    1        2.600  -1.343   2.488  0.00  0.00    +0.190 C 
BRANCH  13  14
ATOM     14  O   LIG    1        3.046  -2.551   3.104  0.00  0.00    -0.392 OA
ATOM     15  H   LIG    1        3.322  -2.320   4.007  0.00  0.00    +0.209 HD
ENDBRANCH  13  14
ENDBRANCH   1  13
BRANCH   5  16
ATOM     16  O   LIG    1        4.730  -2.260  -1.662  0.00  0.00    -0.461 OA
BRANCH  16  17
ATOM     17  C   LIG    1        5.521  -1.173  -1.929  0.00  0.00    +0.124 A 
ATOM     18  C   LIG    1        6.413  -1.321  -2.994  0.00  0.00    +0.049 A 
ATOM     19  C   LIG    1        7.270  -0.277  -3.353  0.00  0.00    +0.049 A 
ATOM     20  C   LIG    1        7.243   0.912  -2.634  0.00  0.00    +0.117 A 
ATOM     21  C   LIG    1        6.378   1.067  -1.556  0.00  0.00    +0.049 A 
ATOM     22  C   LIG    1        5.521   0.020  -1.200  0.00  0.00    +0.049 A 
BRANCH  20  23
ATOM     23  O   LIG    1        8.093   1.909  -3.012  0.00  0.00    -0.507 OA
ATOM     24  H   LIG    1        7.969   2.664  -2.419  0.00  0.00    +0.292 HD
ENDBRANCH  20  23
ENDBRANCH  16  17
ENDBRANCH   5  16
TORSDOF 8
