REMARK  Name = *****
REMARK                            x       y       z     vdW  Elec       q    Type
REMARK                         _______ _______ _______ _____ _____    ______ ____
ROOT
ATOM      1  C   LIG    1        4.576   0.530   0.990  0.00  0.00    +0.213 C 
ATOM      2  C   LIG    1        4.763  -0.058   2.387  0.00  0.00    +0.015 A 
ATOM      3  C   LIG    1        5.196  -1.372   2.704  0.00  0.00    +0.050 A 
ATOM      4  C   LIG    1        5.336  -1.702   4.073  0.00  0.00    +0.024 A 
ATOM      5  C   LIG    1        5.051  -0.799   5.099  0.00  0.00    +0.002 A 
ATOM      6  C   LIG    1        4.608   0.473   4.788  0.00  0.00    +0.001 A 
ATOM      7  N   LIG    1        5.442  -2.420   1.732  0.00  0.00    -0.224 N 
ATOM      8  C   LIG    1        6.423  -3.404   1.951  0.00  0.00    +0.308 C 
ATOM      9  O   LIG    1        7.223  -3.461   2.883  0.00  0.00    -0.252 OA
ATOM     10  N   LIG    1        6.547  -4.354   0.974  0.00  0.00    -0.313 N 
ATOM     11  H   LIG    1        7.361  -4.947   1.064  0.00  0.00    +0.146 HD
ATOM     12  H   LIG    1        6.250  -4.135   0.034  0.00  0.00    +0.146 HD
ATOM     13  C   LIG    1        4.409  -2.600   0.761  0.00  0.00    +0.046 A 
ATOM     14  C   LIG    1        4.153  -1.611  -0.195  0.00  0.00    -0.022 A 
ATOM     15  C   LIG    1        3.152  -1.813  -1.157  0.00  0.00    +0.005 A 
ATOM     16  C   LIG    1        2.435  -3.009  -1.189  0.00  0.00    +0.000 A 
ATOM     17  C   LIG    1        2.704  -4.007  -0.258  0.00  0.00    +0.002 A 
ATOM     18  C   LIG    1        3.680  -3.800   0.717  0.00  0.00    +0.024 A 
ATOM     19  C   LIG    1        4.466   0.835   3.452  0.00  0.00    +0.009 A 
ATOM     20  C   LIG    1        4.971  -0.355  -0.188  0.00  0.00    +0.086 C 
ENDROOT
BRANCH   1  21
ATOM     21  O   LIG    1        5.358   1.754   0.913  0.00  0.00    -0.456 OA
BRANCH  21  23
ATOM     22  C   LIG    1        5.729   3.947   0.145  0.00  0.00    +0.136 C 
ATOM     23  C   LIG    1        4.878   2.715   0.081  0.00  0.00    +0.304 C 
ATOM     24  O   LIG    1        3.871   2.615  -0.612  0.00  0.00    -0.251 OA
ENDBRANCH  21  23
ENDBRANCH   1  21
TORSDOF 2
