REMARK  Name = *****
REMARK                            x       y       z     vdW  Elec       q    Type
REMARK                         _______ _______ _______ _____ _____    ______ ____
ROOT
ATOM      1  C   LIG    1      -14.236  -5.814  -2.424  0.00  0.00    +0.250 C 
ATOM      2  C   LIG    1      -15.680  -5.531  -2.934  0.00  0.00    +0.092 C 
ATOM      3  C   LIG    1      -16.558  -5.499  -1.600  0.00  0.00    +0.054 C 
ATOM      4  N   LIG    1      -17.898  -4.866  -1.472  0.00  0.00    -0.292 NA
ATOM      5  C   LIG    1      -18.562  -4.298  -2.647  0.00  0.00    +0.090 C 
ATOM      6  C   LIG    1      -18.211  -4.825  -4.044  0.00  0.00    +0.051 C 
ATOM      7  C   LIG    1      -17.008  -4.032  -4.481  0.00  0.00    -0.039 A 
ATOM      8  C   LIG    1      -17.206  -2.912  -5.310  0.00  0.00    +0.053 A 
ATOM      9  C   LIG    1      -16.194  -1.991  -5.400  0.00  0.00    +0.167 A 
ATOM     10  O   LIG    1      -16.258  -0.803  -6.057  0.00  0.00    -0.453 OA
ATOM     11  C   LIG    1      -15.013  -0.205  -5.643  0.00  0.00    +0.466 C 
ATOM     12  O   LIG    1      -14.168  -1.109  -4.897  0.00  0.00    -0.453 OA
ATOM     13  C   LIG    1      -15.009  -2.168  -4.735  0.00  0.00    +0.167 A 
ATOM     14  C   LIG    1      -14.762  -3.290  -3.959  0.00  0.00    +0.054 A 
ATOM     15  C   LIG    1      -18.816  -5.796  -0.779  0.00  0.00    +0.085 C 
ATOM     16  C   LIG    1      -18.351  -7.139  -1.214  0.00  0.00    +0.017 C 
ATOM     17  C   LIG    1      -16.878  -6.922  -1.097  0.00  0.00    +0.029 C 
ATOM     18  C   LIG    1      -15.501  -4.900  -0.678  0.00  0.00    +0.041 C 
ATOM     19  C   LIG    1      -15.777  -4.260  -3.814  0.00  0.00    -0.031 A 
ATOM     20  C   LIG    1      -14.242  -5.112  -1.106  0.00  0.00    +0.136 C 
ENDROOT
BRANCH  20  21
ATOM     21  O   LIG    1      -13.140  -4.568  -0.492  0.00  0.00    -0.496 OA
ATOM     22  C   LIG    1      -11.874  -4.676  -1.139  0.00  0.00    +0.277 C 
ENDBRANCH  20  21
BRANCH   1  23
ATOM     23  O   LIG    1      -13.863  -7.215  -2.443  0.00  0.00    -0.451 OA
BRANCH  23  24
ATOM     24  C   LIG    1      -14.445  -8.255  -1.762  0.00  0.00    +0.340 C 
ATOM     25  O   LIG    1      -14.643  -8.297  -0.571  0.00  0.00    -0.248 OA
BRANCH  24  26
ATOM     26  C   LIG    1      -14.547  -9.456  -2.750  0.00  0.00    +0.172 C 
BRANCH  26  27
ATOM     27  O   LIG    1      -14.326  -8.939  -4.090  0.00  0.00    -0.377 OA
ATOM     28  H   LIG    1      -13.948  -8.042  -4.003  0.00  0.00    +0.211 HD
ENDBRANCH  26  27
BRANCH  26  29
ATOM     29  C   LIG    1      -13.325 -10.219  -2.285  0.00  0.00    +0.166 C 
BRANCH  29  30
ATOM     30  C   LIG    1      -12.856 -11.318  -3.168  0.00  0.00    +0.310 C 
ATOM     31  O   LIG    1      -13.567 -12.156  -3.733  0.00  0.00    -0.251 OA
BRANCH  30  33
ATOM     32  C   LIG    1      -10.951 -12.670  -3.278  0.00  0.00    +0.280 C 
ATOM     33  O   LIG    1      -11.499 -11.380  -3.064  0.00  0.00    -0.468 OA
ENDBRANCH  30  33
ENDBRANCH  29  30
ENDBRANCH  26  29
BRANCH  26  34
ATOM     34  C   LIG    1      -15.861 -10.279  -2.885  0.00  0.00    +0.047 C 
BRANCH  34  35
ATOM     35  C   LIG    1      -16.459 -11.158  -1.766  0.00  0.00    +0.006 C 
BRANCH  35  36
ATOM     36  C   LIG    1      -17.093 -10.476  -0.547  0.00  0.00    +0.034 C 
BRANCH  36  37
ATOM     37  C   LIG    1      -17.748 -11.420   0.501  0.00  0.00    +0.060 C 
ATOM     38  C   LIG    1      -16.681 -12.351   1.075  0.00  0.00    +0.041 C 
ATOM     39  C   LIG    1      -18.965 -12.198  -0.012  0.00  0.00    +0.041 C 
BRANCH  37  40
ATOM     40  O   LIG    1      -18.225 -10.610   1.589  0.00  0.00    -0.389 OA
ATOM     41  H   LIG    1      -18.631 -11.206   2.245  0.00  0.00    +0.210 HD
ENDBRANCH  37  40
ENDBRANCH  36  37
ENDBRANCH  35  36
ENDBRANCH  34  35
ENDBRANCH  26  34
ENDBRANCH  24  26
ENDBRANCH  23  24
ENDBRANCH   1  23
TORSDOF 13
