REMARK  Name = *****
REMARK                            x       y       z     vdW  Elec       q    Type
REMARK                         _______ _______ _______ _____ _____    ______ ____
ROOT
ATOM      1  C   LIG    1        7.705   5.123  -2.229  0.00  0.00    +0.279 C 
ATOM      2  N   LIG    1        6.528   4.439  -1.947  0.00  0.00    -0.245 N 
ATOM      3  H   LIG    1        6.040   3.986  -2.721  0.00  0.00    +0.169 HD
ATOM      4  O   LIG    1        8.447   5.582  -1.356  0.00  0.00    -0.267 OA
ENDROOT
BRANCH   1   9
ATOM      5  C   LIG    1        9.707   6.040  -6.814  0.00  0.00    +0.089 C 
ATOM      6  C   LIG    1        8.921   5.700  -5.614  0.00  0.00    +0.135 A 
ATOM      7  O   LIG    1        7.753   5.033  -5.815  0.00  0.00    -0.359 OA
ATOM      8  N   LIG    1        7.165   4.750  -4.596  0.00  0.00    -0.073 NA
ATOM      9  C   LIG    1        7.992   5.253  -3.659  0.00  0.00    +0.169 A 
ATOM     10  C   LIG    1        9.108   5.883  -4.267  0.00  0.00    +0.080 A 
ENDBRANCH   1   9
BRANCH   2  11
ATOM     11  N   LIG    1        6.099   4.209  -0.617  0.00  0.00    -0.236 NA
ATOM     12  H   LIG    1        6.931   4.179  -0.015  0.00  0.00    +0.145 HD
BRANCH  11  13
ATOM     13  C   LIG    1        5.245   5.308  -0.139  0.00  0.00    +0.137 C 
BRANCH  13  14
ATOM     14  C   LIG    1        4.782   5.058   1.278  0.00  0.00    -0.032 A 
ATOM     15  C   LIG    1        5.561   5.466   2.370  0.00  0.00    +0.005 A 
ATOM     16  C   LIG    1        5.162   5.168   3.676  0.00  0.00    +0.000 A 
ATOM     17  C   LIG    1        3.984   4.459   3.903  0.00  0.00    +0.000 A 
ATOM     18  C   LIG    1        3.192   4.064   2.827  0.00  0.00    +0.000 A 
ATOM     19  C   LIG    1        3.587   4.364   1.521  0.00  0.00    +0.005 A 
ENDBRANCH  13  14
ENDBRANCH  11  13
ENDBRANCH   2  11
TORSDOF 4
