REMARK  Name = *****
REMARK                            x       y       z     vdW  Elec       q    Type
REMARK                         _______ _______ _______ _____ _____    ______ ____
ROOT
ATOM      1  C   LIG    1        4.321  -0.025  -0.081  0.00  0.00    +0.253 C 
ENDROOT
BRANCH   1   3
ATOM      2  O   LIG    1        0.947  -0.025  -0.081  0.00  0.00    -0.258 OA
ATOM      3  P   LIG    1        2.491  -0.025  -0.081  0.00  0.00    +0.339 P 
BRANCH   3   4
ATOM      4  O   LIG    1        2.535  -1.659  -0.248  0.00  0.00    -0.324 OA
ATOM      5  H   LIG    1        1.618  -1.988  -0.157  0.00  0.00    +0.220 HD
ENDBRANCH   3   4
BRANCH   3   6
ATOM      6  O   LIG    1        2.543  -0.034   1.563  0.00  0.00    -0.324 OA
ATOM      7  H   LIG    1        1.625  -0.146   1.884  0.00  0.00    +0.220 HD
ENDBRANCH   3   6
ENDBRANCH   1   3
BRANCH   1   8
ATOM      8  P   LIG    1        5.248   0.455  -1.507  0.00  0.00    +0.339 P 
ATOM      9  O   LIG    1        6.734   0.431  -1.414  0.00  0.00    -0.258 OA
BRANCH   8  10
ATOM     10  O   LIG    1        4.726   1.915  -1.911  0.00  0.00    -0.324 OA
ATOM     11  H   LIG    1        5.337   2.366  -2.526  0.00  0.00    +0.220 HD
ENDBRANCH   8  10
BRANCH   8  12
ATOM     12  O   LIG    1        4.723  -0.407  -2.747  0.00  0.00    -0.324 OA
ATOM     13  H   LIG    1        5.343  -0.395  -3.503  0.00  0.00    +0.220 HD
ENDBRANCH   8  12
ENDBRANCH   1   8
TORSDOF 6
