REMARK  Name = *****
REMARK                            x       y       z     vdW  Elec       q    Type
REMARK                         _______ _______ _______ _____ _____    ______ ____
ROOT
ATOM      1  C   LIG    1        4.957   2.147  -2.117  0.00  0.00    +0.126 C 
ATOM      2  C   LIG    1        3.862   2.704  -3.014  0.00  0.00    +0.236 C 
ATOM      3  O   LIG    1        3.476   2.146  -4.039  0.00  0.00    -0.274 OA
ATOM      4  N   LIG    1        3.254   3.853  -2.598  0.00  0.00    -0.239 N 
ATOM      5  H   LIG    1        2.490   4.186  -3.171  0.00  0.00    +0.159 HD
ATOM      6  C   LIG    1        3.849   4.802  -1.829  0.00  0.00    +0.312 C 
ATOM      7  O   LIG    1        3.394   5.934  -1.740  0.00  0.00    -0.252 OA
ATOM      8  N   LIG    1        5.001   4.444  -1.204  0.00  0.00    -0.239 N 
ATOM      9  H   LIG    1        5.455   5.158  -0.650  0.00  0.00    +0.159 HD
ATOM     10  C   LIG    1        5.626   3.232  -1.275  0.00  0.00    +0.236 C 
ATOM     11  O   LIG    1        6.662   3.045  -0.637  0.00  0.00    -0.274 OA
ENDROOT
BRANCH   1  12
ATOM     12  C   LIG    1        4.327   1.073  -1.126  0.00  0.00    +0.010 C 
ATOM     13  C   LIG    1        3.780  -0.171  -1.855  0.00  0.00    +0.009 C 
BRANCH  12  14
ATOM     14  C   LIG    1        3.218   1.651  -0.197  0.00  0.00    +0.004 C 
BRANCH  14  16
ATOM     15  C   LIG    1        1.644   1.289   1.756  0.00  0.00    +0.004 C 
ATOM     16  C   LIG    1        2.725   0.671   0.880  0.00  0.00    -0.003 C 
ENDBRANCH  14  16
ENDBRANCH  12  14
ENDBRANCH   1  12
BRANCH   1  17
ATOM     17  C   LIG    1        6.077   1.501  -2.994  0.00  0.00    +0.022 C 
ATOM     18  C   LIG    1        6.745   2.438  -4.002  0.00  0.00    +0.005 C 
ENDBRANCH   1  17
TORSDOF 4
