REMARK  Name = *****
REMARK                            x       y       z     vdW  Elec       q    Type
REMARK                         _______ _______ _______ _____ _____    ______ ____
ROOT
ATOM      1  S   LIG    1        7.854   0.293   0.074  0.00  0.00    +0.074 S 
ATOM      2  O   LIG    1        7.496  -0.349  -1.176  0.00  0.00    -0.150 OA
ATOM      3  O   LIG    1        7.947  -0.435   1.318  0.00  0.00    -0.150 OA
ENDROOT
BRANCH   1   4
ATOM      4  C   LIG    1        9.417   1.092  -0.202  0.00  0.00    +0.109 A 
ATOM      5  C   LIG    1       10.499   0.826   0.639  0.00  0.00    +0.030 A 
ATOM      6  C   LIG    1       11.735   1.426   0.377  0.00  0.00    +0.024 A 
ATOM      7  C   LIG    1       11.906   2.258  -0.734  0.00  0.00    +0.025 A 
ATOM      8  C   LIG    1       10.791   2.569  -1.521  0.00  0.00    +0.024 A 
ATOM      9  C   LIG    1        9.554   1.968  -1.279  0.00  0.00    +0.030 A 
BRANCH   7  10
ATOM     10  N   LIG    1       13.111   2.946  -0.918  0.00  0.00    -0.358 N 
ATOM     11  H   LIG    1       13.923   2.452  -0.561  0.00  0.00    +0.142 HD
ATOM     12  H   LIG    1       13.256   3.274  -1.869  0.00  0.00    +0.142 HD
ENDBRANCH   7  10
ENDBRANCH   1   4
BRANCH   1  13
ATOM     13  N   LIG    1        6.838   1.628   0.371  0.00  0.00    -0.192 N 
ATOM     14  H   LIG    1        6.861   1.738   1.388  0.00  0.00    +0.176 HD
BRANCH  13  18
ATOM     15  C   LIG    1        2.085   0.650  -1.543  0.00  0.00    +0.075 C 
ATOM     16  C   LIG    1        3.327   0.819  -0.747  0.00  0.00    +0.101 A 
ATOM     17  S   LIG    1        4.742   1.513  -1.440  0.00  0.00    -0.035 S 
ATOM     18  C   LIG    1        5.499   1.254   0.069  0.00  0.00    +0.201 A 
ATOM     19  N   LIG    1        4.716   0.783   1.008  0.00  0.00    -0.124 NA
ATOM     20  N   LIG    1        3.457   0.489   0.522  0.00  0.00    -0.145 NA
ENDBRANCH  13  18
ENDBRANCH   1  13
TORSDOF 4
