REMARK  Name = *****
REMARK                            x       y       z     vdW  Elec       q    Type
REMARK                         _______ _______ _______ _____ _____    ______ ____
ROOT
ATOM      1  C   LIG    1       12.842  -0.030   8.504  0.00  0.00    +0.134 C 
ATOM      2  C   LIG    1       11.558  -0.225   7.677  0.00  0.00    +0.079 C 
ATOM      3  C   LIG    1       10.899   1.063   7.173  0.00  0.00    +0.158 C 
ATOM      4  C   LIG    1       11.525   2.333   7.720  0.00  0.00    +0.030 A 
ATOM      5  C   LIG    1       12.914   2.430   7.935  0.00  0.00    +0.007 A 
ATOM      6  C   LIG    1       13.520   3.706   7.964  0.00  0.00    +0.132 A 
ATOM      7  C   LIG    1       12.733   4.865   7.981  0.00  0.00    +0.078 A 
ATOM      8  C   LIG    1       13.299   6.223   7.784  0.00  0.00    +0.198 C 
ATOM      9  O   LIG    1       14.517   6.367   7.708  0.00  0.00    -0.286 OA
ATOM     10  C   LIG    1       12.380   7.382   7.635  0.00  0.00    +0.037 A 
ATOM     11  C   LIG    1       11.036   7.244   7.990  0.00  0.00    +0.075 A 
ATOM     12  C   LIG    1       10.178   8.359   7.989  0.00  0.00    +0.132 A 
ATOM     13  C   LIG    1       10.652   9.590   7.535  0.00  0.00    +0.046 A 
ATOM     14  C   LIG    1       11.982   9.717   7.119  0.00  0.00    +0.004 A 
ATOM     15  C   LIG    1       10.515   5.902   8.322  0.00  0.00    +0.202 C 
ATOM     16  O   LIG    1        9.373   5.695   8.719  0.00  0.00    -0.286 OA
ATOM     17  C   LIG    1       12.854   8.625   7.192  0.00  0.00    +0.012 A 
ATOM     18  C   LIG    1       11.358   4.722   8.115  0.00  0.00    +0.078 A 
ATOM     19  C   LIG    1       10.753   3.465   7.942  0.00  0.00    +0.135 A 
ATOM     20  C   LIG    1       13.707   1.149   8.005  0.00  0.00    +0.082 C 
ENDROOT
BRANCH   1  21
ATOM     21  O   LIG    1       13.612  -1.226   8.336  0.00  0.00    -0.381 OA
ATOM     22  H   LIG    1       13.020  -1.993   8.441  0.00  0.00    +0.211 HD
ENDBRANCH   1  21
BRANCH  19  23
ATOM     23  O   LIG    1        9.393   3.307   7.872  0.00  0.00    -0.506 OA
ATOM     24  H   LIG    1        8.968   4.174   8.079  0.00  0.00    +0.292 HD
ENDBRANCH  19  23
BRANCH   6  25
ATOM     25  O   LIG    1       14.887   3.758   7.880  0.00  0.00    -0.506 OA
ATOM     26  H   LIG    1       15.171   4.701   7.874  0.00  0.00    +0.292 HD
ENDBRANCH   6  25
BRANCH  12  27
ATOM     27  O   LIG    1        8.955   8.197   8.570  0.00  0.00    -0.494 OA
ATOM     28  C   LIG    1        7.859   8.943   8.074  0.00  0.00    +0.277 C 
ENDBRANCH  12  27
BRANCH   1  29
ATOM     29  C   LIG    1       12.520   0.189  10.007  0.00  0.00    +0.202 C 
ATOM     30  O   LIG    1       11.869   1.161  10.403  0.00  0.00    -0.291 OA
BRANCH  29  31
ATOM     31  C   LIG    1       12.991  -0.871  10.992  0.00  0.00    +0.309 C 
BRANCH  31  32
ATOM     32  O   LIG    1       13.127  -0.249  12.277  0.00  0.00    -0.457 OA
BRANCH  32  33
ATOM     33  C   LIG    1       14.354   0.233  12.574  0.00  0.00    +0.307 C 
ATOM     34  O   LIG    1       15.424  -0.143  12.005  0.00  0.00    -0.251 OA
BRANCH  33  35
ATOM     35  C   LIG    1       14.275   1.277  13.636  0.00  0.00    +0.120 C 
BRANCH  35  36
ATOM     36  C   LIG    1       14.774   2.667  13.222  0.00  0.00    +0.011 C 
BRANCH  36  38
ATOM     37  C   LIG    1       17.197   2.553  14.121  0.00  0.00    +0.004 C 
ATOM     38  C   LIG    1       16.274   2.829  12.943  0.00  0.00    -0.003 C 
ENDBRANCH  36  38
ENDBRANCH  35  36
ENDBRANCH  33  35
ENDBRANCH  32  33
ENDBRANCH  31  32
ENDBRANCH  29  31
ENDBRANCH   1  29
BRANCH   3  39
ATOM     39  O   LIG    1       10.679   1.076   5.729  0.00  0.00    -0.343 OA
BRANCH  39  40
ATOM     40  C   LIG    1       11.791   1.113   4.826  0.00  0.00    +0.253 C 
ATOM     41  O   LIG    1       11.421   0.822   3.454  0.00  0.00    -0.346 OA
ATOM     42  C   LIG    1       10.589   1.838   2.887  0.00  0.00    +0.148 C 
ATOM     43  C   LIG    1        9.996   1.429   1.557  0.00  0.00    +0.040 C 
ATOM     44  C   LIG    1       11.210   3.245   2.827  0.00  0.00    +0.163 C 
ATOM     45  C   LIG    1       11.676   3.612   4.213  0.00  0.00    +0.109 C 
ATOM     46  C   LIG    1       12.496   2.456   4.796  0.00  0.00    +0.086 C 
BRANCH  45  47
ATOM     47  N   LIG    1       10.654   4.251   5.070  0.00  0.00    -0.302 N 
ATOM     48  H   LIG    1       11.055   4.882   5.743  0.00  0.00    +0.149 HD
ATOM     49  C   LIG    1        9.282   4.357   5.148  0.00  0.00    +0.318 C 
ATOM     50  O   LIG    1        8.883   5.222   5.946  0.00  0.00    -0.266 OA
BRANCH  49  51
ATOM     51  C   LIG    1        8.255   3.562   4.319  0.00  0.00    +0.469 C 
ATOM     52  F   LIG    1        6.972   3.987   4.497  0.00  0.00    -0.162 F 
ATOM     53  F   LIG    1        8.222   2.235   4.602  0.00  0.00    -0.162 F 
ATOM     54  F   LIG    1        8.485   3.699   2.983  0.00  0.00    -0.162 F 
ENDBRANCH  49  51
ENDBRANCH  45  47
BRANCH  44  55
ATOM     55  O   LIG    1       12.316   3.312   1.927  0.00  0.00    -0.387 OA
ATOM     56  H   LIG    1       12.242   4.163   1.457  0.00  0.00    +0.210 HD
ENDBRANCH  44  55
ENDBRANCH  39  40
ENDBRANCH   3  39
TORSDOF 16
