REMARK  Name = *****
REMARK                            x       y       z     vdW  Elec       q    Type
REMARK                         _______ _______ _______ _____ _____    ______ ____
ROOT
ATOM      1  C   LIG    1        2.629   1.263  -0.309  0.00  0.00    -0.034 A 
ATOM      2  C   LIG    1        3.352   1.532  -1.480  0.00  0.00    +0.005 A 
ATOM      3  C   LIG    1        3.776   2.832  -1.774  0.00  0.00    +0.004 A 
ATOM      4  C   LIG    1        3.497   3.888  -0.899  0.00  0.00    -0.047 A 
ATOM      5  C   LIG    1        2.763   3.624   0.262  0.00  0.00    +0.004 A 
ATOM      6  C   LIG    1        2.333   2.327   0.555  0.00  0.00    +0.005 A 
ENDROOT
BRANCH   1   8
ATOM      7  C   LIG    1        2.703  -0.669   1.306  0.00  0.00    +0.024 C 
ATOM      8  C   LIG    1        2.140  -0.150  -0.022  0.00  0.00    +0.124 C 
BRANCH   8   9
ATOM      9  C   LIG    1        0.619  -0.306  -0.048  0.00  0.00    +0.312 C 
ATOM     10  O   LIG    1        0.018  -1.193   0.549  0.00  0.00    -0.250 OA
BRANCH   9  11
ATOM     11  O   LIG    1       -0.044   0.559  -0.849  0.00  0.00    -0.480 OA
ATOM     12  H   LIG    1        0.521   1.229  -1.281  0.00  0.00    +0.295 HD
ENDBRANCH   9  11
ENDBRANCH   8   9
ENDBRANCH   1   8
BRANCH   4  13
ATOM     13  C   LIG    1        3.968   5.292  -1.202  0.00  0.00    +0.046 C 
BRANCH  13  14
ATOM     14  C   LIG    1        5.487   5.419  -1.313  0.00  0.00    +0.059 C 
ATOM     15  C   LIG    1        5.911   6.863  -1.486  0.00  0.00    +0.137 C 
ATOM     16  O   LIG    1        5.375   7.650  -2.256  0.00  0.00    -0.297 OA
ATOM     17  C   LIG    1        7.068   7.228  -0.592  0.00  0.00    +0.075 C 
ATOM     18  C   LIG    1        7.525   5.864  -0.097  0.00  0.00    +0.008 C 
ATOM     19  C   LIG    1        6.247   5.036  -0.038  0.00  0.00    +0.012 C 
ENDBRANCH  13  14
ENDBRANCH   4  13
TORSDOF 5
