REMARK  Name = *****
REMARK                            x       y       z     vdW  Elec       q    Type
REMARK                         _______ _______ _______ _____ _____    ______ ____
ROOT
ATOM      1  C   LIG    1        9.279  -2.101   0.177  0.00  0.00    +0.170 C 
ENDROOT
BRANCH   1   2
ATOM      2  C   LIG    1       10.495  -3.025   0.387  0.00  0.00    +0.001 A 
ATOM      3  C   LIG    1       11.691  -2.915  -0.356  0.00  0.00    +0.048 A 
ATOM      4 CL   LIG    1       11.875  -1.748  -1.617  0.00  0.00    -0.083 Cl
ATOM      5  C   LIG    1       12.788  -3.759  -0.107  0.00  0.00    +0.040 A 
ATOM      6  C   LIG    1       12.698  -4.745   0.869  0.00  0.00    +0.042 A 
ATOM      7 CL   LIG    1       14.016  -5.819   1.139  0.00  0.00    -0.084 Cl
ATOM      8  C   LIG    1       11.537  -4.873   1.622  0.00  0.00    +0.020 A 
ATOM      9  C   LIG    1       10.457  -4.010   1.394  0.00  0.00    +0.009 A 
ENDBRANCH   1   2
BRANCH   1  10
ATOM     10  O   LIG    1        8.086  -2.837   0.529  0.00  0.00    -0.366 OA
BRANCH  10  11
ATOM     11  C   LIG    1        7.029  -2.761  -0.436  0.00  0.00    +0.196 C 
BRANCH  11  16
ATOM     12 CL   LIG    1        2.406  -6.276   1.264  0.00  0.00    -0.084 Cl
ATOM     13  C   LIG    1        3.664  -5.200   0.792  0.00  0.00    +0.041 A 
ATOM     14  C   LIG    1        3.884  -4.940  -0.558  0.00  0.00    +0.020 A 
ATOM     15  C   LIG    1        4.959  -4.130  -0.944  0.00  0.00    +0.007 A 
ATOM     16  C   LIG    1        5.832  -3.582   0.012  0.00  0.00    -0.022 A 
ATOM     17  C   LIG    1        5.539  -3.788   1.370  0.00  0.00    +0.007 A 
ATOM     18  C   LIG    1        4.469  -4.603   1.758  0.00  0.00    +0.020 A 
ENDBRANCH  11  16
ENDBRANCH  10  11
ENDBRANCH   1  10
BRANCH   1  19
ATOM     19  C   LIG    1        9.405  -0.870   1.107  0.00  0.00    +0.159 C 
BRANCH  19  20
ATOM     20  N   LIG    1        8.477   0.218   0.833  0.00  0.00    -0.334 N 
ATOM     21  C   LIG    1        8.506   1.037  -0.259  0.00  0.00    +0.199 A 
ATOM     22  N   LIG    1        7.610   1.982  -0.188  0.00  0.00    -0.244 NA
ATOM     23  C   LIG    1        6.995   1.805   1.026  0.00  0.00    +0.130 A 
ATOM     24  C   LIG    1        7.531   0.725   1.684  0.00  0.00    +0.107 A 
ENDBRANCH  19  20
ENDBRANCH   1  19
TORSDOF 6
