REMARK  Name = *****
REMARK                            x       y       z     vdW  Elec       q    Type
REMARK                         _______ _______ _______ _____ _____    ______ ____
ROOT
ATOM      1  C   LIG    1        7.350   2.142  -1.736  0.00  0.00    -0.045 A 
ATOM      2  C   LIG    1        7.846   3.261  -1.060  0.00  0.00    +0.016 A 
ATOM      3  C   LIG    1        9.213   3.578  -1.075  0.00  0.00    +0.055 A 
ATOM      4  C   LIG    1       10.092   2.740  -1.776  0.00  0.00    +0.012 A 
ATOM      5  C   LIG    1        9.610   1.619  -2.451  0.00  0.00    +0.001 A 
ATOM      6  C   LIG    1        8.247   1.320  -2.429  0.00  0.00    +0.003 A 
ENDROOT
BRANCH   3   7
ATOM      7  C   LIG    1        9.700   4.811  -0.343  0.00  0.00    +0.417 C 
ATOM      8  F   LIG    1        9.451   4.758   0.994  0.00  0.00    -0.166 F 
ATOM      9  F   LIG    1        9.094   5.943  -0.794  0.00  0.00    -0.166 F 
ATOM     10  F   LIG    1       11.036   5.024  -0.470  0.00  0.00    -0.166 F 
ENDBRANCH   3   7
BRANCH   1  11
ATOM     11  C   LIG    1        5.869   1.833  -1.731  0.00  0.00    +0.053 C 
BRANCH  11  12
ATOM     12  C   LIG    1        5.402   0.887  -0.597  0.00  0.00    +0.055 C 
ATOM     13  C   LIG    1        5.656   1.504   0.787  0.00  0.00    +0.024 C 
BRANCH  12  14
ATOM     14  N   LIG    1        3.954   0.588  -0.677  0.00  0.00    -0.314 NA
ATOM     15  H   LIG    1        3.683   0.043   0.144  0.00  0.00    +0.122 HD
BRANCH  14  17
ATOM     16  C   LIG    1        2.082  -0.451  -1.880  0.00  0.00    +0.020 C 
ATOM     17  C   LIG    1        3.575  -0.154  -1.880  0.00  0.00    +0.077 C 
ENDBRANCH  14  17
ENDBRANCH  12  14
ENDBRANCH  11  12
ENDBRANCH   1  11
TORSDOF 5
