REMARK  Name = *****
REMARK                            x       y       z     vdW  Elec       q    Type
REMARK                         _______ _______ _______ _____ _____    ______ ____
ROOT
ATOM      1  C   LIG    1        2.535   0.729  -2.067  0.00  0.00    +0.250 C 
ATOM      2  N   LIG    1        3.202   1.946  -1.968  0.00  0.00    -0.283 N 
ATOM      3  H   LIG    1        3.044   2.481  -1.119  0.00  0.00    +0.155 HD
ATOM      4  O   LIG    1        2.710  -0.133  -2.924  0.00  0.00    -0.272 OA
ENDROOT
BRANCH   2   5
ATOM      5  C   LIG    1        4.226   2.367  -2.836  0.00  0.00    +0.034 A 
ATOM      6  C   LIG    1        5.159   3.312  -2.393  0.00  0.00    +0.037 A 
ATOM      7  C   LIG    1        6.216   3.746  -3.234  0.00  0.00    +0.074 A 
ATOM      8  C   LIG    1        6.298   3.231  -4.537  0.00  0.00    +0.064 A 
ATOM      9  C   LIG    1        5.349   2.306  -4.980  0.00  0.00    +0.021 A 
ATOM     10  C   LIG    1        4.329   1.876  -4.135  0.00  0.00    +0.024 A 
BRANCH   7  11
ATOM     11  C   LIG    1        7.210   4.735  -2.669  0.00  0.00    +0.419 C 
ATOM     12  F   LIG    1        7.857   4.242  -1.577  0.00  0.00    -0.166 F 
ATOM     13  F   LIG    1        6.598   5.878  -2.249  0.00  0.00    -0.166 F 
ATOM     14  F   LIG    1        8.183   5.135  -3.526  0.00  0.00    -0.166 F 
ENDBRANCH   7  11
BRANCH   8  15
ATOM     15  C   LIG    1        7.325   3.604  -5.477  0.00  0.00    +0.100 C 
ATOM     16  N   LIG    1        8.117   3.870  -6.265  0.00  0.00    -0.191 NA
ENDBRANCH   8  15
ENDBRANCH   2   5
BRANCH   1  18
ATOM     17  C   LIG    1        0.148   0.199  -1.692  0.00  0.00    +0.053 C 
ATOM     18  C   LIG    1        1.476   0.524  -0.966  0.00  0.00    +0.158 C 
BRANCH  18  19
ATOM     19  O   LIG    1        1.243   1.720  -0.219  0.00  0.00    -0.378 OA
ATOM     20  H   LIG    1        0.784   2.342  -0.818  0.00  0.00    +0.211 HD
ENDBRANCH  18  19
BRANCH  18  21
ATOM     21  C   LIG    1        1.849  -0.642  -0.046  0.00  0.00    +0.215 C 
BRANCH  21  22
ATOM     22  S   LIG    1        3.378  -0.542   0.857  0.00  0.00    +0.000 S 
ATOM     23  O   LIG    1        4.440  -0.179  -0.061  0.00  0.00    -0.169 OA
ATOM     24  O   LIG    1        3.489  -1.755   1.647  0.00  0.00    -0.169 OA
BRANCH  22  25
ATOM     25  C   LIG    1        3.247   0.786   2.040  0.00  0.00    +0.088 A 
ATOM     26  C   LIG    1        4.152   1.854   1.969  0.00  0.00    +0.030 A 
ATOM     27  C   LIG    1        3.974   2.966   2.791  0.00  0.00    +0.040 A 
ATOM     28  C   LIG    1        2.948   2.968   3.728  0.00  0.00    +0.123 A 
ATOM     29  F   LIG    1        2.756   4.051   4.492  0.00  0.00    -0.205 F 
ATOM     30  C   LIG    1        2.123   1.856   3.888  0.00  0.00    +0.040 A 
ATOM     31  C   LIG    1        2.269   0.753   3.040  0.00  0.00    +0.030 A 
ENDBRANCH  22  25
ENDBRANCH  21  22
ENDBRANCH  18  21
ENDBRANCH   1  18
TORSDOF 8
