REMARK  Name = *****
REMARK                            x       y       z     vdW  Elec       q    Type
REMARK                         _______ _______ _______ _____ _____    ______ ____
ROOT
ATOM      1  C   LIG    1       -7.097   0.531  -4.648  0.00  0.00    +0.132 A 
ATOM      2  C   LIG    1       -5.934   0.130  -3.952  0.00  0.00    +0.075 A 
ATOM      3  C   LIG    1       -5.226  -1.163  -4.204  0.00  0.00    +0.202 C 
ATOM      4  C   LIG    1       -4.113  -1.592  -3.319  0.00  0.00    +0.078 A 
ATOM      5  C   LIG    1       -3.659  -0.736  -2.321  0.00  0.00    +0.078 A 
ATOM      6  C   LIG    1       -4.246   0.604  -2.189  0.00  0.00    +0.198 C 
ATOM      7  O   LIG    1       -3.757   1.397  -1.375  0.00  0.00    -0.286 OA
ATOM      8  C   LIG    1       -2.663  -1.152  -1.432  0.00  0.00    +0.132 A 
ATOM      9  C   LIG    1       -2.092  -2.429  -1.525  0.00  0.00    +0.007 A 
ATOM     10  C   LIG    1       -1.103  -2.841  -0.453  0.00  0.00    +0.082 C 
ATOM     11  C   LIG    1       -0.358  -4.143  -0.741  0.00  0.00    +0.133 C 
ATOM     12  C   LIG    1       -1.363  -5.164  -1.297  0.00  0.00    +0.079 C 
ATOM     13  C   LIG    1       -1.902  -4.713  -2.661  0.00  0.00    +0.158 C 
ATOM     14  C   LIG    1       -2.511  -3.311  -2.546  0.00  0.00    +0.030 A 
ATOM     15  C   LIG    1       -3.518  -2.872  -3.432  0.00  0.00    +0.135 A 
ATOM     16  O   LIG    1       -5.532  -1.920  -5.132  0.00  0.00    -0.286 OA
ATOM     17  C   LIG    1       -5.419   0.995  -2.977  0.00  0.00    +0.037 A 
ATOM     18  C   LIG    1       -6.017   2.228  -2.696  0.00  0.00    +0.012 A 
ATOM     19  C   LIG    1       -7.150   2.618  -3.388  0.00  0.00    +0.004 A 
ATOM     20  C   LIG    1       -7.687   1.773  -4.358  0.00  0.00    +0.046 A 
ENDROOT
BRANCH   1  22
ATOM     21  C   LIG    1       -8.777   0.079  -6.295  0.00  0.00    +0.277 C 
ATOM     22  O   LIG    1       -7.619  -0.333  -5.576  0.00  0.00    -0.494 OA
ENDBRANCH   1  22
BRANCH   8  23
ATOM     23  O   LIG    1       -2.223  -0.354  -0.402  0.00  0.00    -0.506 OA
ATOM     24  H   LIG    1       -2.637   0.534  -0.489  0.00  0.00    +0.292 HD
ENDBRANCH   8  23
BRANCH  11  25
ATOM     25  O   LIG    1        0.724  -3.891  -1.642  0.00  0.00    -0.381 OA
ATOM     26  H   LIG    1        0.353  -3.724  -2.536  0.00  0.00    +0.211 HD
ENDBRANCH  11  25
BRANCH  11  27
ATOM     27  C   LIG    1        0.294  -4.663   0.551  0.00  0.00    +0.190 C 
ATOM     28  O   LIG    1        0.018  -5.762   1.043  0.00  0.00    -0.292 OA
BRANCH  27  29
ATOM     29  C   LIG    1        1.292  -3.733   1.246  0.00  0.00    +0.233 C 
BRANCH  29  30
ATOM     30  O   LIG    1        1.880  -4.326   2.395  0.00  0.00    -0.387 OA
ATOM     31  H   LIG    1        1.217  -4.950   2.750  0.00  0.00    +0.210 HD
ENDBRANCH  29  30
ENDBRANCH  27  29
ENDBRANCH  11  27
BRANCH  15  32
ATOM     32  O   LIG    1       -3.928  -3.760  -4.399  0.00  0.00    -0.506 OA
ATOM     33  H   LIG    1       -4.599  -3.317  -4.968  0.00  0.00    +0.292 HD
ENDBRANCH  15  32
BRANCH  13  34
ATOM     34  O   LIG    1       -0.853  -4.675  -3.647  0.00  0.00    -0.343 OA
BRANCH  34  35
ATOM     35  C   LIG    1       -0.171  -5.920  -3.907  0.00  0.00    +0.253 C 
ATOM     36  O   LIG    1        0.862  -5.647  -4.863  0.00  0.00    -0.346 OA
ATOM     37  C   LIG    1        1.687  -6.771  -5.212  0.00  0.00    +0.148 C 
ATOM     38  C   LIG    1        2.655  -7.165  -4.099  0.00  0.00    +0.040 C 
ATOM     39  C   LIG    1        0.828  -7.923  -5.760  0.00  0.00    +0.160 C 
ATOM     40  C   LIG    1       -0.390  -8.268  -4.878  0.00  0.00    +0.087 C 
ATOM     41  C   LIG    1       -1.116  -6.994  -4.437  0.00  0.00    +0.082 C 
BRANCH  40  42
ATOM     42  N   LIG    1       -0.091  -9.127  -3.723  0.00  0.00    -0.325 NA
ATOM     43  H   LIG    1        0.294 -10.015  -4.049  0.00  0.00    +0.119 HD
ATOM     44  H   LIG    1        0.604  -8.725  -3.101  0.00  0.00    +0.119 HD
ENDBRANCH  40  42
BRANCH  39  45
ATOM     45  O   LIG    1        0.331  -7.526  -7.052  0.00  0.00    -0.388 OA
ATOM     46  H   LIG    1        0.062  -6.590  -6.977  0.00  0.00    +0.210 HD
ENDBRANCH  39  45
ENDBRANCH  34  35
ENDBRANCH  13  34
TORSDOF 11
