REMARK  Name = *****
REMARK                            x       y       z     vdW  Elec       q    Type
REMARK                         _______ _______ _______ _____ _____    ______ ____
ROOT
ATOM      1  N   LIG    1       -1.547   3.458   2.790  0.00  0.00    -0.301 N 
ATOM      2  H   LIG    1       -1.138   3.899   3.610  0.00  0.00    +0.150 HD
ATOM      3  C   LIG    1       -1.029   3.761   1.549  0.00  0.00    +0.232 C 
ATOM      4  O   LIG    1       -1.432   3.178   0.540  0.00  0.00    -0.275 OA
ENDROOT
BRANCH   1  10
ATOM      5  C   LIG    1       -0.593   1.828   6.570  0.00  0.00    +0.025 C 
ATOM      6  C   LIG    1       -0.918   0.554   5.770  0.00  0.00    +0.042 C 
ATOM      7  CA  LIG    1       -2.452   0.331   5.695  0.00  0.00    +0.201 C 
ATOM      8  N   LIG    1       -2.926   0.875   4.415  0.00  0.00    -0.271 N 
ATOM      9  C   LIG    1       -1.975   0.934   3.285  0.00  0.00    +0.165 C 
ATOM     10  CA  LIG    1       -2.532   2.345   2.959  0.00  0.00    +0.190 C 
ATOM     11  C   LIG    1       -3.218   2.214   4.338  0.00  0.00    +0.240 C 
ATOM     12  O   LIG    1       -3.687   2.958   5.171  0.00  0.00    -0.273 OA
ATOM     13  S   LIG    1       -0.317   0.827   4.033  0.00  0.00    -0.127 S 
ATOM     14  C   LIG    1       -0.109  -0.606   6.361  0.00  0.00    +0.025 C 
BRANCH   7  15
ATOM     15  C   LIG    1       -2.936  -1.115   5.850  0.00  0.00    +0.327 C 
ATOM     16  O   LIG    1       -2.723  -1.813   6.832  0.00  0.00    -0.249 OA
BRANCH  15  17
ATOM     17  OXT LIG    1       -3.682  -1.560   4.810  0.00  0.00    -0.479 OA
ATOM     18  HXT LIG    1       -3.820  -0.845   4.157  0.00  0.00    +0.295 HD
ENDBRANCH  15  17
ENDBRANCH   7  15
ENDBRANCH   1  10
BRANCH   3  19
ATOM     19  C   LIG    1       -0.059   4.940   1.474  0.00  0.00    +0.213 C 
BRANCH  19  20
ATOM     20  C   LIG    1        1.161   4.725   2.364  0.00  0.00    -0.025 A 
ATOM     21  C   LIG    1        2.085   3.701   2.102  0.00  0.00    +0.005 A 
ATOM     22  C   LIG    1        3.180   3.502   2.947  0.00  0.00    +0.000 A 
ATOM     23  C   LIG    1        3.351   4.301   4.075  0.00  0.00    +0.000 A 
ATOM     24  C   LIG    1        2.441   5.319   4.348  0.00  0.00    +0.000 A 
ATOM     25  C   LIG    1        1.365   5.546   3.486  0.00  0.00    +0.005 A 
ENDBRANCH  19  20
BRANCH  19  26
ATOM     26  C   LIG    1        0.305   5.366   0.049  0.00  0.00    +0.321 C 
ATOM     27  O   LIG    1        1.323   5.981  -0.243  0.00  0.00    -0.250 OA
BRANCH  26  28
ATOM     28  O   LIG    1       -0.645   5.143  -0.894  0.00  0.00    -0.480 OA
ATOM     29  H   LIG    1       -1.378   4.552  -0.607  0.00  0.00    +0.295 HD
ENDBRANCH  26  28
ENDBRANCH  19  26
ENDBRANCH   3  19
TORSDOF 7
