REMARK  Name = *****
REMARK                            x       y       z     vdW  Elec       q    Type
REMARK                         _______ _______ _______ _____ _____    ______ ____
ROOT
ATOM      1  C   LIG    1        6.232  -1.748  -3.640  0.00  0.00    +0.161 C 
ENDROOT
BRANCH   1   3
ATOM      2  C   LIG    1        5.334  -1.881  -1.064  0.00  0.00    +0.113 C 
ATOM      3  N   LIG    1        5.375  -2.239  -2.416  0.00  0.00    -0.292 N 
ATOM      4  C   LIG    1        4.590  -3.402  -2.728  0.00  0.00    +0.258 C 
ATOM      5  O   LIG    1        4.560  -3.888  -3.848  0.00  0.00    -0.267 OA
ATOM      6  C   LIG    1        3.803  -4.047  -1.607  0.00  0.00    +0.044 C 
ATOM      7  C   LIG    1        3.753  -3.423  -0.466  0.00  0.00    +0.049 C 
ATOM      8  C   LIG    1        2.963  -3.760   0.772  0.00  0.00    +0.066 C 
ATOM      9  N   LIG    1        4.580  -2.316  -0.218  0.00  0.00    -0.238 NA
BRANCH   2  10
ATOM     10  C   LIG    1        6.249  -0.844  -0.410  0.00  0.00    +0.074 C 
BRANCH  10  11
ATOM     11  C   LIG    1        7.881  -1.306  -0.381  0.00  0.00    +0.007 C 
BRANCH  11  13
ATOM     12  C   LIG    1       10.191  -2.035  -1.993  0.00  0.00    +0.004 C 
ATOM     13  C   LIG    1        8.679  -1.956  -1.742  0.00  0.00    -0.003 C 
ENDBRANCH  11  13
ENDBRANCH  10  11
ENDBRANCH   2  10
BRANCH   6  14
ATOM     14  C   LIG    1        3.103  -5.373  -1.942  0.00  0.00    +0.101 C 
BRANCH  14  15
ATOM     15  C   LIG    1        3.544  -6.551  -1.041  0.00  0.00    +0.055 C 
ATOM     16  S   LIG    1        2.363  -7.395  -0.169  0.00  0.00    -0.040 S 
BRANCH  15  17
ATOM     17  N   LIG    1        4.893  -6.917  -1.028  0.00  0.00    -0.333 N 
ATOM     18  C   LIG    1        5.557  -7.198   0.242  0.00  0.00    +0.129 C 
ATOM     19  C   LIG    1        5.790  -6.592  -2.127  0.00  0.00    +0.129 C 
ENDBRANCH  15  17
ENDBRANCH  14  15
ENDBRANCH   6  14
ENDBRANCH   1   3
BRANCH   1  20
ATOM     20  C   LIG    1        7.011  -0.310  -3.756  0.00  0.00    -0.028 A 
ATOM     21  C   LIG    1        7.453   0.329  -2.620  0.00  0.00    +0.006 A 
ATOM     22  C   LIG    1        8.757   0.854  -2.269  0.00  0.00    +0.009 A 
ATOM     23  C   LIG    1        9.681   1.087  -3.241  0.00  0.00    -0.017 A 
ATOM     24  C   LIG    1        9.117   0.796  -4.499  0.00  0.00    +0.009 A 
ATOM     25  C   LIG    1        7.873   0.046  -4.759  0.00  0.00    +0.006 A 
BRANCH  23  26
ATOM     26  C   LIG    1       11.110   1.498  -2.885  0.00  0.00    -0.007 A 
ATOM     27  C   LIG    1       12.230   1.472  -3.767  0.00  0.00    +0.028 A 
ATOM     28  C   LIG    1       13.431   2.127  -3.371  0.00  0.00    +0.012 A 
ATOM     29  C   LIG    1       13.597   2.713  -2.114  0.00  0.00    +0.001 A 
ATOM     30  C   LIG    1       12.583   2.612  -1.186  0.00  0.00    +0.001 A 
ATOM     31  C   LIG    1       11.376   2.011  -1.564  0.00  0.00    +0.009 A 
BRANCH  27  32
ATOM     32  C   LIG    1       12.252   0.767  -5.063  0.00  0.00    +0.180 A 
ATOM     33  N   LIG    1       13.021   1.114  -6.149  0.00  0.00    -0.239 N 
ATOM     34  H   LIG    1       13.700   1.855  -6.260  0.00  0.00    +0.192 HD
ATOM     35  N   LIG    1       12.789   0.293  -7.181  0.00  0.00    -0.046 NA
ATOM     36  N   LIG    1       11.924  -0.594  -6.722  0.00  0.00    -0.023 NA
ATOM     37  N   LIG    1       11.613  -0.338  -5.409  0.00  0.00    -0.108 NA
ENDBRANCH  27  32
ENDBRANCH  23  26
ENDBRANCH   1  20
TORSDOF 10
