REMARK  Name = *****
REMARK                            x       y       z     vdW  Elec       q    Type
REMARK                         _______ _______ _______ _____ _____    ______ ____
ROOT
ATOM      1  N   LIG    1        4.988  -3.156  -6.570  0.00  0.00    -0.313 NA
ATOM      2  H   LIG    1        5.912  -2.819  -6.852  0.00  0.00    +0.122 HD
ENDROOT
BRANCH   1   3
ATOM      3  C   LIG    1        4.681  -2.768  -5.199  0.00  0.00    +0.085 C 
BRANCH   3   4
ATOM      4  C   LIG    1        4.749  -1.247  -5.037  0.00  0.00    +0.050 C 
BRANCH   4   8
ATOM      5  C   LIG    1        3.611  -0.094  -1.031  0.00  0.00    +0.162 A 
ATOM      6  C   LIG    1        4.735  -0.914  -1.228  0.00  0.00    +0.162 A 
ATOM      7  C   LIG    1        5.098  -1.279  -2.530  0.00  0.00    +0.053 A 
ATOM      8  C   LIG    1        4.367  -0.830  -3.639  0.00  0.00    -0.043 A 
ATOM      9  C   LIG    1        3.263  -0.004  -3.433  0.00  0.00    +0.007 A 
ATOM     10  C   LIG    1        2.882   0.351  -2.141  0.00  0.00    +0.050 A 
BRANCH   5  12
ATOM     11  C   LIG    1        2.584   1.450   0.436  0.00  0.00    +0.277 C 
ATOM     12  O   LIG    1        3.259   0.207   0.263  0.00  0.00    -0.491 OA
ENDBRANCH   5  12
BRANCH   6  13
ATOM     13  O   LIG    1        5.419  -1.349  -0.117  0.00  0.00    -0.491 OA
ATOM     14  C   LIG    1        6.811  -1.577  -0.304  0.00  0.00    +0.277 C 
ENDBRANCH   6  13
ENDBRANCH   4   8
ENDBRANCH   3   4
ENDBRANCH   1   3
BRANCH   1  15
ATOM     15  C   LIG    1        4.966  -4.619  -6.710  0.00  0.00    +0.115 C 
BRANCH  15  16
ATOM     16  C   LIG    1        5.394  -4.979  -8.138  0.00  0.00    +0.166 C 
BRANCH  16  17
ATOM     17  O   LIG    1        6.718  -4.457  -8.336  0.00  0.00    -0.387 OA
ATOM     18  H   LIG    1        7.287  -4.899  -7.678  0.00  0.00    +0.210 HD
ENDBRANCH  16  17
BRANCH  16  19
ATOM     19  C   LIG    1        5.310  -6.492  -8.399  0.00  0.00    +0.261 C 
BRANCH  19  20
ATOM     20  O   LIG    1        6.179  -7.248  -7.543  0.00  0.00    -0.489 OA
BRANCH  20  21
ATOM     21  C   LIG    1        7.344  -7.686  -8.106  0.00  0.00    +0.121 A 
ATOM     22  C   LIG    1        7.884  -8.872  -7.602  0.00  0.00    +0.049 A 
ATOM     23  C   LIG    1        9.089  -9.379  -8.110  0.00  0.00    -0.047 A 
ATOM     24  C   LIG    1        9.631 -10.686  -7.633  0.00  0.00    +0.044 C 
ATOM     25  C   LIG    1        9.793  -8.643  -9.076  0.00  0.00    +0.003 A 
ATOM     26  C   LIG    1        9.275  -7.452  -9.565  0.00  0.00    +0.004 A 
ATOM     27  C   LIG    1        8.040  -6.999  -9.106  0.00  0.00    +0.045 A 
ENDBRANCH  20  21
ENDBRANCH  19  20
ENDBRANCH  16  19
ENDBRANCH  15  16
ENDBRANCH   1  15
TORSDOF 11
