REMARK  Name = *****
REMARK                            x       y       z     vdW  Elec       q    Type
REMARK                         _______ _______ _______ _____ _____    ______ ____
ROOT
ATOM      1  C   LIG    1        3.056  -1.869   1.372  0.00  0.00    +0.210 C 
ATOM      2  C   LIG    1        2.816  -2.529   2.782  0.00  0.00    +0.126 C 
ATOM      3  C   LIG    1        1.521  -1.985   3.410  0.00  0.00    +0.048 C 
ATOM      4  C   LIG    1        4.103  -2.263   3.619  0.00  0.00    +0.159 C 
ATOM      5  C   LIG    1        3.927  -2.102   5.135  0.00  0.00    +0.084 C 
ATOM      6  C   LIG    1        3.546  -3.360   5.903  0.00  0.00    +0.018 C 
ATOM      7  C   LIG    1        5.258  -1.546   5.624  0.00  0.00    +0.142 C 
ATOM      8  O   LIG    1        6.291  -2.211   5.507  0.00  0.00    -0.297 OA
ATOM      9  C   LIG    1        5.277  -0.160   6.261  0.00  0.00    +0.055 C 
ATOM     10  C   LIG    1        4.725  -0.359   7.670  0.00  0.00    +0.015 C 
ATOM     11  C   LIG    1        4.672   0.923   5.300  0.00  0.00    +0.048 C 
ATOM     12  C   LIG    1        3.834   2.094   5.873  0.00  0.00    +0.090 C 
ATOM     13  C   LIG    1        2.437   1.621   6.313  0.00  0.00    +0.044 C 
ATOM     14  C   LIG    1        3.731   3.347   4.857  0.00  0.00    +0.158 C 
ATOM     15  C   LIG    1        2.918   3.103   3.494  0.00  0.00    +0.047 C 
ATOM     16  C   LIG    1        2.229   4.407   3.025  0.00  0.00    +0.013 C 
ATOM     17  C   LIG    1        3.680   2.434   2.240  0.00  0.00    +0.140 C 
ATOM     18  C   LIG    1        2.618   1.867   1.228  0.00  0.00    +0.124 C 
ATOM     19  C   LIG    1        2.201   2.764   0.052  0.00  0.00    +0.022 C 
ATOM     20  C   LIG    1        3.052   0.500   0.694  0.00  0.00    +0.313 C 
ATOM     21  O   LIG    1        3.572   0.295  -0.375  0.00  0.00    -0.250 OA
ATOM     22  O   LIG    1        2.732  -0.456   1.601  0.00  0.00    -0.458 OA
ENDROOT
BRANCH   1  24
ATOM     23  C   LIG    1        2.551  -3.910  -0.135  0.00  0.00    +0.007 C 
ATOM     24  C   LIG    1        2.245  -2.454   0.200  0.00  0.00    +0.044 C 
ENDBRANCH   1  24
BRANCH   2  25
ATOM     25  O   LIG    1        2.657  -3.950   2.730  0.00  0.00    -0.383 OA
ATOM     26  H   LIG    1        3.573  -4.306   2.702  0.00  0.00    +0.210 HD
ENDBRANCH   2  25
BRANCH   4  27
ATOM     27  O   LIG    1        5.014  -3.349   3.320  0.00  0.00    -0.388 OA
ATOM     28  H   LIG    1        5.791  -3.254   3.915  0.00  0.00    +0.210 HD
ENDBRANCH   4  27
BRANCH  12  29
ATOM     29  O   LIG    1        4.572   2.502   7.038  0.00  0.00    -0.386 OA
ATOM     30  H   LIG    1        4.083   2.235   7.835  0.00  0.00    +0.210 HD
ENDBRANCH  12  29
BRANCH  14  31
ATOM     31  O   LIG    1        3.135   4.531   5.481  0.00  0.00    -0.342 OA
BRANCH  31  32
ATOM     32  C   LIG    1        3.595   5.030   6.741  0.00  0.00    +0.281 C 
ATOM     33  C   LIG    1        5.125   5.229   6.914  0.00  0.00    +0.187 C 
ATOM     34  C   LIG    1        5.646   6.604   6.438  0.00  0.00    +0.092 C 
ATOM     35  C   LIG    1        4.798   7.644   7.188  0.00  0.00    +0.053 C 
ATOM     36  C   LIG    1        3.293   7.472   6.996  0.00  0.00    +0.120 C 
ATOM     37  C   LIG    1        2.744   8.080   5.712  0.00  0.00    +0.038 C 
ATOM     38  O   LIG    1        2.805   6.148   7.197  0.00  0.00    -0.346 OA
BRANCH  34  39
ATOM     39  N   LIG    1        5.711   6.822   4.964  0.00  0.00    -0.303 NA
ATOM     40  C   LIG    1        6.323   8.121   4.642  0.00  0.00    +0.105 C 
ATOM     41  C   LIG    1        6.528   5.813   4.274  0.00  0.00    +0.105 C 
ENDBRANCH  34  39
BRANCH  33  42
ATOM     42  O   LIG    1        5.463   5.107   8.324  0.00  0.00    -0.385 OA
ATOM     43  H   LIG    1        5.148   4.229   8.600  0.00  0.00    +0.210 HD
ENDBRANCH  33  42
ENDBRANCH  31  32
ENDBRANCH  14  31
BRANCH  17  44
ATOM     44  O   LIG    1        4.593   3.375   1.630  0.00  0.00    -0.347 OA
BRANCH  44  45
ATOM     45  C   LIG    1        5.402   2.886   0.532  0.00  0.00    +0.254 C 
ATOM     46  O   LIG    1        6.174   1.762   0.936  0.00  0.00    -0.346 OA
ATOM     47  C   LIG    1        7.064   1.236  -0.064  0.00  0.00    +0.150 C 
ATOM     48  C   LIG    1        6.373   0.461  -1.185  0.00  0.00    +0.040 C 
ATOM     49  C   LIG    1        8.033   2.315  -0.569  0.00  0.00    +0.175 C 
ATOM     50  C   LIG    1        7.334   3.628  -1.023  0.00  0.00    +0.099 C 
ATOM     51  C   LIG    1        6.682   3.504  -2.414  0.00  0.00    +0.044 C 
ATOM     52  C   LIG    1        6.283   4.043   0.035  0.00  0.00    +0.098 C 
BRANCH  49  53
ATOM     53  O   LIG    1        8.946   2.597   0.511  0.00  0.00    -0.386 OA
ATOM     54  H   LIG    1        8.432   3.032   1.215  0.00  0.00    +0.210 HD
ENDBRANCH  49  53
BRANCH  50  55
ATOM     55  O   LIG    1        8.281   4.728  -1.079  0.00  0.00    -0.374 OA
ATOM     56  C   LIG    1        9.369   4.584  -1.988  0.00  0.00    +0.195 C 
ENDBRANCH  50  55
ENDBRANCH  44  45
ENDBRANCH  17  44
TORSDOF 12
