REMARK  Name = *****
REMARK                            x       y       z     vdW  Elec       q    Type
REMARK                         _______ _______ _______ _____ _____    ______ ____
ROOT
ATOM      1  C   LIG    1        0.905   0.147   0.127  0.00  0.00    +0.105 C 
ATOM      2  N   LIG    1        2.350   0.066  -0.076  0.00  0.00    -0.305 NA
ATOM      3  C   LIG    1        2.781  -1.304  -0.422  0.00  0.00    +0.088 C 
ATOM      4  C   LIG    1        2.430  -1.741  -1.855  0.00  0.00    +0.047 C 
ATOM      5  C   LIG    1        3.019  -0.762  -2.864  0.00  0.00    -0.057 C 
ATOM      6  C   LIG    1        3.877  -1.084  -3.868  0.00  0.00    +0.007 C 
ATOM      7  C   LIG    1        4.324  -2.492  -4.085  0.00  0.00    +0.075 A 
ATOM      8  C   LIG    1        4.215  -3.146  -5.320  0.00  0.00    -0.021 A 
ATOM      9  C   LIG    1        4.688  -4.470  -5.386  0.00  0.00    +0.007 A 
ATOM     10  C   LIG    1        5.236  -5.085  -4.267  0.00  0.00    +0.020 A 
ATOM     11  C   LIG    1        5.319  -4.352  -3.104  0.00  0.00    +0.111 A 
ATOM     12  C   LIG    1        3.687  -2.550  -6.609  0.00  0.00    +0.042 C 
ATOM     13  C   LIG    1        2.928  -1.219  -6.570  0.00  0.00    +0.040 C 
ATOM     14  C   LIG    1        3.822  -0.080  -6.145  0.00  0.00    -0.039 A 
ATOM     15  C   LIG    1        4.212   0.909  -7.058  0.00  0.00    +0.004 A 
ATOM     16  C   LIG    1        5.084   1.925  -6.665  0.00  0.00    +0.000 A 
ATOM     17  C   LIG    1        5.585   1.954  -5.365  0.00  0.00    +0.001 A 
ATOM     18  C   LIG    1        5.204   0.972  -4.449  0.00  0.00    +0.009 A 
ATOM     19  N   LIG    1        4.889  -3.079  -2.993  0.00  0.00    -0.255 NA
ATOM     20  C   LIG    1        4.305  -0.034  -4.827  0.00  0.00    -0.013 A 
ATOM     21  C   LIG    1        2.495   0.637  -2.554  0.00  0.00    +0.047 C 
ATOM     22  C   LIG    1        2.818   1.024  -1.097  0.00  0.00    +0.088 C 
ENDROOT
TORSDOF 0
