REMARK  Name = *****
REMARK                            x       y       z     vdW  Elec       q    Type
REMARK                         _______ _______ _______ _____ _____    ______ ____
ROOT
ATOM      1  C   LIG    1        6.167   2.323   2.421  0.00  0.00    +0.064 C 
ATOM      2  C   LIG    1        6.149   0.754   2.377  0.00  0.00    +0.117 C 
ATOM      3  C   LIG    1        5.318   0.100   3.507  0.00  0.00    +0.062 C 
ATOM      4  C   LIG    1        5.694   0.704   4.870  0.00  0.00    +0.151 C 
ATOM      5  C   LIG    1        5.539   2.197   4.910  0.00  0.00    -0.011 A 
ATOM      6  C   LIG    1        5.234   2.824   6.133  0.00  0.00    +0.056 A 
ATOM      7  C   LIG    1        5.158   4.198   6.162  0.00  0.00    +0.167 A 
ATOM      8  O   LIG    1        4.912   4.957   7.263  0.00  0.00    -0.453 OA
ATOM      9  C   LIG    1        4.996   6.283   6.699  0.00  0.00    +0.466 C 
ATOM     10  O   LIG    1        5.246   6.286   5.278  0.00  0.00    -0.453 OA
ATOM     11  C   LIG    1        5.351   4.953   5.034  0.00  0.00    +0.167 A 
ATOM     12  C   LIG    1        5.643   4.373   3.818  0.00  0.00    +0.054 A 
ATOM     13  C   LIG    1        5.772   2.970   3.749  0.00  0.00    -0.030 A 
ENDROOT
BRANCH   1  18
ATOM     14  C   LIG    1        8.915   3.884   0.208  0.00  0.00    +0.165 A 
ATOM     15  C   LIG    1       10.065   3.688   1.004  0.00  0.00    +0.203 A 
ATOM     16  C   LIG    1        9.935   3.043   2.257  0.00  0.00    +0.165 A 
ATOM     17  C   LIG    1        8.681   2.620   2.705  0.00  0.00    +0.053 A 
ATOM     18  C   LIG    1        7.534   2.820   1.932  0.00  0.00    -0.032 A 
ATOM     19  C   LIG    1        7.663   3.464   0.693  0.00  0.00    +0.053 A 
BRANCH  14  21
ATOM     20  C   LIG    1        7.930   4.634  -1.857  0.00  0.00    +0.277 C 
ATOM     21  O   LIG    1        9.068   4.471  -1.021  0.00  0.00    -0.491 OA
ENDBRANCH  14  21
BRANCH  15  22
ATOM     22  O   LIG    1       11.359   4.050   0.702  0.00  0.00    -0.488 OA
ATOM     23  C   LIG    1       11.655   4.629  -0.558  0.00  0.00    +0.277 C 
ENDBRANCH  15  22
BRANCH  16  24
ATOM     24  O   LIG    1       11.078   2.888   3.010  0.00  0.00    -0.491 OA
ATOM     25  C   LIG    1       11.072   1.810   3.940  0.00  0.00    +0.277 C 
ENDBRANCH  16  24
ENDBRANCH   1  18
BRANCH   2  26
ATOM     26  C   LIG    1        5.632   0.358   0.997  0.00  0.00    +0.309 C 
ATOM     27  O   LIG    1        4.733   0.946   0.402  0.00  0.00    -0.251 OA
BRANCH  26  28
ATOM     28  O   LIG    1        6.242  -0.710   0.449  0.00  0.00    -0.480 OA
ATOM     29  H   LIG    1        6.700  -1.268   1.115  0.00  0.00    +0.295 HD
ENDBRANCH  26  28
ENDBRANCH   2  26
BRANCH   4  30
ATOM     30  O   LIG    1        7.052   0.394   5.182  0.00  0.00    -0.387 OA
ATOM     31  H   LIG    1        7.371   1.065   5.814  0.00  0.00    +0.210 HD
ENDBRANCH   4  30
BRANCH   3  32
ATOM     32  C   LIG    1        5.535  -1.423   3.598  0.00  0.00    +0.163 C 
BRANCH  32  33
ATOM     33  O   LIG    1        5.205  -2.083   2.388  0.00  0.00    -0.395 OA
ATOM     34  H   LIG    1        4.236  -2.051   2.276  0.00  0.00    +0.209 HD
ENDBRANCH  32  33
ENDBRANCH   3  32
TORSDOF 9
