REMARK  Name = *****
REMARK                            x       y       z     vdW  Elec       q    Type
REMARK                         _______ _______ _______ _____ _____    ______ ____
ROOT
ATOM      1  C   LIG    1        6.370   2.961   2.216  0.00  0.00    +0.038 A 
ATOM      2  C   LIG    1        7.087   1.751   2.335  0.00  0.00    +0.048 A 
ATOM      3  C   LIG    1        8.356   1.679   2.971  0.00  0.00    +0.057 A 
ATOM      4  N   LIG    1        8.966   0.387   3.218  0.00  0.00    -0.238 N 
ATOM      5  C   LIG    1       10.413   0.297   3.347  0.00  0.00    +0.055 A 
ATOM      6  C   LIG    1       11.224   1.415   3.617  0.00  0.00    +0.035 A 
ATOM      7  S   LIG    1       10.591   3.030   3.966  0.00  0.00    -0.086 S 
ATOM      8  C   LIG    1       12.620   1.286   3.767  0.00  0.00    +0.017 A 
ATOM      9  C   LIG    1       13.241   0.047   3.686  0.00  0.00    +0.001 A 
ATOM     10  C   LIG    1       12.466  -1.073   3.444  0.00  0.00    +0.002 A 
ATOM     11  C   LIG    1       11.081  -0.945   3.267  0.00  0.00    +0.025 A 
ATOM     12  C   LIG    1        8.163  -0.750   3.493  0.00  0.00    +0.225 C 
ATOM     13  O   LIG    1        8.420  -1.908   3.161  0.00  0.00    -0.275 OA
ATOM     14  C   LIG    1        8.956   2.889   3.329  0.00  0.00    +0.035 A 
ATOM     15  C   LIG    1        8.239   4.090   3.227  0.00  0.00    +0.019 A 
ATOM     16  C   LIG    1        6.950   4.121   2.705  0.00  0.00    +0.024 A 
ENDROOT
BRANCH   1  18
ATOM     17  C   LIG    1        4.226   3.991   1.499  0.00  0.00    +0.405 C 
ATOM     18  N   LIG    1        5.066   2.921   1.688  0.00  0.00    -0.251 N 
ATOM     19  H   LIG    1        4.658   2.029   1.455  0.00  0.00    +0.158 HD
ATOM     20  O   LIG    1        4.516   5.165   1.503  0.00  0.00    -0.226 OA
BRANCH  17  21
ATOM     21  O   LIG    1        2.949   3.518   1.321  0.00  0.00    -0.450 OA
BRANCH  21  23
ATOM     22  C   LIG    1        1.537   5.131   2.516  0.00  0.00    +0.048 C 
ATOM     23  C   LIG    1        1.945   4.540   1.173  0.00  0.00    +0.230 C 
ENDBRANCH  21  23
ENDBRANCH  17  21
ENDBRANCH   1  18
BRANCH  12  24
ATOM     24  C   LIG    1        7.013  -0.487   4.469  0.00  0.00    +0.112 C 
BRANCH  24  25
ATOM     25  C   LIG    1        6.245  -1.773   4.802  0.00  0.00    +0.093 C 
BRANCH  25  26
ATOM     26  N   LIG    1        5.112  -1.530   5.719  0.00  0.00    -0.297 NA
ATOM     27  C   LIG    1        4.310  -2.763   5.926  0.00  0.00    +0.112 C 
ATOM     28  C   LIG    1        5.005  -3.824   6.798  0.00  0.00    +0.175 C 
ATOM     29  O   LIG    1        5.390  -3.286   8.069  0.00  0.00    -0.377 OA
ATOM     30  C   LIG    1        6.230  -2.138   7.906  0.00  0.00    +0.175 C 
ATOM     31  C   LIG    1        5.540  -1.058   7.056  0.00  0.00    +0.112 C 
ENDBRANCH  25  26
ENDBRANCH  24  25
ENDBRANCH  12  24
TORSDOF 6
