REMARK  Name = *****
REMARK                            x       y       z     vdW  Elec       q    Type
REMARK                         _______ _______ _______ _____ _____    ______ ____
ROOT
ATOM      1  C   LIG    1        5.491  -0.494  -4.935  0.00  0.00    +0.162 C 
ATOM      2  C   LIG    1        5.892  -1.970  -5.356  0.00  0.00    +0.234 C 
ATOM      3  O   LIG    1        6.991  -2.182  -5.902  0.00  0.00    -0.274 OA
ATOM      4  N   LIG    1        5.265  -3.146  -5.070  0.00  0.00    -0.302 N 
ATOM      5  H   LIG    1        5.822  -3.866  -5.521  0.00  0.00    +0.149 HD
ATOM      6  C   LIG    1        4.377  -3.708  -4.036  0.00  0.00    +0.159 C 
ATOM      7  C   LIG    1        2.832  -3.838  -4.305  0.00  0.00    +0.234 C 
ATOM      8  O   LIG    1        2.001  -3.611  -3.422  0.00  0.00    -0.274 OA
ATOM      9  N   LIG    1        2.370  -4.440  -5.450  0.00  0.00    -0.302 N 
ATOM     10  H   LIG    1        1.364  -4.594  -5.339  0.00  0.00    +0.149 HD
ATOM     11  C   LIG    1        2.656  -4.036  -6.857  0.00  0.00    +0.168 C 
ATOM     12  C   LIG    1        1.265  -3.627  -7.436  0.00  0.00    +0.234 C 
ATOM     13  O   LIG    1        0.227  -4.093  -6.958  0.00  0.00    -0.274 OA
ATOM     14  N   LIG    1        1.195  -2.917  -8.619  0.00  0.00    -0.302 N 
ATOM     15  H   LIG    1        0.337  -3.229  -9.058  0.00  0.00    +0.149 HD
ATOM     16  C   LIG    1        1.140  -1.434  -8.554  0.00  0.00    +0.169 C 
ATOM     17  C   LIG    1        2.155  -0.667  -9.421  0.00  0.00    +0.101 C 
ATOM     18  S   LIG    1        3.732  -1.394  -9.952  0.00  0.00    -0.158 S 
ATOM     19  C   LIG    1        4.203  -0.071 -11.168  0.00  0.00    +0.069 C 
ATOM     20  C   LIG    1        5.706   0.216 -11.202  0.00  0.00    +0.020 C 
ATOM     21  C   LIG    1        6.043   1.250 -10.123  0.00  0.00    +0.097 C 
ATOM     22  C   LIG    1        7.514   1.509  -9.905  0.00  0.00    +0.214 C 
ATOM     23  O   LIG    1        8.312   1.500 -10.848  0.00  0.00    -0.276 OA
ATOM     24  N   LIG    1        7.993   1.834  -8.669  0.00  0.00    -0.304 N 
ATOM     25  H   LIG    1        8.989   2.009  -8.721  0.00  0.00    +0.149 HD
ATOM     26  C   LIG    1        7.394   1.979  -7.316  0.00  0.00    +0.163 C 
ATOM     27  C   LIG    1        6.699   0.657  -6.818  0.00  0.00    +0.234 C 
ATOM     28  O   LIG    1        6.285  -0.201  -7.594  0.00  0.00    -0.274 OA
ATOM     29  N   LIG    1        6.481   0.505  -5.462  0.00  0.00    -0.302 N 
ATOM     30  H   LIG    1        7.022   1.032  -4.788  0.00  0.00    +0.149 HD
ENDROOT
BRANCH  16  31
ATOM     31  C   LIG    1       -0.318  -0.849  -8.841  0.00  0.00    +0.237 C 
ATOM     32  N   LIG    1       -0.668  -0.457 -10.141  0.00  0.00    -0.288 N 
ATOM     33  C   LIG    1       -0.388  -1.273 -11.325  0.00  0.00    +0.162 C 
ATOM     34  C   LIG    1       -1.732  -1.961 -11.568  0.00  0.00    +0.033 C 
ATOM     35  C   LIG    1       -2.775  -1.015 -10.951  0.00  0.00    +0.021 C 
ATOM     36  C   LIG    1       -1.963   0.156 -10.408  0.00  0.00    +0.109 C 
ATOM     37  O   LIG    1       -1.148  -0.796  -7.931  0.00  0.00    -0.274 OA
BRANCH  33  38
ATOM     38  C   LIG    1        0.097  -0.314 -12.470  0.00  0.00    +0.234 C 
ATOM     39  N   LIG    1       -0.498  -0.471 -13.706  0.00  0.00    -0.302 N 
ATOM     40  H   LIG    1       -1.441  -0.826 -13.740  0.00  0.00    +0.149 HD
ATOM     41  O   LIG    1        1.015   0.485 -12.284  0.00  0.00    -0.274 OA
BRANCH  39  42
ATOM     42  C   LIG    1       -0.101   0.252 -14.917  0.00  0.00    +0.159 C 
BRANCH  42  43
ATOM     43  C   LIG    1       -0.958  -0.372 -16.112  0.00  0.00    +0.234 C 
ATOM     44  N   LIG    1       -0.373  -1.529 -16.505  0.00  0.00    -0.305 N 
ATOM     45  H   LIG    1       -0.121  -2.026 -15.665  0.00  0.00    +0.149 HD
ATOM     46  O   LIG    1       -2.062  -0.016 -16.412  0.00  0.00    -0.274 OA
BRANCH  44  47
ATOM     47  C   LIG    1       -0.619  -2.421 -17.625  0.00  0.00    +0.200 C 
BRANCH  47  48
ATOM     48  C   LIG    1       -0.629  -1.815 -18.986  0.00  0.00    +0.228 C 
ATOM     49  O   LIG    1       -1.659  -1.375 -19.581  0.00  0.00    -0.274 OA
ATOM     50  N   LIG    1        0.598  -1.614 -19.591  0.00  0.00    -0.328 N 
ATOM     51  H   LIG    1        1.442  -2.051 -19.270  0.00  0.00    +0.145 HD
ATOM     52  H   LIG    1        0.590  -1.221 -20.543  0.00  0.00    +0.145 HD
ENDBRANCH  47  48
ENDBRANCH  44  47
ENDBRANCH  42  43
BRANCH  42  53
ATOM     53  C   LIG    1        1.455   0.263 -15.148  0.00  0.00    +0.034 C 
BRANCH  53  54
ATOM     54  C   LIG    1        2.374  -1.025 -15.049  0.00  0.00    -0.015 C 
ATOM     55  C   LIG    1        2.373  -2.018 -16.206  0.00  0.00    +0.007 C 
ATOM     56  C   LIG    1        2.192  -1.896 -13.807  0.00  0.00    +0.007 C 
ENDBRANCH  53  54
ENDBRANCH  42  53
ENDBRANCH  39  42
ENDBRANCH  33  38
ENDBRANCH  16  31
BRANCH   1  57
ATOM     57  C   LIG    1        4.064   0.009  -5.218  0.00  0.00    +0.015 C 
ATOM     58  C   LIG    1        3.014  -0.933  -4.681  0.00  0.00    +0.010 C 
BRANCH  57  60
ATOM     59  C   LIG    1        2.408   1.886  -4.845  0.00  0.00    +0.004 C 
ATOM     60  C   LIG    1        3.817   1.382  -4.555  0.00  0.00    +0.002 C 
ENDBRANCH  57  60
ENDBRANCH   1  57
BRANCH  11  61
ATOM     61  C   LIG    1        3.146  -5.227  -7.686  0.00  0.00    +0.127 C 
BRANCH  61  62
ATOM     62  C   LIG    1        4.507  -5.720  -7.268  0.00  0.00    +0.213 C 
ATOM     63  O   LIG    1        5.506  -5.650  -7.969  0.00  0.00    -0.276 OA
ATOM     64  N   LIG    1        4.574  -6.290  -6.033  0.00  0.00    -0.329 N 
ATOM     65  H   LIG    1        5.483  -6.569  -5.688  0.00  0.00    +0.145 HD
ATOM     66  H   LIG    1        3.774  -6.296  -5.411  0.00  0.00    +0.145 HD
ENDBRANCH  61  62
ENDBRANCH  11  61
BRANCH  26  67
ATOM     67  C   LIG    1        6.497   3.237  -7.073  0.00  0.00    +0.067 C 
BRANCH  67  68
ATOM     68  C   LIG    1        7.032   4.595  -7.506  0.00  0.00    -0.045 A 
ATOM     69  C   LIG    1        6.715   5.149  -8.755  0.00  0.00    +0.007 A 
ATOM     70  C   LIG    1        7.379   6.296  -9.228  0.00  0.00    +0.046 A 
ATOM     71  C   LIG    1        8.281   6.972  -8.408  0.00  0.00    +0.120 A 
ATOM     72  C   LIG    1        8.437   6.536  -7.093  0.00  0.00    +0.046 A 
ATOM     73  C   LIG    1        7.839   5.353  -6.651  0.00  0.00    +0.007 A 
BRANCH  71  74
ATOM     74  O   LIG    1        8.949   8.038  -8.957  0.00  0.00    -0.495 OA
ATOM     75  C   LIG    1        9.859   8.687  -8.068  0.00  0.00    +0.277 C 
ENDBRANCH  71  74
ENDBRANCH  67  68
ENDBRANCH  26  67
BRANCH   6  76
ATOM     76  C   LIG    1        4.689  -3.340  -2.569  0.00  0.00    +0.041 C 
BRANCH  76  77
ATOM     77  C   LIG    1        6.156  -3.389  -2.123  0.00  0.00    +0.098 C 
BRANCH  77  78
ATOM     78  C   LIG    1        7.076  -2.342  -2.697  0.00  0.00    +0.211 C 
ATOM     79  O   LIG    1        6.972  -1.147  -2.439  0.00  0.00    -0.276 OA
ATOM     80  N   LIG    1        8.046  -2.801  -3.539  0.00  0.00    -0.329 N 
ATOM     81  H   LIG    1        8.407  -2.098  -4.184  0.00  0.00    +0.145 HD
ATOM     82  H   LIG    1        7.949  -3.699  -3.994  0.00  0.00    +0.145 HD
ENDBRANCH  77  78
ENDBRANCH  76  77
ENDBRANCH   6  76
TORSDOF 18
