REMARK  Name = *****
REMARK                            x       y       z     vdW  Elec       q    Type
REMARK                         _______ _______ _______ _____ _____    ______ ____
ROOT
ATOM      1  C   LIG    1        3.176   1.908  -1.619  0.00  0.00    +0.158 C 
ENDROOT
BRANCH   1   2
ATOM      2  C   LIG    1        2.169   1.164  -0.757  0.00  0.00    -0.017 A 
ATOM      3  C   LIG    1        2.518  -0.047  -0.133  0.00  0.00    +0.023 A 
ATOM      4  C   LIG    1        1.604  -0.757   0.669  0.00  0.00    +0.078 A 
ATOM      5  C   LIG    1        0.304  -0.252   0.819  0.00  0.00    +0.129 A 
ATOM      6  C   LIG    1       -0.067   0.935   0.187  0.00  0.00    +0.046 A 
ATOM      7  C   LIG    1        0.859   1.633  -0.591  0.00  0.00    +0.010 A 
BRANCH   4   8
ATOM      8  C   LIG    1        2.086  -2.023   1.295  0.00  0.00    +0.245 C 
ATOM      9  O   LIG    1        3.230  -2.443   1.108  0.00  0.00    -0.270 OA
ATOM     10  N   LIG    1        1.218  -2.715   2.082  0.00  0.00    -0.325 N 
ATOM     11  H   LIG    1        1.515  -3.575   2.516  0.00  0.00    +0.145 HD
ATOM     12  H   LIG    1        0.278  -2.363   2.238  0.00  0.00    +0.145 HD
ENDBRANCH   4   8
BRANCH   5  13
ATOM     13  O   LIG    1       -0.633  -0.912   1.574  0.00  0.00    -0.506 OA
ATOM     14  H   LIG    1       -1.463  -0.404   1.552  0.00  0.00    +0.292 HD
ENDBRANCH   5  13
ENDBRANCH   1   2
BRANCH   1  15
ATOM     15  O   LIG    1        2.589   3.077  -2.205  0.00  0.00    -0.386 OA
ATOM     16  H   LIG    1        3.293   3.541  -2.685  0.00  0.00    +0.210 HD
ENDBRANCH   1  15
BRANCH   1  17
ATOM     17  C   LIG    1        4.491   2.295  -0.886  0.00  0.00    +0.117 C 
BRANCH  17  18
ATOM     18  N   LIG    1        4.321   3.257   0.218  0.00  0.00    -0.311 NA
ATOM     19  H   LIG    1        3.858   4.097  -0.133  0.00  0.00    +0.122 HD
BRANCH  18  21
ATOM     20  C   LIG    1        5.306   4.654   1.975  0.00  0.00    +0.024 C 
ATOM     21  C   LIG    1        5.585   3.607   0.886  0.00  0.00    +0.051 C 
BRANCH  21  22
ATOM     22  C   LIG    1        6.312   2.381   1.480  0.00  0.00    +0.023 C 
BRANCH  22  23
ATOM     23  C   LIG    1        5.489   1.627   2.534  0.00  0.00    +0.036 C 
BRANCH  23  24
ATOM     24  C   LIG    1        6.225   0.417   3.050  0.00  0.00    -0.047 A 
ATOM     25  C   LIG    1        6.066  -0.827   2.429  0.00  0.00    +0.003 A 
ATOM     26  C   LIG    1        6.773  -1.939   2.885  0.00  0.00    +0.000 A 
ATOM     27  C   LIG    1        7.652  -1.815   3.959  0.00  0.00    +0.000 A 
ATOM     28  C   LIG    1        7.809  -0.583   4.591  0.00  0.00    +0.000 A 
ATOM     29  C   LIG    1        7.096   0.529   4.141  0.00  0.00    +0.003 A 
ENDBRANCH  23  24
ENDBRANCH  22  23
ENDBRANCH  21  22
ENDBRANCH  18  21
ENDBRANCH  17  18
ENDBRANCH   1  17
TORSDOF 10
