REMARK  Name = *****
REMARK                            x       y       z     vdW  Elec       q    Type
REMARK                         _______ _______ _______ _____ _____    ______ ____
ROOT
ATOM      1  C   LIG    1        4.639   1.357   0.817  0.00  0.00    +0.406 C 
ATOM      2  F   LIG    1        3.567   0.534   0.996  0.00  0.00    -0.205 F 
ENDROOT
BRANCH   1   3
ATOM      3  C   LIG    1        5.033   2.073   2.120  0.00  0.00    +0.446 C 
ATOM      4  F   LIG    1        5.816   1.271   2.888  0.00  0.00    -0.165 F 
ATOM      5  F   LIG    1        3.964   2.423   2.868  0.00  0.00    -0.165 F 
ATOM      6  F   LIG    1        5.757   3.192   1.874  0.00  0.00    -0.165 F 
ENDBRANCH   1   3
BRANCH   1   7
ATOM      7  O   LIG    1        4.413   2.141  -0.351  0.00  0.00    -0.280 OA
BRANCH   7   9
ATOM      8  F   LIG    1        2.222   2.424   0.087  0.00  0.00    -0.178 F 
ATOM      9  C   LIG    1        3.371   3.082  -0.196  0.00  0.00    +0.485 C 
ATOM     10  F   LIG    1        3.649   3.894   0.834  0.00  0.00    -0.178 F 
ENDBRANCH   7   9
ENDBRANCH   1   7
TORSDOF 3
