REMARK  Name = *****
REMARK                            x       y       z     vdW  Elec       q    Type
REMARK                         _______ _______ _______ _____ _____    ______ ____
ROOT
ATOM      1  C   LIG    1        2.403   0.967  -0.631  0.00  0.00    +0.095 C 
ENDROOT
BRANCH   1   2
ATOM      2  C   LIG    1        2.221   0.986  -2.163  0.00  0.00    -0.016 A 
ATOM      3  C   LIG    1        0.994   0.648  -2.773  0.00  0.00    +0.006 A 
ATOM      4  C   LIG    1        0.847   0.662  -4.165  0.00  0.00    +0.000 A 
ATOM      5  C   LIG    1        1.904   1.032  -4.981  0.00  0.00    +0.000 A 
ATOM      6  C   LIG    1        3.128   1.375  -4.407  0.00  0.00    +0.000 A 
ATOM      7  C   LIG    1        3.281   1.343  -3.015  0.00  0.00    +0.006 A 
ENDBRANCH   1   2
BRANCH   1   8
ATOM      8  C   LIG    1        2.744   2.399  -0.085  0.00  0.00    +0.025 C 
ATOM      9  C   LIG    1        1.671   3.466  -0.359  0.00  0.00    +0.006 C 
ATOM     10  C   LIG    1        1.920   4.527   0.705  0.00  0.00    +0.000 C 
ATOM     11  C   LIG    1        2.194   3.704   1.948  0.00  0.00    +0.000 C 
ATOM     12  C   LIG    1        2.956   2.478   1.450  0.00  0.00    +0.006 C 
ENDBRANCH   1   8
BRANCH   1  13
ATOM     13  O   LIG    1        1.199   0.554   0.029  0.00  0.00    -0.384 OA
ATOM     14  H   LIG    1        0.922  -0.294  -0.351  0.00  0.00    +0.211 HD
ENDBRANCH   1  13
BRANCH   1  15
ATOM     15  C   LIG    1        3.537  -0.022  -0.220  0.00  0.00    +0.055 C 
BRANCH  15  16
ATOM     16  C   LIG    1        3.347  -1.496  -0.641  0.00  0.00    +0.087 C 
BRANCH  16  17
ATOM     17  N   LIG    1        4.458  -2.356  -0.181  0.00  0.00    -0.302 NA
ATOM     18  C   LIG    1        4.184  -3.789  -0.381  0.00  0.00    +0.084 C 
ATOM     19  C   LIG    1        4.283  -4.253  -1.837  0.00  0.00    +0.015 C 
ATOM     20  C   LIG    1        5.606  -3.845  -2.479  0.00  0.00    +0.002 C 
ATOM     21  C   LIG    1        5.929  -2.377  -2.223  0.00  0.00    +0.015 C 
ATOM     22  C   LIG    1        5.773  -2.019  -0.745  0.00  0.00    +0.084 C 
ENDBRANCH  16  17
ENDBRANCH  15  16
ENDBRANCH   1  15
TORSDOF 6
