REMARK  Name = *****
REMARK                            x       y       z     vdW  Elec       q    Type
REMARK                         _______ _______ _______ _____ _____    ______ ____
ROOT
ATOM      1  C   LIG    1       -6.156  -2.195  -0.048  0.00  0.00    +0.112 C 
ATOM      2  C   LIG    1       -6.972  -1.005  -0.587  0.00  0.00    +0.101 C 
ATOM      3  N   LIG    1       -8.421  -1.236  -0.435  0.00  0.00    -0.297 NA
ATOM      4  C   LIG    1       -9.197  -0.231  -1.154  0.00  0.00    +0.105 C 
ATOM      5  C   LIG    1       -8.814  -1.392   0.996  0.00  0.00    +0.091 C 
ATOM      6  C   LIG    1       -7.804  -2.259   1.805  0.00  0.00    -0.025 C 
ATOM      7  C   LIG    1       -8.171  -2.536   3.211  0.00  0.00    -0.011 C 
ATOM      8  C   LIG    1       -8.983  -1.541   3.779  0.00  0.00    +0.011 C 
ATOM      9  C   LIG    1       -9.501  -0.364   3.188  0.00  0.00    -0.020 C 
ATOM     10  C   LIG    1      -10.234   0.286   4.153  0.00  0.00    +0.090 C 
ATOM     11  N   LIG    1      -10.158  -0.465   5.308  0.00  0.00    -0.349 NA
ATOM     12  C   LIG    1      -10.779  -0.105   6.562  0.00  0.00    +0.149 C 
ATOM     13  C   LIG    1       -9.400  -1.600   5.099  0.00  0.00    +0.050 C 
ATOM     14  C   LIG    1       -9.026  -2.670   5.923  0.00  0.00    +0.026 C 
ATOM     15  C   LIG    1       -8.215  -3.668   5.356  0.00  0.00    +0.003 C 
ATOM     16  C   LIG    1       -7.788  -3.606   4.022  0.00  0.00    +0.009 C 
ATOM     17  C   LIG    1       -9.198  -0.065   1.756  0.00  0.00    +0.060 C 
ATOM     18  C   LIG    1       -6.614  -2.644   1.310  0.00  0.00    -0.007 C 
ENDROOT
BRANCH   1  21
ATOM     19  N   LIG    1       -7.336  -3.631  -1.661  0.00  0.00    -0.310 N 
ATOM     20  H   LIG    1       -8.129  -3.042  -1.404  0.00  0.00    +0.149 HD
ATOM     21  C   LIG    1       -6.145  -3.382  -1.017  0.00  0.00    +0.221 C 
ATOM     22  O   LIG    1       -5.140  -4.049  -1.218  0.00  0.00    -0.275 OA
BRANCH  19  23
ATOM     23  CA  LIG    1       -7.498  -4.651  -2.694  0.00  0.00    +0.098 C 
BRANCH  23  25
ATOM     24  C   LIG    1       -9.420  -5.732  -1.399  0.00  0.00    +0.005 C 
ATOM     25  C   LIG    1       -8.953  -5.147  -2.726  0.00  0.00    +0.021 C 
ENDBRANCH  23  25
BRANCH  23  26
ATOM     26  C   LIG    1       -7.112  -4.095  -4.087  0.00  0.00    +0.177 C 
BRANCH  26  27
ATOM     27  O   LIG    1       -5.773  -3.613  -4.165  0.00  0.00    -0.393 OA
ATOM     28  H   LIG    1       -5.488  -3.378  -3.263  0.00  0.00    +0.209 HD
ENDBRANCH  26  27
ENDBRANCH  23  26
ENDBRANCH  19  23
ENDBRANCH   1  21
TORSDOF 5
