REMARK  Name = *****
REMARK                            x       y       z     vdW  Elec       q    Type
REMARK                         _______ _______ _______ _____ _____    ______ ____
ROOT
ATOM      1  C   LIG    1        5.294  -1.752   1.537  0.00  0.00    +0.161 C 
ATOM      2  C   LIG    1        5.392  -3.263   1.897  0.00  0.00    +0.270 C 
ATOM      3  O   LIG    1        5.907  -3.994   0.783  0.00  0.00    -0.341 OA
ATOM      4  C   LIG    1        7.270  -3.660   0.458  0.00  0.00    +0.178 C 
ATOM      5  C   LIG    1        7.438  -2.147   0.205  0.00  0.00    +0.176 C 
ATOM      6  C   LIG    1        6.742  -1.268   1.266  0.00  0.00    +0.170 C 
ENDROOT
BRANCH   1  10
ATOM      7  C   LIG    1        0.957  -1.539  -0.875  0.00  0.00    +0.166 C 
ATOM      8  N   LIG    1        2.381  -1.255  -0.784  0.00  0.00    -0.144 N 
ATOM      9  C   LIG    1        3.072  -1.662   0.353  0.00  0.00    +0.324 C 
ATOM     10  N   LIG    1        4.431  -1.452   0.366  0.00  0.00    -0.288 N 
ATOM     11  H   LIG    1        4.802  -0.806  -0.320  0.00  0.00    +0.151 HD
ATOM     12  O   LIG    1        2.521  -2.202   1.308  0.00  0.00    -0.251 OA
BRANCH   8  13
ATOM     13  N   LIG    1        3.071  -0.752  -1.892  0.00  0.00    +0.052 NA
ATOM     14  O   LIG    1        2.341  -0.320  -2.788  0.00  0.00    -0.126 OA
ENDBRANCH   8  13
ENDBRANCH   1  10
BRANCH   2  15
ATOM     15  O   LIG    1        4.190  -3.872   2.330  0.00  0.00    -0.365 OA
ATOM     16  H   LIG    1        3.444  -3.347   1.980  0.00  0.00    +0.212 HD
ENDBRANCH   2  15
BRANCH   5  17
ATOM     17  O   LIG    1        6.883  -1.810  -1.079  0.00  0.00    -0.387 OA
ATOM     18  H   LIG    1        6.141  -2.426  -1.245  0.00  0.00    +0.210 HD
ENDBRANCH   5  17
BRANCH   6  19
ATOM     19  O   LIG    1        7.494  -1.268   2.482  0.00  0.00    -0.387 OA
ATOM     20  H   LIG    1        8.308  -0.753   2.330  0.00  0.00    +0.210 HD
ENDBRANCH   6  19
BRANCH   4  21
ATOM     21  C   LIG    1        8.244  -4.227   1.501  0.00  0.00    +0.190 C 
BRANCH  21  22
ATOM     22  O   LIG    1        8.015  -5.625   1.673  0.00  0.00    -0.392 OA
ATOM     23  H   LIG    1        7.052  -5.735   1.804  0.00  0.00    +0.209 HD
ENDBRANCH  21  22
ENDBRANCH   4  21
TORSDOF 7
