REMARK  Name = *****
REMARK                            x       y       z     vdW  Elec       q    Type
REMARK                         _______ _______ _______ _____ _____    ______ ____
ROOT
ATOM      1  C   LIG    1        7.097  -2.272   2.224  0.00  0.00    +0.019 C 
ENDROOT
BRANCH   1   2
ATOM      2  C   LIG    1        5.835  -1.549   1.685  0.00  0.00    +0.085 C 
BRANCH   2   3
ATOM      3  N   LIG    1        6.035  -0.278   0.950  0.00  0.00    -0.300 NA
BRANCH   3   5
ATOM      4  C   LIG    1        7.025   2.084   1.188  0.00  0.00    +0.020 C 
ATOM      5  C   LIG    1        6.704   0.724   1.807  0.00  0.00    +0.081 C 
ENDBRANCH   3   5
BRANCH   3   6
ATOM      6  C   LIG    1        4.817   0.230   0.253  0.00  0.00    +0.058 C 
ATOM      7  C   LIG    1        3.779   0.862   1.209  0.00  0.00    +0.024 C 
BRANCH   6   8
ATOM      8  C   LIG    1        4.039  -0.769  -0.653  0.00  0.00    +0.053 C 
BRANCH   8   9
ATOM      9  C   LIG    1        4.770  -1.565  -1.708  0.00  0.00    -0.046 A 
ATOM     10  C   LIG    1        4.731  -2.964  -1.625  0.00  0.00    +0.007 A 
ATOM     11  C   LIG    1        5.247  -3.763  -2.643  0.00  0.00    +0.046 A 
ATOM     12  C   LIG    1        5.796  -3.179  -3.780  0.00  0.00    +0.120 A 
ATOM     13  C   LIG    1        5.899  -1.787  -3.848  0.00  0.00    +0.046 A 
ATOM     14  C   LIG    1        5.380  -0.980  -2.824  0.00  0.00    +0.007 A 
BRANCH  12  15
ATOM     15  O   LIG    1        6.273  -3.882  -4.855  0.00  0.00    -0.495 OA
ATOM     16  C   LIG    1        5.621  -5.131  -5.084  0.00  0.00    +0.277 C 
ENDBRANCH  12  15
ENDBRANCH   8   9
ENDBRANCH   6   8
ENDBRANCH   3   6
ENDBRANCH   2   3
ENDBRANCH   1   2
BRANCH   1  17
ATOM     17  C   LIG    1        8.102  -2.779   1.173  0.00  0.00    +0.042 C 
BRANCH  17  18
ATOM     18  C   LIG    1        8.732  -1.654   0.364  0.00  0.00    +0.232 C 
BRANCH  18  19
ATOM     19  O   LIG    1        9.768  -2.036  -0.562  0.00  0.00    -0.461 OA
BRANCH  19  20
ATOM     20  C   LIG    1        9.427  -2.713  -1.673  0.00  0.00    +0.339 C 
ATOM     21  O   LIG    1        8.495  -3.520  -1.785  0.00  0.00    -0.245 OA
BRANCH  20  22
ATOM     22  C   LIG    1       10.308  -2.277  -2.800  0.00  0.00    +0.063 A 
ATOM     23  C   LIG    1       11.308  -1.307  -2.605  0.00  0.00    +0.064 A 
ATOM     24  C   LIG    1       12.119  -0.878  -3.662  0.00  0.00    +0.162 A 
ATOM     25  C   LIG    1       11.859  -1.330  -4.963  0.00  0.00    +0.162 A 
ATOM     26  C   LIG    1       10.898  -2.333  -5.156  0.00  0.00    +0.050 A 
ATOM     27  C   LIG    1       10.129  -2.808  -4.086  0.00  0.00    +0.019 A 
BRANCH  24  28
ATOM     28  O   LIG    1       13.157  -0.007  -3.466  0.00  0.00    -0.491 OA
ATOM     29  C   LIG    1       13.816  -0.081  -2.209  0.00  0.00    +0.277 C 
ENDBRANCH  24  28
BRANCH  25  30
ATOM     30  O   LIG    1       12.491  -0.898  -6.105  0.00  0.00    -0.491 OA
ATOM     31  C   LIG    1       12.955   0.454  -6.081  0.00  0.00    +0.277 C 
ENDBRANCH  25  30
ENDBRANCH  20  22
ENDBRANCH  19  20
ENDBRANCH  18  19
ENDBRANCH  17  18
ENDBRANCH   1  17
TORSDOF 14
