REMARK  Name = *****
REMARK                            x       y       z     vdW  Elec       q    Type
REMARK                         _______ _______ _______ _____ _____    ______ ____
ROOT
ATOM      1  C   LIG    1        0.906   0.358  -0.033  0.00  0.00    +0.026 C 
ATOM      2  C   LIG    1        2.417   0.675   0.323  0.00  0.00    +0.109 C 
ATOM      3  C   LIG    1        3.080  -0.413  -0.528  0.00  0.00    +0.136 C 
ATOM      4  O   LIG    1        3.037   0.315  -1.828  0.00  0.00    -0.371 OA
ATOM      5  C   LIG    1        3.985   1.341  -1.478  0.00  0.00    +0.136 C 
ATOM      6  C   LIG    1        5.196   0.435  -1.275  0.00  0.00    +0.035 C 
ATOM      7  C   LIG    1        4.571  -0.720  -0.488  0.00  0.00    +0.035 C 
ATOM      8  C   LIG    1        3.381   1.827  -0.168  0.00  0.00    +0.109 C 
ATOM      9  C   LIG    1        4.516   2.293   0.830  0.00  0.00    +0.026 C 
ATOM     10  C   LIG    1        2.405   2.915  -0.213  0.00  0.00    +0.324 C 
ATOM     11  O   LIG    1        2.284   3.788  -1.075  0.00  0.00    -0.250 OA
ATOM     12  O   LIG    1        1.730   2.807   0.967  0.00  0.00    -0.392 OA
ATOM     13  C   LIG    1        2.059   1.550   1.503  0.00  0.00    +0.324 C 
ATOM     14  O   LIG    1        1.924   1.260   2.685  0.00  0.00    -0.250 OA
ENDROOT
TORSDOF 0
