REMARK  Name = *****
REMARK                            x       y       z     vdW  Elec       q    Type
REMARK                         _______ _______ _______ _____ _____    ______ ____
ROOT
ATOM      1  C   LIG    1        5.614  -1.936  -0.147  0.00  0.00    +0.006 C 
ATOM      2  C   LIG    1        5.249  -2.831  -1.318  0.00  0.00    +0.107 C 
ATOM      3  S   LIG    1        4.685  -4.462  -0.780  0.00  0.00    -0.131 S 
ATOM      4  C   LIG    1        6.210  -4.779   0.147  0.00  0.00    +0.169 C 
ATOM      5  N   LIG    1        6.414  -3.751   1.158  0.00  0.00    -0.249 N 
ATOM      6  C   LIG    1        6.223  -4.565   2.225  0.00  0.00    +0.244 C 
ATOM      7  O   LIG    1        6.143  -4.286   3.399  0.00  0.00    -0.273 OA
ATOM      8  CA  LIG    1        6.073  -5.809   1.311  0.00  0.00    +0.191 C 
ATOM      9  CA  LIG    1        6.175  -2.403   1.003  0.00  0.00    +0.125 C 
ENDROOT
BRANCH   8  10
ATOM     10  N   LIG    1        4.771  -6.533   1.423  0.00  0.00    -0.301 N 
ATOM     11  H   LIG    1        3.922  -6.044   1.149  0.00  0.00    +0.150 HD
ATOM     12  C   LIG    1        4.704  -7.858   1.795  0.00  0.00    +0.228 C 
ATOM     13  O   LIG    1        5.711  -8.514   2.048  0.00  0.00    -0.275 OA
BRANCH  12  14
ATOM     14  C   LIG    1        3.313  -8.444   1.827  0.00  0.00    +0.214 C 
BRANCH  14  15
ATOM     15  C   LIG    1        2.991  -8.940   3.158  0.00  0.00    +0.072 C 
ATOM     16  N   LIG    1        2.674  -9.328   4.214  0.00  0.00    -0.196 NA
ENDBRANCH  14  15
ENDBRANCH  12  14
ENDBRANCH   8  10
BRANCH   9  17
ATOM     17  C   LIG    1        6.620  -1.436   2.095  0.00  0.00    +0.351 C 
ATOM     18  O   LIG    1        6.512  -0.221   2.027  0.00  0.00    -0.244 OA
BRANCH  17  19
ATOM     19  OXT LIG    1        7.295  -1.985   3.124  0.00  0.00    -0.476 OA
ATOM     20  HXT LIG    1        7.056  -2.910   3.340  0.00  0.00    +0.295 HD
ENDBRANCH  17  19
ENDBRANCH   9  17
BRANCH   1  21
ATOM     21  C   LIG    1        5.241  -0.483  -0.402  0.00  0.00    +0.266 C 
BRANCH  21  22
ATOM     22  O   LIG    1        6.356   0.222  -0.957  0.00  0.00    -0.460 OA
BRANCH  22  24
ATOM     23  C   LIG    1        7.828   0.754  -2.691  0.00  0.00    +0.136 C 
ATOM     24  C   LIG    1        6.559   0.075  -2.290  0.00  0.00    +0.304 C 
ATOM     25  O   LIG    1        5.859  -0.580  -3.050  0.00  0.00    -0.251 OA
ENDBRANCH  22  24
ENDBRANCH  21  22
ENDBRANCH   1  21
TORSDOF 8
