REMARK  Name = *****
REMARK                            x       y       z     vdW  Elec       q    Type
REMARK                         _______ _______ _______ _____ _____    ______ ____
ROOT
ATOM      1  C   LIG    1        6.488   9.225 -10.472  0.00  0.00    +0.185 C 
ATOM      2  C   LIG    1        6.802   9.213 -11.987  0.00  0.00    +0.063 C 
ATOM      3  C   LIG    1        5.848  10.181 -12.693  0.00  0.00    -0.044 C 
ATOM      4  C   LIG    1        5.845  10.098 -14.136  0.00  0.00    -0.000 C 
ATOM      5  C   LIG    1        6.896   9.588 -14.795  0.00  0.00    -0.023 C 
ATOM      6  C   LIG    1        8.159   9.091 -14.115  0.00  0.00    +0.012 C 
ATOM      7  C   LIG    1        8.259   7.575 -14.352  0.00  0.00    +0.012 C 
ATOM      8  C   LIG    1        5.110  11.098 -12.040  0.00  0.00    -0.020 C 
ATOM      9  C   LIG    1        5.195  11.337 -10.547  0.00  0.00    +0.012 C 
ATOM     10  C   LIG    1        5.160  12.830 -10.226  0.00  0.00    +0.012 C 
ATOM     11  C   LIG    1        8.221   9.508 -12.590  0.00  0.00    +0.007 C 
ATOM     12  C   LIG    1        6.432  10.652  -9.927  0.00  0.00    +0.052 C 
ENDROOT
BRANCH   1  13
ATOM     13  O   LIG    1        7.354   8.348  -9.752  0.00  0.00    -0.460 OA
BRANCH  13  14
ATOM     14  C   LIG    1        6.844   7.822  -8.597  0.00  0.00    +0.313 C 
ATOM     15  O   LIG    1        5.811   8.204  -8.048  0.00  0.00    -0.250 OA
BRANCH  14  16
ATOM     16  C   LIG    1        7.635   6.574  -8.174  0.00  0.00    +0.062 C 
ATOM     17  C   LIG    1        9.134   6.778  -8.469  0.00  0.00    +0.022 C 
ATOM     18  C   LIG    1        7.486   6.350  -6.659  0.00  0.00    +0.022 C 
BRANCH  16  20
ATOM     19  C   LIG    1        5.648   5.001  -8.767  0.00  0.00    +0.005 C 
ATOM     20  C   LIG    1        7.120   5.350  -8.979  0.00  0.00    +0.014 C 
ENDBRANCH  16  20
ENDBRANCH  14  16
ENDBRANCH  13  14
ENDBRANCH   1  13
BRANCH  11  21
ATOM     21  C   LIG    1        9.467   8.926 -11.876  0.00  0.00    +0.008 C 
BRANCH  21  22
ATOM     22  C   LIG    1       10.800   9.438 -12.489  0.00  0.00    +0.045 C 
BRANCH  22  23
ATOM     23  C   LIG    1       12.059   8.868 -11.807  0.00  0.00    +0.179 C 
ATOM     24  O   LIG    1       12.019   7.428 -11.909  0.00  0.00    -0.461 OA
ATOM     25  C   LIG    1       13.044   6.649 -12.313  0.00  0.00    +0.310 C 
ATOM     26  O   LIG    1       13.044   5.445 -12.070  0.00  0.00    -0.251 OA
ATOM     27  C   LIG    1       14.179   7.289 -13.053  0.00  0.00    +0.152 C 
ATOM     28  C   LIG    1       13.864   8.688 -13.532  0.00  0.00    +0.129 C 
ATOM     29  C   LIG    1       13.334   9.495 -12.365  0.00  0.00    +0.076 C 
BRANCH  28  30
ATOM     30  O   LIG    1       15.066   9.284 -14.016  0.00  0.00    -0.391 OA
ATOM     31  H   LIG    1       14.854  10.167 -14.364  0.00  0.00    +0.210 HD
ENDBRANCH  28  30
ENDBRANCH  22  23
ENDBRANCH  21  22
ENDBRANCH  11  21
TORSDOF 8
