REMARK  Name = *****
REMARK                            x       y       z     vdW  Elec       q    Type
REMARK                         _______ _______ _______ _____ _____    ______ ____
ROOT
ATOM      1  C   LIG    1        6.837   1.395  -2.491  0.00  0.00    +0.014 C 
ATOM      2  C   LIG    1        8.283   1.324  -2.025  0.00  0.00    +0.024 C 
ATOM      3  C   LIG    1        7.825   0.529  -3.223  0.00  0.00    +0.014 C 
ENDROOT
BRANCH   2   4
ATOM      4  C   LIG    1        9.190   2.517  -2.198  0.00  0.00    -0.037 A 
ATOM      5  C   LIG    1       10.454   2.430  -2.779  0.00  0.00    +0.001 A 
ATOM      6  C   LIG    1       11.166   1.243  -3.313  0.00  0.00    +0.080 C 
ATOM      7  C   LIG    1       12.339   1.939  -4.003  0.00  0.00    +0.234 C 
ATOM      8  O   LIG    1       12.514   3.257  -3.439  0.00  0.00    -0.491 OA
ATOM      9  C   LIG    1       11.298   3.531  -2.869  0.00  0.00    +0.124 A 
ATOM     10  C   LIG    1       10.937   4.774  -2.397  0.00  0.00    +0.046 A 
ATOM     11  C   LIG    1        9.675   4.905  -1.825  0.00  0.00    +0.004 A 
ATOM     12  C   LIG    1        8.821   3.792  -1.724  0.00  0.00    +0.004 A 
ENDBRANCH   2   4
BRANCH   1  13
ATOM     13  C   LIG    1        5.752   0.803  -1.646  0.00  0.00    +0.108 C 
BRANCH  13  15
ATOM     14  C   LIG    1        4.975  -1.309  -2.669  0.00  0.00    +0.213 C 
ATOM     15  N   LIG    1        4.827   0.052  -2.463  0.00  0.00    -0.315 N 
ATOM     16  H   LIG    1        4.074   0.542  -2.918  0.00  0.00    +0.149 HD
ATOM     17  O   LIG    1        5.859  -1.980  -2.165  0.00  0.00    -0.276 OA
BRANCH  14  19
ATOM     18  C   LIG    1        4.091  -3.368  -3.826  0.00  0.00    +0.013 C 
ATOM     19  C   LIG    1        3.913  -1.877  -3.592  0.00  0.00    +0.092 C 
ENDBRANCH  14  19
ENDBRANCH  13  15
ENDBRANCH   1  13
TORSDOF 4
