REMARK  Name = *****
REMARK                            x       y       z     vdW  Elec       q    Type
REMARK                         _______ _______ _______ _____ _____    ______ ____
ROOT
ATOM      1  C   LIG    1        6.176  -2.073   1.241  0.00  0.00    +0.061 A 
ATOM      2  C   LIG    1        6.985  -1.587   2.289  0.00  0.00    +0.049 A 
ATOM      3  I   LIG    1        6.115  -0.255   3.702  0.00  0.00    -0.041 I 
ATOM      4  C   LIG    1        8.319  -2.031   2.418  0.00  0.00    +0.066 A 
ATOM      5  C   LIG    1        8.814  -2.989   1.488  0.00  0.00    +0.040 A 
ATOM      6  I   LIG    1       10.472  -4.243   2.054  0.00  0.00    -0.042 I 
ATOM      7  C   LIG    1        8.101  -3.318   0.302  0.00  0.00    +0.065 A 
ATOM      8  C   LIG    1        6.763  -2.841   0.200  0.00  0.00    +0.049 A 
ATOM      9  I   LIG    1        5.581  -2.992  -1.619  0.00  0.00    -0.041 I 
ENDROOT
BRANCH   1  11
ATOM     10  C   LIG    1        3.890  -2.870   1.491  0.00  0.00    +0.243 C 
ATOM     11  N   LIG    1        4.766  -1.809   1.225  0.00  0.00    -0.282 N 
ATOM     12  H   LIG    1        4.459  -0.943   1.659  0.00  0.00    +0.155 HD
ATOM     13  O   LIG    1        4.273  -4.009   1.768  0.00  0.00    -0.273 OA
BRANCH  10  14
ATOM     14  C   LIG    1        2.394  -2.519   1.381  0.00  0.00    +0.255 C 
BRANCH  14  16
ATOM     15  C   LIG    1        0.415  -1.807   2.441  0.00  0.00    +0.194 C 
ATOM     16  O   LIG    1        1.817  -2.034   2.585  0.00  0.00    -0.374 OA
ENDBRANCH  14  16
ENDBRANCH  10  14
ENDBRANCH   1  11
BRANCH   4  17
ATOM     17  C   LIG    1        9.142  -1.563   3.583  0.00  0.00    +0.248 C 
ATOM     18  N   LIG    1        9.891  -0.380   3.478  0.00  0.00    -0.298 N 
ATOM     19  C   LIG    1        9.976   0.448   2.286  0.00  0.00    +0.132 C 
ATOM     20  O   LIG    1        9.125  -2.233   4.613  0.00  0.00    -0.270 OA
BRANCH  18  21
ATOM     21  C   LIG    1       10.789   0.007   4.582  0.00  0.00    +0.141 C 
BRANCH  21  22
ATOM     22  C   LIG    1       12.227  -0.539   4.460  0.00  0.00    +0.157 C 
BRANCH  22  23
ATOM     23  O   LIG    1       13.049   0.125   5.433  0.00  0.00    -0.388 OA
ATOM     24  H   LIG    1       12.874  -0.334   6.281  0.00  0.00    +0.210 HD
ENDBRANCH  22  23
BRANCH  22  25
ATOM     25  C   LIG    1       12.327  -2.042   4.703  0.00  0.00    +0.188 C 
BRANCH  25  26
ATOM     26  O   LIG    1       11.891  -2.351   6.027  0.00  0.00    -0.392 OA
ATOM     27  H   LIG    1       10.914  -2.247   6.029  0.00  0.00    +0.209 HD
ENDBRANCH  25  26
ENDBRANCH  22  25
ENDBRANCH  21  22
ENDBRANCH  18  21
ENDBRANCH   4  17
BRANCH   7  28
ATOM     28  C   LIG    1        8.794  -4.100  -0.805  0.00  0.00    +0.246 C 
ATOM     29  N   LIG    1        8.013  -4.968  -1.520  0.00  0.00    -0.309 N 
ATOM     30  H   LIG    1        6.995  -4.813  -1.499  0.00  0.00    +0.149 HD
ATOM     31  O   LIG    1       10.008  -3.936  -1.055  0.00  0.00    -0.270 OA
BRANCH  29  32
ATOM     32  C   LIG    1        8.469  -5.736  -2.674  0.00  0.00    +0.138 C 
BRANCH  32  33
ATOM     33  C   LIG    1        7.324  -6.528  -3.327  0.00  0.00    +0.157 C 
BRANCH  33  34
ATOM     34  O   LIG    1        6.308  -5.635  -3.825  0.00  0.00    -0.388 OA
ATOM     35  H   LIG    1        6.744  -4.966  -4.383  0.00  0.00    +0.210 HD
ENDBRANCH  33  34
BRANCH  33  36
ATOM     36  C   LIG    1        7.823  -7.367  -4.503  0.00  0.00    +0.188 C 
BRANCH  36  37
ATOM     37  O   LIG    1        6.746  -8.099  -5.086  0.00  0.00    -0.392 OA
ATOM     38  H   LIG    1        5.968  -7.508  -5.074  0.00  0.00    +0.209 HD
ENDBRANCH  36  37
ENDBRANCH  33  36
ENDBRANCH  32  33
ENDBRANCH  29  32
ENDBRANCH   7  28
TORSDOF 15
