REMARK  Name = *****
REMARK                            x       y       z     vdW  Elec       q    Type
REMARK                         _______ _______ _______ _____ _____    ______ ____
ROOT
ATOM      1  C   LIG    1        1.448  -6.176   6.749  0.00  0.00    +0.239 C 
ATOM      2  N   LIG    1        0.681  -7.075   6.026  0.00  0.00    -0.300 N 
ATOM      3  H   LIG    1        1.157  -7.745   5.432  0.00  0.00    +0.150 HD
ATOM      4  O   LIG    1        0.941  -5.407   7.565  0.00  0.00    -0.273 OA
ENDROOT
BRANCH   2   5
ATOM      5  CA  LIG    1       -0.782  -7.195   6.250  0.00  0.00    +0.191 C 
ATOM      6  C   LIG    1       -1.615  -8.052   5.249  0.00  0.00    +0.169 C 
ATOM      7  N   LIG    1       -2.158  -8.751   6.407  0.00  0.00    -0.249 N 
ATOM      8  CA  LIG    1       -2.779  -9.982   6.350  0.00  0.00    +0.123 C 
ATOM      9  C   LIG    1       -2.816 -10.706   5.197  0.00  0.00    -0.021 C 
ATOM     10  C   LIG    1       -2.130 -10.264   3.916  0.00  0.00    +0.104 C 
ATOM     11  S   LIG    1       -0.676  -9.217   4.218  0.00  0.00    -0.131 S 
ATOM     12  C   LIG    1       -1.235  -8.263   7.284  0.00  0.00    +0.244 C 
ATOM     13  O   LIG    1       -0.822  -8.644   8.366  0.00  0.00    -0.273 OA
BRANCH   8  14
ATOM     14  C   LIG    1       -3.493 -10.479   7.585  0.00  0.00    +0.351 C 
ATOM     15  O   LIG    1       -4.301 -11.391   7.649  0.00  0.00    -0.244 OA
BRANCH  14  16
ATOM     16  OXT LIG    1       -3.214  -9.775   8.690  0.00  0.00    -0.476 OA
ATOM     17  HXT LIG    1       -3.672 -10.237   9.419  0.00  0.00    +0.295 HD
ENDBRANCH  14  16
ENDBRANCH   8  14
BRANCH   9  18
ATOM     18  C   LIG    1       -3.431 -12.096   5.071  0.00  0.00    +0.111 C 
BRANCH  18  19
ATOM     19  S   LIG    1       -5.192 -11.997   4.627  0.00  0.00    -0.080 S 
BRANCH  19  20
ATOM     20  C   LIG    1       -5.572 -13.683   4.636  0.00  0.00    +0.209 A 
ATOM     21  N   LIG    1       -6.521 -14.276   5.417  0.00  0.00    -0.223 N 
ATOM     22  C   LIG    1       -7.405 -13.730   6.408  0.00  0.00    +0.177 C 
ATOM     23  N   LIG    1       -6.565 -15.594   5.140  0.00  0.00    -0.043 NA
ATOM     24  N   LIG    1       -5.639 -15.784   4.209  0.00  0.00    -0.022 NA
ATOM     25  N   LIG    1       -5.009 -14.605   3.889  0.00  0.00    -0.102 NA
ENDBRANCH  19  20
ENDBRANCH  18  19
ENDBRANCH   9  18
ENDBRANCH   2   5
BRANCH   1  26
ATOM     26  CA  LIG    1        2.958  -6.148   6.402  0.00  0.00    +0.191 C 
BRANCH  26  34
ATOM     27  N   LIG    1        5.474 -11.844   8.220  0.00  0.00    -0.292 N 
ATOM     28  C   LIG    1        4.703 -11.515   7.109  0.00  0.00    +0.302 C 
ATOM     29  O   LIG    1        4.201 -12.332   6.348  0.00  0.00    -0.265 OA
ATOM     30  C   LIG    1        4.504 -10.012   6.828  0.00  0.00    +0.309 C 
ATOM     31  O   LIG    1        4.351  -9.650   5.662  0.00  0.00    -0.265 OA
ATOM     32  N   LIG    1        4.574  -9.135   7.918  0.00  0.00    -0.217 N 
ATOM     33  C   LIG    1        4.001  -7.858   7.914  0.00  0.00    +0.310 C 
ATOM     34  N   LIG    1        3.557  -7.443   6.694  0.00  0.00    -0.284 N 
ATOM     35  H   LIG    1        3.719  -8.086   5.929  0.00  0.00    +0.151 HD
ATOM     36  O   LIG    1        3.886  -7.172   8.924  0.00  0.00    -0.252 OA
ATOM     37  C   LIG    1        5.017  -9.653   9.205  0.00  0.00    +0.137 C 
ATOM     38  C   LIG    1        6.035 -10.778   9.032  0.00  0.00    +0.127 C 
BRANCH  27  40
ATOM     39  C   LIG    1        5.189 -13.985   9.450  0.00  0.00    +0.024 C 
ATOM     40  C   LIG    1        5.949 -13.213   8.384  0.00  0.00    +0.105 C 
ENDBRANCH  27  40
ENDBRANCH  26  34
BRANCH  26  41
ATOM     41  C   LIG    1        3.196  -5.766   4.937  0.00  0.00    -0.018 A 
ATOM     42  C   LIG    1        3.252  -6.732   3.909  0.00  0.00    +0.009 A 
ATOM     43  C   LIG    1        3.550  -6.379   2.593  0.00  0.00    +0.045 A 
ATOM     44  C   LIG    1        3.749  -5.045   2.278  0.00  0.00    +0.117 A 
ATOM     45  C   LIG    1        3.640  -4.062   3.255  0.00  0.00    +0.045 A 
ATOM     46  C   LIG    1        3.369  -4.419   4.581  0.00  0.00    +0.009 A 
BRANCH  44  47
ATOM     47  O   LIG    1        4.056  -4.662   1.007  0.00  0.00    -0.507 OA
ATOM     48  H   LIG    1        4.154  -5.461   0.461  0.00  0.00    +0.292 HD
ENDBRANCH  44  47
ENDBRANCH  26  41
ENDBRANCH   1  26
TORSDOF 11
