REMARK  Name = *****
REMARK                            x       y       z     vdW  Elec       q    Type
REMARK                         _______ _______ _______ _____ _____    ______ ____
ROOT
ATOM      1  C   LIG    1        4.226   0.023  -4.566  0.00  0.00    +0.179 C 
ENDROOT
BRANCH   1   2
ATOM      2  C   LIG    1        5.046  -1.214  -4.190  0.00  0.00    -0.015 A 
ATOM      3  C   LIG    1        4.713  -2.496  -4.664  0.00  0.00    +0.006 A 
ATOM      4  C   LIG    1        5.431  -3.622  -4.251  0.00  0.00    +0.000 A 
ATOM      5  C   LIG    1        6.502  -3.486  -3.374  0.00  0.00    +0.000 A 
ATOM      6  C   LIG    1        6.864  -2.221  -2.912  0.00  0.00    +0.000 A 
ATOM      7  C   LIG    1        6.138  -1.095  -3.314  0.00  0.00    +0.006 A 
ENDBRANCH   1   2
BRANCH   1   8
ATOM      8  C   LIG    1        3.113   0.348  -3.578  0.00  0.00    -0.015 A 
ATOM      9  C   LIG    1        2.895   1.686  -3.197  0.00  0.00    +0.006 A 
ATOM     10  C   LIG    1        1.815   2.026  -2.379  0.00  0.00    +0.000 A 
ATOM     11  C   LIG    1        0.955   1.040  -1.913  0.00  0.00    +0.000 A 
ATOM     12  C   LIG    1        1.169  -0.293  -2.261  0.00  0.00    +0.000 A 
ATOM     13  C   LIG    1        2.236  -0.632  -3.096  0.00  0.00    +0.006 A 
ENDBRANCH   1   8
BRANCH   1  14
ATOM     14  O   LIG    1        3.687  -0.147  -5.886  0.00  0.00    -0.364 OA
BRANCH  14  19
ATOM     15  C   LIG    1        6.090   0.412  -9.532  0.00  0.00    +0.105 C 
ATOM     16  N   LIG    1        4.937   1.053  -8.888  0.00  0.00    -0.305 NA
ATOM     17  C   LIG    1        5.361   1.615  -7.596  0.00  0.00    +0.086 C 
ATOM     18  C   LIG    1        4.190   2.131  -6.762  0.00  0.00    +0.047 C 
ATOM     19  C   LIG    1        3.162   1.021  -6.539  0.00  0.00    +0.122 C 
ATOM     20  C   LIG    1        2.675   0.588  -7.922  0.00  0.00    +0.047 C 
ATOM     21  C   LIG    1        3.848   0.069  -8.756  0.00  0.00    +0.086 C 
ENDBRANCH  14  19
ENDBRANCH   1  14
TORSDOF 4
