REMARK  Name = *****
REMARK                            x       y       z     vdW  Elec       q    Type
REMARK                         _______ _______ _______ _____ _____    ______ ____
ROOT
ATOM      1  C   LIG    1        4.223  -1.069  -3.447  0.00  0.00    +0.176 C 
ENDROOT
BRANCH   1   2
ATOM      2  O   LIG    1        2.821  -1.362  -3.587  0.00  0.00    -0.387 OA
ATOM      3  H   LIG    1        2.512  -1.605  -2.694  0.00  0.00    +0.210 HD
ENDBRANCH   1   2
BRANCH   1   4
ATOM      4  C   LIG    1        4.391   0.414  -3.063  0.00  0.00    +0.171 C 
BRANCH   4   5
ATOM      5  O   LIG    1        5.774   0.787  -3.007  0.00  0.00    -0.387 OA
ATOM      6  H   LIG    1        5.773   1.670  -2.581  0.00  0.00    +0.210 HD
ENDBRANCH   4   5
BRANCH   4   7
ATOM      7  C   LIG    1        3.722   0.799  -1.741  0.00  0.00    +0.190 C 
BRANCH   7   8
ATOM      8  O   LIG    1        3.905   2.206  -1.538  0.00  0.00    -0.392 OA
ATOM      9  H   LIG    1        3.450   2.418  -0.703  0.00  0.00    +0.209 HD
ENDBRANCH   7   8
ENDBRANCH   4   7
ENDBRANCH   1   4
BRANCH   1  10
ATOM     10  C   LIG    1        4.843  -2.105  -2.487  0.00  0.00    +0.176 C 
BRANCH  10  11
ATOM     11  O   LIG    1        4.122  -2.080  -1.236  0.00  0.00    -0.387 OA
ATOM     12  H   LIG    1        4.681  -2.607  -0.624  0.00  0.00    +0.210 HD
ENDBRANCH  10  11
BRANCH  10  13
ATOM     13  C   LIG    1        6.348  -1.953  -2.215  0.00  0.00    +0.171 C 
BRANCH  13  14
ATOM     14  O   LIG    1        6.746  -3.065  -1.382  0.00  0.00    -0.387 OA
ATOM     15  H   LIG    1        7.724  -3.058  -1.420  0.00  0.00    +0.210 HD
ENDBRANCH  13  14
BRANCH  13  16
ATOM     16  C   LIG    1        7.193  -1.959  -3.491  0.00  0.00    +0.190 C 
BRANCH  16  17
ATOM     17  O   LIG    1        8.578  -1.867  -3.138  0.00  0.00    -0.392 OA
ATOM     18  H   LIG    1        9.058  -1.686  -3.957  0.00  0.00    +0.209 HD
ENDBRANCH  16  17
ENDBRANCH  13  16
ENDBRANCH  10  13
ENDBRANCH   1  10
TORSDOF 11
