REMARK  Name = *****
REMARK                            x       y       z     vdW  Elec       q    Type
REMARK                         _______ _______ _______ _____ _____    ______ ____
ROOT
ATOM      1  C   LIG    1        8.548   1.242  -1.111  0.00  0.00    +0.178 C 
ENDROOT
BRANCH   1   2
ATOM      2  C   LIG    1        8.149   2.676  -1.457  0.00  0.00    -0.014 A 
ATOM      3  C   LIG    1        7.732   2.991  -2.764  0.00  0.00    +0.007 A 
ATOM      4  C   LIG    1        7.321   4.287  -3.095  0.00  0.00    +0.015 A 
ATOM      5  C   LIG    1        7.325   5.279  -2.122  0.00  0.00    +0.018 A 
ATOM      6 BR   LIG    1        6.765   7.033  -2.566  0.00  0.00    -0.050 Br
ATOM      7  C   LIG    1        7.734   4.993  -0.823  0.00  0.00    +0.015 A 
ATOM      8  C   LIG    1        8.140   3.693  -0.492  0.00  0.00    +0.007 A 
ENDBRANCH   1   2
BRANCH   1   9
ATOM      9  C   LIG    1        7.334   0.379  -0.786  0.00  0.00    -0.015 A 
ATOM     10  C   LIG    1        6.860   0.256   0.533  0.00  0.00    +0.006 A 
ATOM     11  C   LIG    1        5.747  -0.536   0.819  0.00  0.00    +0.000 A 
ATOM     12  C   LIG    1        5.078  -1.197  -0.211  0.00  0.00    +0.000 A 
ATOM     13  C   LIG    1        5.531  -1.081  -1.519  0.00  0.00    +0.000 A 
ATOM     14  C   LIG    1        6.654  -0.302  -1.811  0.00  0.00    +0.006 A 
ENDBRANCH   1   9
BRANCH   1  15
ATOM     15  O   LIG    1        9.511   1.248  -0.034  0.00  0.00    -0.366 OA
BRANCH  15  16
ATOM     16  C   LIG    1       10.179  -0.012   0.103  0.00  0.00    +0.176 C 
BRANCH  16  17
ATOM     17  C   LIG    1       11.194   0.040   1.258  0.00  0.00    +0.112 C 
BRANCH  17  19
ATOM     18  C   LIG    1       12.658  -1.736   0.446  0.00  0.00    +0.104 C 
ATOM     19  N   LIG    1       11.889  -1.223   1.578  0.00  0.00    -0.306 NA
ATOM     20  C   LIG    1       10.978  -2.246   2.089  0.00  0.00    +0.104 C 
ENDBRANCH  17  19
ENDBRANCH  16  17
ENDBRANCH  15  16
ENDBRANCH   1  15
TORSDOF 6
