REMARK  Name = *****
REMARK                            x       y       z     vdW  Elec       q    Type
REMARK                         _______ _______ _______ _____ _____    ______ ____
ROOT
ATOM      1  C   LIG    1        3.372   9.207  -2.864  0.00  0.00    +0.011 C 
ATOM      2  C   LIG    1        2.929   8.637  -1.520  0.00  0.00    +0.026 C 
ATOM      3  C   LIG    1        2.135   7.291  -1.511  0.00  0.00    +0.134 C 
ATOM      4  C   LIG    1        0.692   7.682  -1.026  0.00  0.00    +0.010 C 
ATOM      5  C   LIG    1        0.954   8.857  -0.052  0.00  0.00    +0.005 C 
ATOM      6  C   LIG    1        1.370   8.477   1.399  0.00  0.00    +0.036 C 
ATOM      7  C   LIG    1        0.495   7.357   2.018  0.00  0.00    +0.153 C 
ATOM      8  C   LIG    1        0.343   6.156   1.058  0.00  0.00    +0.154 C 
ATOM      9  F   LIG    1       -0.772   7.909   2.118  0.00  0.00    -0.238 F 
ATOM     10  C   LIG    1        0.965   6.982   3.502  0.00  0.00    +0.047 C 
ATOM     11  C   LIG    1        1.570   8.223   4.179  0.00  0.00    -0.020 C 
ATOM     12  C   LIG    1        2.632   8.191   5.003  0.00  0.00    +0.054 C 
ATOM     13  C   LIG    1        3.374   6.938   5.247  0.00  0.00    +0.179 C 
ATOM     14  C   LIG    1        3.026   5.785   4.389  0.00  0.00    +0.047 C 
ATOM     15  O   LIG    1        4.272   6.872   6.071  0.00  0.00    -0.288 OA
ATOM     16  C   LIG    1        0.965   9.523   3.745  0.00  0.00    +0.194 C 
ATOM     17  F   LIG    1        1.438  10.574   4.473  0.00  0.00    -0.241 F 
ATOM     18  C   LIG    1       -0.254   6.548   4.355  0.00  0.00    +0.023 C 
ATOM     19  C   LIG    1        1.953   5.820   3.584  0.00  0.00    -0.009 C 
ATOM     20  C   LIG    1        1.328   9.762   2.281  0.00  0.00    +0.048 C 
ATOM     21  C   LIG    1       -0.176   8.200  -2.209  0.00  0.00    +0.015 C 
ATOM     22  C   LIG    1       -0.125   6.573  -0.336  0.00  0.00    +0.044 C 
ATOM     23  C   LIG    1        2.047   9.661  -0.772  0.00  0.00    +0.011 C 
ENDROOT
BRANCH   3  24
ATOM     24  O   LIG    1        2.763   6.505  -0.487  0.00  0.00    -0.380 OA
ATOM     25  H   LIG    1        3.645   6.231  -0.813  0.00  0.00    +0.211 HD
ENDBRANCH   3  24
BRANCH   3  26
ATOM     26  C   LIG    1        2.119   6.467  -2.833  0.00  0.00    +0.190 C 
ATOM     27  O   LIG    1        2.002   6.978  -3.949  0.00  0.00    -0.292 OA
BRANCH  26  28
ATOM     28  C   LIG    1        2.270   4.955  -2.719  0.00  0.00    +0.233 C 
BRANCH  28  29
ATOM     29  O   LIG    1        3.643   4.601  -2.662  0.00  0.00    -0.387 OA
ATOM     30  H   LIG    1        3.987   4.681  -3.572  0.00  0.00    +0.210 HD
ENDBRANCH  28  29
ENDBRANCH  26  28
ENDBRANCH   3  26
BRANCH   8  31
ATOM     31  O   LIG    1       -0.619   5.217   1.558  0.00  0.00    -0.389 OA
ATOM     32  H   LIG    1       -1.450   5.710   1.701  0.00  0.00    +0.210 HD
ENDBRANCH   8  31
TORSDOF 5
