REMARK  Name = *****
REMARK                            x       y       z     vdW  Elec       q    Type
REMARK                         _______ _______ _______ _____ _____    ______ ____
ROOT
ATOM      1  C   LIG    1       -2.857   4.215   0.218  0.00  0.00    +0.169 C 
ATOM      2  C   LIG    1       -3.243   5.670  -0.328  0.00  0.00    +0.175 C 
ATOM      3  C   LIG    1       -2.511   6.989   0.174  0.00  0.00    +0.169 C 
ATOM      4  C   LIG    1       -1.062   6.652   0.642  0.00  0.00    +0.084 C 
ATOM      5  C   LIG    1       -0.719   5.256   1.111  0.00  0.00    +0.042 C 
ATOM      6  C   LIG    1       -1.293   4.189   0.240  0.00  0.00    +0.084 C 
ENDROOT
BRANCH   4   7
ATOM      7  N   LIG    1       -0.624   7.344   1.828  0.00  0.00    -0.325 NA
ATOM      8  H   LIG    1       -0.348   8.304   1.586  0.00  0.00    +0.118 HD
ATOM      9  H   LIG    1       -1.436   7.415   2.437  0.00  0.00    +0.118 HD
ENDBRANCH   4   7
BRANCH   6  10
ATOM     10  N   LIG    1       -0.641   2.893   0.438  0.00  0.00    -0.325 NA
ATOM     11  H   LIG    1       -1.227   2.112   0.465  0.00  0.00    +0.118 HD
ATOM     12  H   LIG    1       -0.028   2.910   1.291  0.00  0.00    +0.118 HD
ENDBRANCH   6  10
BRANCH   2  13
ATOM     13  O   LIG    1       -4.627   5.845  -0.612  0.00  0.00    -0.387 OA
ATOM     14  H   LIG    1       -4.853   5.226  -1.330  0.00  0.00    +0.210 HD
ENDBRANCH   2  13
BRANCH   1  15
ATOM     15  O   LIG    1       -3.533   3.779   1.440  0.00  0.00    -0.342 OA
BRANCH  15  18
ATOM     16  C   LIG    1       -4.939   0.729   2.812  0.00  0.00    +0.138 C 
ATOM     17  O   LIG    1       -4.609   1.564   1.680  0.00  0.00    -0.345 OA
ATOM     18  C   LIG    1       -3.397   2.345   1.756  0.00  0.00    +0.268 C 
ATOM     19  C   LIG    1       -2.605   2.160   3.096  0.00  0.00    +0.107 C 
ATOM     20  C   LIG    1       -3.487   2.186   4.328  0.00  0.00    +0.026 C 
ATOM     21  C   LIG    1       -4.848   1.574   4.080  0.00  0.00    +0.035 C 
BRANCH  19  22
ATOM     22  N   LIG    1       -1.526   3.089   3.404  0.00  0.00    -0.323 NA
ATOM     23  H   LIG    1       -0.682   2.818   2.896  0.00  0.00    +0.119 HD
ATOM     24  H   LIG    1       -1.846   3.982   3.051  0.00  0.00    +0.119 HD
ENDBRANCH  19  22
BRANCH  16  25
ATOM     25  C   LIG    1       -4.353  -0.768   2.896  0.00  0.00    +0.079 C 
ATOM     26  C   LIG    1       -4.711  -1.574   1.634  0.00  0.00    +0.026 C 
BRANCH  25  28
ATOM     27  C   LIG    1       -2.520  -2.296   3.560  0.00  0.00    +0.101 C 
ATOM     28  N   LIG    1       -2.915  -0.934   3.187  0.00  0.00    -0.314 NA
ATOM     29  H   LIG    1       -2.369  -0.668   2.372  0.00  0.00    +0.122 HD
ENDBRANCH  25  28
ENDBRANCH  16  25
ENDBRANCH  15  18
ENDBRANCH   1  15
BRANCH   3  30
ATOM     30  O   LIG    1       -3.211   7.915   1.076  0.00  0.00    -0.341 OA
BRANCH  30  31
ATOM     31  C   LIG    1       -3.105   9.346   0.730  0.00  0.00    +0.281 C 
ATOM     32  C   LIG    1       -1.697  10.013   0.896  0.00  0.00    +0.190 C 
ATOM     33  C   LIG    1       -1.299  10.411   2.389  0.00  0.00    +0.121 C 
ATOM     34  C   LIG    1       -2.552  10.922   3.154  0.00  0.00    +0.104 C 
ATOM     35  C   LIG    1       -3.188   9.903   4.122  0.00  0.00    +0.045 C 
ATOM     36  C   LIG    1       -3.622  11.300   2.121  0.00  0.00    +0.199 C 
ATOM     37  O   LIG    1       -4.108  10.135   1.427  0.00  0.00    -0.346 OA
BRANCH  33  38
ATOM     38  N   LIG    1       -0.481   9.488   3.204  0.00  0.00    -0.311 NA
ATOM     39  H   LIG    1       -1.033   8.686   3.503  0.00  0.00    +0.122 HD
ATOM     40  C   LIG    1        0.155  10.002   4.403  0.00  0.00    +0.101 C 
ENDBRANCH  33  38
BRANCH  32  41
ATOM     41  O   LIG    1       -0.630   9.402   0.165  0.00  0.00    -0.385 OA
ATOM     42  H   LIG    1       -0.846   9.443  -0.782  0.00  0.00    +0.210 HD
ENDBRANCH  32  41
BRANCH  34  43
ATOM     43  O   LIG    1       -2.192  12.096   3.901  0.00  0.00    -0.385 OA
ATOM     44  H   LIG    1       -1.233  12.063   4.074  0.00  0.00    +0.210 HD
ENDBRANCH  34  43
ENDBRANCH  30  31
ENDBRANCH   3  30
TORSDOF 13
