REMARK  Name = *****
REMARK                            x       y       z     vdW  Elec       q    Type
REMARK                         _______ _______ _______ _____ _____    ______ ____
ROOT
ATOM      1  C   LIG    1        4.645  -1.173  -0.831  0.00  0.00    -0.047 A 
ATOM      2  C   LIG    1        5.361   0.010  -0.605  0.00  0.00    +0.004 A 
ATOM      3  C   LIG    1        6.753  -0.005  -0.498  0.00  0.00    +0.005 A 
ATOM      4  C   LIG    1        7.470  -1.203  -0.630  0.00  0.00    -0.034 A 
ATOM      5  C   LIG    1        6.758  -2.387  -0.868  0.00  0.00    +0.005 A 
ATOM      6  C   LIG    1        5.359  -2.371  -0.958  0.00  0.00    +0.004 A 
ENDROOT
BRANCH   4   7
ATOM      7  C   LIG    1        8.980  -1.229  -0.434  0.00  0.00    +0.124 C 
ATOM      8  C   LIG    1        9.687  -0.351  -1.474  0.00  0.00    +0.024 C 
BRANCH   7   9
ATOM      9  C   LIG    1        9.406  -0.835   0.985  0.00  0.00    +0.312 C 
ATOM     10  O   LIG    1       10.463  -0.289   1.257  0.00  0.00    -0.250 OA
BRANCH   9  11
ATOM     11  O   LIG    1        8.542  -1.209   1.963  0.00  0.00    -0.480 OA
ATOM     12  H   LIG    1        7.717  -1.617   1.637  0.00  0.00    +0.295 HD
ENDBRANCH   9  11
ENDBRANCH   7   9
ENDBRANCH   4   7
BRANCH   1  13
ATOM     13  C   LIG    1        3.136  -1.145  -0.967  0.00  0.00    +0.038 C 
BRANCH  13  15
ATOM     14  C   LIG    1        2.624  -0.279   1.393  0.00  0.00    +0.007 C 
ATOM     15  C   LIG    1        2.337  -1.353   0.340  0.00  0.00    -0.013 C 
ATOM     16  C   LIG    1        0.830  -1.349   0.049  0.00  0.00    +0.007 C 
ENDBRANCH  13  15
ENDBRANCH   1  13
TORSDOF 5
