REMARK  Name = *****
REMARK                            x       y       z     vdW  Elec       q    Type
REMARK                         _______ _______ _______ _____ _____    ______ ____
ROOT
ATOM      1  C   LIG    1        1.095  -2.285   0.201  0.00  0.00    +0.080 C 
ATOM      2  C   LIG    1        0.552  -3.673   0.584  0.00  0.00    +0.170 C 
ATOM      3  O   LIG    1        1.279  -4.660   0.648  0.00  0.00    -0.292 OA
ATOM      4  C   LIG    1       -0.889  -3.748   0.794  0.00  0.00    +0.046 C 
ATOM      5  C   LIG    1       -1.756  -4.864   0.942  0.00  0.00    +0.011 C 
ATOM      6  C   LIG    1       -3.054  -4.363   1.118  0.00  0.00    +0.050 C 
ATOM      7  N   LIG    1       -2.967  -2.983   1.081  0.00  0.00    -0.346 NA
ATOM      8  C   LIG    1       -4.073  -2.061   1.235  0.00  0.00    +0.149 C 
ATOM      9  C   LIG    1       -4.156  -5.220   1.287  0.00  0.00    +0.026 C 
ATOM     10  C   LIG    1       -3.934  -6.600   1.265  0.00  0.00    +0.002 C 
ATOM     11  C   LIG    1       -2.656  -7.117   1.086  0.00  0.00    +0.001 C 
ATOM     12  C   LIG    1       -1.562  -6.261   0.927  0.00  0.00    +0.010 C 
ATOM     13  C   LIG    1       -1.663  -2.606   0.876  0.00  0.00    +0.030 C 
ATOM     14  C   LIG    1       -1.171  -1.208   0.745  0.00  0.00    +0.055 C 
ATOM     15  C   LIG    1        0.347  -1.177   0.981  0.00  0.00    +0.019 C 
ENDROOT
BRANCH   1  16
ATOM     16  C   LIG    1        2.611  -2.254   0.441  0.00  0.00    +0.134 C 
BRANCH  16  19
ATOM     17  C   LIG    1        3.756  -1.738  -2.390  0.00  0.00    +0.086 C 
ATOM     18  C   LIG    1        3.736  -0.761  -1.273  0.00  0.00    +0.106 A 
ATOM     19  N   LIG    1        3.243  -1.028  -0.015  0.00  0.00    -0.334 N 
ATOM     20  C   LIG    1        3.468   0.076   0.762  0.00  0.00    +0.107 A 
ATOM     21  C   LIG    1        4.036   1.000  -0.080  0.00  0.00    +0.130 A 
ATOM     22  N   LIG    1        4.194   0.475  -1.334  0.00  0.00    -0.241 NA
ENDBRANCH  16  19
ENDBRANCH   1  16
TORSDOF 2
