REMARK  Name = *****
REMARK                            x       y       z     vdW  Elec       q    Type
REMARK                         _______ _______ _______ _____ _____    ______ ____
ROOT
ATOM      1  C   LIG    1       -7.361   2.892  -1.358  0.00  0.00    +0.061 C 
ATOM      2  C   LIG    1       -6.643   3.403  -0.081  0.00  0.00    -0.019 C 
ATOM      3  C   LIG    1       -5.291   4.073  -0.388  0.00  0.00    +0.012 C 
ATOM      4  C   LIG    1       -6.465   2.112   0.748  0.00  0.00    +0.003 C 
ATOM      5  C   LIG    1       -6.120   2.354   2.232  0.00  0.00    +0.019 C 
ATOM      6  C   LIG    1       -6.937   3.445   2.966  0.00  0.00    +0.006 C 
ATOM      7  C   LIG    1       -7.120   4.701   2.094  0.00  0.00    +0.005 C 
ATOM      8  C   LIG    1       -8.201   2.959   3.801  0.00  0.00    -0.003 C 
ATOM      9  C   LIG    1       -8.095   3.659   5.191  0.00  0.00    +0.016 C 
ATOM     10  C   LIG    1       -8.220   1.448   4.063  0.00  0.00    -0.038 C 
ATOM     11  C   LIG    1       -9.342   0.780   4.389  0.00  0.00    +0.050 C 
ATOM     12  C   LIG    1      -10.657   1.456   4.455  0.00  0.00    +0.156 C 
ATOM     13  O   LIG    1      -11.625   0.839   4.895  0.00  0.00    -0.293 OA
ATOM     14  C   LIG    1      -10.772   2.888   3.994  0.00  0.00    +0.080 C 
ATOM     15  C   LIG    1       -7.001   0.690   3.879  0.00  0.00    +0.000 C 
ATOM     16  C   LIG    1       -9.566   3.345   3.172  0.00  0.00    +0.019 C 
ATOM     17  C   LIG    1       -6.048   1.081   3.026  0.00  0.00    -0.023 C 
ATOM     18  C   LIG    1       -7.724   1.280   0.461  0.00  0.00    +0.005 C 
ATOM     19  C   LIG    1       -7.557   4.413   0.659  0.00  0.00    +0.008 C 
ATOM     20  C   LIG    1       -8.301   1.787  -0.863  0.00  0.00    +0.012 C 
ENDROOT
BRANCH   1  22
ATOM     21  C   LIG    1       -6.279   3.154  -3.691  0.00  0.00    +0.086 C 
ATOM     22  C   LIG    1       -6.431   2.332  -2.437  0.00  0.00    +0.134 C 
ATOM     23  O   LIG    1       -5.825   1.269  -2.301  0.00  0.00    -0.297 OA
ENDBRANCH   1  22
TORSDOF 1
