REMARK  Name = *****
REMARK                            x       y       z     vdW  Elec       q    Type
REMARK                         _______ _______ _______ _____ _____    ______ ____
ROOT
ATOM      1  C   LIG    1      -13.355   1.300  -4.383  0.00  0.00    +0.250 C 
ATOM      2  C   LIG    1      -14.495   1.548  -3.360  0.00  0.00    +0.092 C 
ATOM      3  C   LIG    1      -15.786   1.050  -4.128  0.00  0.00    +0.054 C 
ATOM      4  N   LIG    1      -16.994   0.840  -3.292  0.00  0.00    -0.292 NA
ATOM      5  C   LIG    1      -17.200   2.015  -2.413  0.00  0.00    +0.090 C 
ATOM      6  C   LIG    1      -16.431   1.981  -1.083  0.00  0.00    +0.051 C 
ATOM      7  C   LIG    1      -15.258   1.036  -0.959  0.00  0.00    -0.039 A 
ATOM      8  C   LIG    1      -15.127   0.358   0.272  0.00  0.00    +0.053 A 
ATOM      9  C   LIG    1      -14.104  -0.544   0.428  0.00  0.00    +0.167 A 
ATOM     10  O   LIG    1      -13.873  -1.306   1.529  0.00  0.00    -0.453 OA
ATOM     11  C   LIG    1      -12.750  -2.089   1.077  0.00  0.00    +0.466 C 
ATOM     12  O   LIG    1      -12.280  -1.716  -0.235  0.00  0.00    -0.453 OA
ATOM     13  C   LIG    1      -13.202  -0.775  -0.573  0.00  0.00    +0.167 A 
ATOM     14  C   LIG    1      -13.274  -0.114  -1.782  0.00  0.00    +0.054 A 
ATOM     15  C   LIG    1      -18.120   0.710  -4.232  0.00  0.00    +0.085 C 
ATOM     16  C   LIG    1      -17.801   1.608  -5.412  0.00  0.00    +0.017 C 
ATOM     17  C   LIG    1      -16.323   1.963  -5.259  0.00  0.00    +0.029 C 
ATOM     18  C   LIG    1      -15.193  -0.160  -4.809  0.00  0.00    +0.041 C 
ATOM     19  C   LIG    1      -14.316   0.819  -2.004  0.00  0.00    -0.031 A 
ATOM     20  C   LIG    1      -13.876   0.025  -5.031  0.00  0.00    +0.136 C 
ENDROOT
BRANCH  20  21
ATOM     21  O   LIG    1      -12.967  -0.849  -5.564  0.00  0.00    -0.496 OA
ATOM     22  C   LIG    1      -13.379  -2.215  -5.574  0.00  0.00    +0.277 C 
ENDBRANCH  20  21
BRANCH   1  23
ATOM     23  O   LIG    1      -13.346   2.398  -5.312  0.00  0.00    -0.451 OA
BRANCH  23  24
ATOM     24  C   LIG    1      -12.129   2.773  -5.853  0.00  0.00    +0.340 C 
ATOM     25  O   LIG    1      -11.067   2.346  -5.471  0.00  0.00    -0.248 OA
BRANCH  24  26
ATOM     26  C   LIG    1      -12.427   3.762  -7.047  0.00  0.00    +0.172 C 
BRANCH  26  27
ATOM     27  O   LIG    1      -13.825   3.599  -7.409  0.00  0.00    -0.377 OA
ATOM     28  H   LIG    1      -14.276   3.378  -6.570  0.00  0.00    +0.211 HD
ENDBRANCH  26  27
BRANCH  26  29
ATOM     29  C   LIG    1      -11.633   3.328  -8.286  0.00  0.00    +0.166 C 
BRANCH  29  30
ATOM     30  C   LIG    1      -10.151   3.569  -8.148  0.00  0.00    +0.310 C 
ATOM     31  O   LIG    1       -9.532   3.602  -7.097  0.00  0.00    -0.251 OA
BRANCH  30  33
ATOM     32  C   LIG    1       -8.141   3.865  -9.237  0.00  0.00    +0.280 C 
ATOM     33  O   LIG    1       -9.559   3.730  -9.364  0.00  0.00    -0.468 OA
ENDBRANCH  30  33
ENDBRANCH  29  30
ENDBRANCH  26  29
BRANCH  26  34
ATOM     34  C   LIG    1      -12.270   5.264  -6.656  0.00  0.00    +0.047 C 
BRANCH  34  35
ATOM     35  C   LIG    1      -12.711   6.321  -7.710  0.00  0.00    +0.006 C 
BRANCH  35  36
ATOM     36  C   LIG    1      -12.519   7.767  -7.171  0.00  0.00    +0.034 C 
BRANCH  36  37
ATOM     37  C   LIG    1      -12.943   8.911  -8.130  0.00  0.00    +0.060 C 
ATOM     38  C   LIG    1      -12.695  10.306  -7.526  0.00  0.00    +0.041 C 
ATOM     39  C   LIG    1      -14.426   8.822  -8.486  0.00  0.00    +0.041 C 
BRANCH  37  40
ATOM     40  O   LIG    1      -12.189   8.816  -9.339  0.00  0.00    -0.389 OA
ATOM     41  H   LIG    1      -11.284   9.122  -9.157  0.00  0.00    +0.210 HD
ENDBRANCH  37  40
ENDBRANCH  36  37
ENDBRANCH  35  36
ENDBRANCH  34  35
ENDBRANCH  26  34
ENDBRANCH  24  26
ENDBRANCH  23  24
ENDBRANCH   1  23
TORSDOF 13
