REMARK  Name = *****
REMARK                            x       y       z     vdW  Elec       q    Type
REMARK                         _______ _______ _______ _____ _____    ______ ____
ROOT
ATOM      1  C   LIG    1      -11.763   2.352  -1.667  0.00  0.00    +0.129 C 
ATOM      2  C   LIG    1      -10.260   2.087  -1.232  0.00  0.00    +0.008 C 
ATOM      3  C   LIG    1       -9.340   1.803  -2.434  0.00  0.00    +0.015 C 
ATOM      4  C   LIG    1      -10.359   0.812  -0.351  0.00  0.00    +0.005 C 
ATOM      5  C   LIG    1       -9.118   0.546   0.536  0.00  0.00    +0.020 C 
ATOM      6  C   LIG    1       -8.687   1.776   1.343  0.00  0.00    -0.055 C 
ATOM      7  C   LIG    1       -8.452   3.024   0.476  0.00  0.00    +0.046 C 
ATOM      8  C   LIG    1       -8.459   1.716   2.681  0.00  0.00    -0.044 C 
ATOM      9  C   LIG    1       -8.457   0.428   3.381  0.00  0.00    -0.041 C 
ATOM     10  C   LIG    1       -8.545   0.327   4.717  0.00  0.00    +0.050 C 
ATOM     11  C   LIG    1       -8.716   1.529   5.561  0.00  0.00    +0.157 C 
ATOM     12  O   LIG    1       -8.818   1.400   6.783  0.00  0.00    -0.293 OA
ATOM     13  C   LIG    1       -8.842   2.867   4.881  0.00  0.00    +0.083 C 
ATOM     14  C   LIG    1       -8.302  -0.794   2.514  0.00  0.00    +0.036 C 
ATOM     15  C   LIG    1       -8.067   2.880   3.569  0.00  0.00    +0.043 C 
ATOM     16  C   LIG    1       -9.323  -0.723   1.391  0.00  0.00    +0.013 C 
ATOM     17  C   LIG    1      -11.677   1.022   0.399  0.00  0.00    +0.008 C 
ATOM     18  C   LIG    1       -9.713   3.283  -0.386  0.00  0.00    +0.022 C 
ATOM     19  C   LIG    1      -12.626   1.534  -0.677  0.00  0.00    +0.043 C 
ENDROOT
BRANCH   7  20
ATOM     20  C   LIG    1       -7.102   3.004  -0.256  0.00  0.00    -0.040 A 
ATOM     21  C   LIG    1       -5.992   2.341   0.283  0.00  0.00    +0.006 A 
ATOM     22  C   LIG    1       -4.758   2.304  -0.386  0.00  0.00    +0.023 A 
ATOM     23  C   LIG    1       -4.556   2.924  -1.627  0.00  0.00    +0.029 A 
ATOM     24  C   LIG    1       -5.650   3.651  -2.117  0.00  0.00    +0.023 A 
ATOM     25  C   LIG    1       -6.884   3.706  -1.445  0.00  0.00    +0.006 A 
BRANCH  23  26
ATOM     26  N   LIG    1       -3.328   2.871  -2.303  0.00  0.00    -0.336 N 
ATOM     27  C   LIG    1       -2.341   1.886  -1.856  0.00  0.00    +0.129 C 
ATOM     28  C   LIG    1       -3.315   3.131  -3.743  0.00  0.00    +0.129 C 
ENDBRANCH  23  26
ENDBRANCH   7  20
BRANCH   1  30
ATOM     29  C   LIG    1      -12.039   3.035  -4.185  0.00  0.00    +0.089 C 
ATOM     30  C   LIG    1      -12.092   1.949  -3.132  0.00  0.00    +0.162 C 
ATOM     31  O   LIG    1      -12.396   0.797  -3.450  0.00  0.00    -0.295 OA
ENDBRANCH   1  30
BRANCH   1  32
ATOM     32  O   LIG    1      -12.100   3.736  -1.510  0.00  0.00    -0.381 OA
ATOM     33  H   LIG    1      -13.069   3.818  -1.553  0.00  0.00    +0.211 HD
ENDBRANCH   1  32
TORSDOF 4
