REMARK  Name = *****
REMARK                            x       y       z     vdW  Elec       q    Type
REMARK                         _______ _______ _______ _____ _____    ______ ____
ROOT
ATOM      1  C   LIG    1        1.286  -3.100  -2.052  0.00  0.00    +0.027 C 
ATOM      2  C   LIG    1        2.664  -2.493  -1.696  0.00  0.00    +0.086 C 
ENDROOT
BRANCH   2   3
ATOM      3  N   LIG    1        2.480  -1.087  -1.211  0.00  0.00    -0.297 NA
ATOM      4  C   LIG    1        3.641  -0.474  -0.572  0.00  0.00    +0.085 C 
ATOM      5  C   LIG    1        4.748  -0.050  -1.545  0.00  0.00    +0.019 C 
ATOM      6  C   LIG    1        4.209   0.493  -2.883  0.00  0.00    -0.004 C 
ATOM      7  C   LIG    1        2.775   0.987  -2.692  0.00  0.00    +0.019 C 
ATOM      8  C   LIG    1        1.876  -0.161  -2.192  0.00  0.00    +0.085 C 
BRANCH   6   9
ATOM      9  C   LIG    1        5.133   1.501  -3.611  0.00  0.00    +0.038 C 
BRANCH   9  10
ATOM     10  C   LIG    1        5.258   2.887  -3.021  0.00  0.00    -0.047 A 
ATOM     11  C   LIG    1        5.926   3.105  -1.809  0.00  0.00    +0.003 A 
ATOM     12  C   LIG    1        5.952   4.367  -1.217  0.00  0.00    +0.000 A 
ATOM     13  C   LIG    1        5.385   5.453  -1.873  0.00  0.00    +0.000 A 
ATOM     14  C   LIG    1        4.797   5.276  -3.122  0.00  0.00    +0.000 A 
ATOM     15  C   LIG    1        4.723   3.999  -3.688  0.00  0.00    +0.003 A 
ENDBRANCH   9  10
ENDBRANCH   6   9
ENDBRANCH   2   3
BRANCH   2  16
ATOM     16  C   LIG    1        3.381  -3.472  -0.667  0.00  0.00    +0.161 C 
BRANCH  16  17
ATOM     17  C   LIG    1        3.646  -4.905  -1.137  0.00  0.00    -0.017 A 
ATOM     18  C   LIG    1        4.007  -5.194  -2.462  0.00  0.00    +0.010 A 
ATOM     19  C   LIG    1        4.234  -6.507  -2.884  0.00  0.00    +0.046 A 
ATOM     20  C   LIG    1        4.129  -7.553  -1.976  0.00  0.00    +0.117 A 
ATOM     21  C   LIG    1        3.830  -7.303  -0.646  0.00  0.00    +0.046 A 
ATOM     22  C   LIG    1        3.597  -5.987  -0.231  0.00  0.00    +0.010 A 
BRANCH  20  23
ATOM     23  O   LIG    1        4.330  -8.821  -2.433  0.00  0.00    -0.507 OA
ATOM     24  H   LIG    1        4.110  -9.442  -1.718  0.00  0.00    +0.292 HD
ENDBRANCH  20  23
ENDBRANCH  16  17
BRANCH  16  25
ATOM     25  O   LIG    1        2.599  -3.511   0.537  0.00  0.00    -0.386 OA
ATOM     26  H   LIG    1        3.210  -3.693   1.268  0.00  0.00    +0.210 HD
ENDBRANCH  16  25
ENDBRANCH   2  16
TORSDOF 7
