REMARK  Name = *****
REMARK                            x       y       z     vdW  Elec       q    Type
REMARK                         _______ _______ _______ _____ _____    ______ ____
ROOT
ATOM      1  C   LIG    1        1.620   1.550  -3.406  0.00  0.00    +0.341 C 
ATOM      2  O   LIG    1        2.336   2.548  -3.459  0.00  0.00    -0.247 OA
ENDROOT
BRANCH   1   3
ATOM      3  O   LIG    1        1.902   0.408  -2.721  0.00  0.00    -0.459 OA
BRANCH   3  11
ATOM      4  C   LIG    1        2.608   0.691   1.693  0.00  0.00    +0.007 C 
ATOM      5  C   LIG    1        2.477   0.072   0.300  0.00  0.00    -0.010 C 
ATOM      6  C   LIG    1        3.012  -1.368   0.306  0.00  0.00    +0.010 C 
ATOM      7  C   LIG    1        2.945  -2.049  -1.078  0.00  0.00    -0.031 C 
ATOM      8  C   LIG    1        3.690  -3.398  -1.006  0.00  0.00    +0.011 C 
ATOM      9  C   LIG    1        1.484  -2.355  -1.462  0.00  0.00    +0.011 C 
ATOM     10  C   LIG    1        3.643  -1.157  -2.135  0.00  0.00    +0.051 C 
ATOM     11  C   LIG    1        3.213   0.317  -2.138  0.00  0.00    +0.177 C 
ATOM     12  C   LIG    1        3.226   0.925  -0.734  0.00  0.00    +0.048 C 
ENDBRANCH   3  11
ENDBRANCH   1   3
BRANCH   1  13
ATOM     13  C   LIG    1        0.278   1.442  -4.146  0.00  0.00    +0.253 C 
BRANCH  13  14
ATOM     14  C   LIG    1        0.316   0.367  -5.214  0.00  0.00    -0.008 A 
ATOM     15  C   LIG    1        0.775   0.643  -6.513  0.00  0.00    +0.007 A 
ATOM     16  C   LIG    1        0.854  -0.369  -7.470  0.00  0.00    +0.000 A 
ATOM     17  C   LIG    1        0.487  -1.671  -7.138  0.00  0.00    +0.000 A 
ATOM     18  C   LIG    1        0.038  -1.963  -5.852  0.00  0.00    +0.000 A 
ATOM     19  C   LIG    1       -0.050  -0.950  -4.896  0.00  0.00    +0.007 A 
ENDBRANCH  13  14
BRANCH  13  20
ATOM     20  O   LIG    1       -0.103   2.687  -4.742  0.00  0.00    -0.376 OA
ATOM     21  H   LIG    1        0.721   3.204  -4.831  0.00  0.00    +0.211 HD
ENDBRANCH  13  20
ENDBRANCH   1  13
TORSDOF 5
