REMARK  Name = *****
REMARK                            x       y       z     vdW  Elec       q    Type
REMARK                         _______ _______ _______ _____ _____    ______ ____
ROOT
ATOM      1  C   LIG    1       -4.242 -13.074   4.861  0.00  0.00    +0.137 C 
ENDROOT
BRANCH   1   2
ATOM      2  O   LIG    1       -4.396 -12.552   6.170  0.00  0.00    -0.390 OA
ATOM      3  H   LIG    1       -4.362 -11.577   6.110  0.00  0.00    +0.210 HD
ENDBRANCH   1   2
BRANCH   1   4
ATOM      4  C   LIG    1       -5.381 -12.555   3.969  0.00  0.00    +0.056 C 
BRANCH   4   5
ATOM      5  C   LIG    1       -6.798 -12.789   4.538  0.00  0.00    +0.080 C 
BRANCH   5   6
ATOM      6  N   LIG    1       -7.787 -12.237   3.602  0.00  0.00    -0.310 N 
ATOM      7  H   LIG    1       -7.647 -12.417   2.619  0.00  0.00    +0.149 HD
ATOM      8  C   LIG    1       -8.933 -11.575   4.013  0.00  0.00    +0.234 C 
ATOM      9  O   LIG    1       -9.135 -11.399   5.216  0.00  0.00    -0.274 OA
BRANCH   8  10
ATOM     10  C   LIG    1       -9.922 -11.149   2.839  0.00  0.00    +0.166 C 
BRANCH  10  11
ATOM     11  N   LIG    1      -11.344 -10.998   3.278  0.00  0.00    -0.274 N 
ATOM     12  C   LIG    1      -11.706 -10.252   4.371  0.00  0.00    +0.303 C 
ATOM     13  O   LIG    1      -10.931  -9.498   5.015  0.00  0.00    -0.253 OA
ATOM     14  N   LIG    1      -13.005 -10.317   4.774  0.00  0.00    -0.299 N 
ATOM     15  H   LIG    1      -13.185  -9.873   5.672  0.00  0.00    +0.150 HD
ATOM     16  C   LIG    1      -14.041 -11.076   4.131  0.00  0.00    +0.107 C 
ATOM     17  C   LIG    1      -13.742 -11.151   2.657  0.00  0.00    +0.038 C 
ATOM     18  C   LIG    1      -12.355 -11.751   2.527  0.00  0.00    +0.112 C 
ENDBRANCH  10  11
BRANCH  10  19
ATOM     19  C   LIG    1       -9.447 -10.008   1.865  0.00  0.00    +0.012 C 
ATOM     20  C   LIG    1       -7.961 -10.100   1.492  0.00  0.00    +0.009 C 
ATOM     21  C   LIG    1      -10.215  -9.988   0.520  0.00  0.00    +0.009 C 
ENDBRANCH  10  19
ENDBRANCH   8  10
ENDBRANCH   5   6
BRANCH   5  22
ATOM     22  C   LIG    1       -7.138 -14.237   4.981  0.00  0.00    +0.057 C 
BRANCH  22  23
ATOM     23  C   LIG    1       -7.224 -15.376   3.979  0.00  0.00    -0.046 A 
ATOM     24  C   LIG    1       -6.115 -15.790   3.229  0.00  0.00    +0.003 A 
ATOM     25  C   LIG    1       -6.109 -17.021   2.568  0.00  0.00    +0.000 A 
ATOM     26  C   LIG    1       -7.210 -17.866   2.653  0.00  0.00    +0.000 A 
ATOM     27  C   LIG    1       -8.344 -17.448   3.342  0.00  0.00    +0.000 A 
ATOM     28  C   LIG    1       -8.362 -16.202   3.979  0.00  0.00    +0.003 A 
ENDBRANCH  22  23
ENDBRANCH   5  22
ENDBRANCH   4   5
ENDBRANCH   1   4
BRANCH   1  29
ATOM     29  C   LIG    1       -2.816 -12.822   4.271  0.00  0.00    +0.106 C 
BRANCH  29  31
ATOM     30  C   LIG    1       -2.249 -10.356   5.071  0.00  0.00    +0.251 C 
ATOM     31  N   LIG    1       -2.435 -11.357   4.113  0.00  0.00    -0.307 N 
ATOM     32  H   LIG    1       -2.339 -11.048   3.156  0.00  0.00    +0.149 HD
ATOM     33  O   LIG    1       -2.374 -10.569   6.271  0.00  0.00    -0.272 OA
BRANCH  30  34
ATOM     34  C   LIG    1       -1.804  -8.922   4.507  0.00  0.00    +0.324 C 
BRANCH  34  35
ATOM     35  O   LIG    1       -2.800  -7.942   4.190  0.00  0.00    -0.482 OA
BRANCH  35  38
ATOM     36  C   LIG    1       -0.246  -7.227   2.519  0.00  0.00    +0.048 C 
ATOM     37  C   LIG    1       -1.378  -6.319   2.890  0.00  0.00    -0.009 A 
ATOM     38  C   LIG    1       -2.489  -6.683   3.684  0.00  0.00    +0.127 A 
ATOM     39  C   LIG    1       -3.477  -5.676   3.900  0.00  0.00    -0.009 A 
ATOM     40  C   LIG    1       -4.743  -5.942   4.671  0.00  0.00    +0.048 C 
ATOM     41  C   LIG    1       -3.351  -4.379   3.341  0.00  0.00    +0.007 A 
ATOM     42  C   LIG    1       -2.274  -4.053   2.541  0.00  0.00    +0.001 A 
ATOM     43  C   LIG    1       -1.305  -5.018   2.315  0.00  0.00    +0.007 A 
ENDBRANCH  35  38
ENDBRANCH  34  35
ENDBRANCH  30  34
ENDBRANCH  29  31
BRANCH  29  44
ATOM     44  C   LIG    1       -1.721 -13.756   4.915  0.00  0.00    +0.060 C 
BRANCH  44  45
ATOM     45  C   LIG    1       -1.990 -15.276   4.849  0.00  0.00    -0.045 A 
ATOM     46  C   LIG    1       -1.683 -16.046   3.711  0.00  0.00    +0.003 A 
ATOM     47  C   LIG    1       -2.023 -17.411   3.639  0.00  0.00    +0.000 A 
ATOM     48  C   LIG    1       -2.646 -18.042   4.712  0.00  0.00    +0.000 A 
ATOM     49  C   LIG    1       -2.910 -17.313   5.866  0.00  0.00    +0.000 A 
ATOM     50  C   LIG    1       -2.585 -15.947   5.935  0.00  0.00    +0.003 A 
ENDBRANCH  44  45
ENDBRANCH  29  44
ENDBRANCH   1  29
TORSDOF 16
