REMARK  Name = *****
REMARK                            x       y       z     vdW  Elec       q    Type
REMARK                         _______ _______ _______ _____ _____    ______ ____
ROOT
ATOM      1  C   LIG    1       -2.814   0.594  -1.395  0.00  0.00    +0.024 C 
ATOM      2  C   LIG    1       -1.936   0.520  -2.659  0.00  0.00    +0.028 C 
ATOM      3  C   LIG    1       -4.317   0.063  -1.554  0.00  0.00    -0.014 C 
ATOM      4  C   LIG    1       -4.718  -1.067  -0.567  0.00  0.00    +0.013 C 
ATOM      5  C   LIG    1       -4.659  -0.474  -2.956  0.00  0.00    +0.013 C 
ATOM      6  C   LIG    1       -5.160   1.334  -1.169  0.00  0.00    -0.003 C 
ATOM      7  C   LIG    1       -4.308   1.981  -0.070  0.00  0.00    +0.009 C 
ATOM      8  C   LIG    1       -5.095   2.426  -2.250  0.00  0.00    +0.004 C 
ATOM      9  C   LIG    1       -3.664   2.951  -2.121  0.00  0.00    +0.005 C 
ATOM     10  C   LIG    1       -3.079   2.096  -0.978  0.00  0.00    +0.010 C 
ENDROOT
BRANCH   1  12
ATOM     11  C   LIG    1       -1.417  -1.275  -0.495  0.00  0.00    +0.101 C 
ATOM     12  N   LIG    1       -2.108  -0.018  -0.238  0.00  0.00    -0.313 NA
ATOM     13  H   LIG    1       -1.429   0.643   0.140  0.00  0.00    +0.122 HD
ENDBRANCH   1  12
TORSDOF 1
