REMARK  Name = *****
REMARK                            x       y       z     vdW  Elec       q    Type
REMARK                         _______ _______ _______ _____ _____    ______ ____
ROOT
ATOM      1  C   LIG    1       13.959  -3.072  -1.122  0.00  0.00    +0.034 A 
ATOM      2  C   LIG    1       12.885  -2.472  -1.780  0.00  0.00    +0.027 A 
ATOM      3  C   LIG    1       12.513  -1.173  -1.466  0.00  0.00    +0.047 A 
ATOM      4  C   LIG    1       13.178  -0.440  -0.480  0.00  0.00    +0.121 A 
ATOM      5  C   LIG    1       14.279  -1.018   0.152  0.00  0.00    +0.047 A 
ATOM      6  C   LIG    1       14.665  -2.329  -0.175  0.00  0.00    +0.027 A 
ENDROOT
BRANCH   1   9
ATOM      7  C   LIG    1       15.191  -6.596  -1.517  0.00  0.00    +0.109 C 
ATOM      8  C   LIG    1       15.223  -5.207  -0.942  0.00  0.00    +0.214 C 
ATOM      9  N   LIG    1       14.225  -4.402  -1.470  0.00  0.00    -0.286 N 
ATOM     10  H   LIG    1       13.610  -4.822  -2.149  0.00  0.00    +0.155 HD
ATOM     11  O   LIG    1       16.042  -4.903  -0.097  0.00  0.00    -0.276 OA
ENDBRANCH   1   9
BRANCH   4  12
ATOM     12  O   LIG    1       12.785   0.823  -0.092  0.00  0.00    -0.489 OA
BRANCH  12  13
ATOM     13  C   LIG    1       11.622   1.287  -0.806  0.00  0.00    +0.261 C 
BRANCH  13  14
ATOM     14  C   LIG    1       11.134   2.651  -0.328  0.00  0.00    +0.166 C 
BRANCH  14  15
ATOM     15  O   LIG    1       10.804   2.642   1.063  0.00  0.00    -0.387 OA
ATOM     16  H   LIG    1       10.573   1.725   1.294  0.00  0.00    +0.210 HD
ENDBRANCH  14  15
BRANCH  14  17
ATOM     17  C   LIG    1        9.897   3.109  -1.137  0.00  0.00    +0.115 C 
BRANCH  17  18
ATOM     18  N   LIG    1        8.694   2.260  -0.966  0.00  0.00    -0.311 NA
ATOM     19  H   LIG    1        8.446   2.273   0.027  0.00  0.00    +0.122 HD
BRANCH  18  20
ATOM     20  C   LIG    1        7.547   2.776  -1.744  0.00  0.00    +0.048 C 
ATOM     21  C   LIG    1        6.280   1.961  -1.452  0.00  0.00    +0.024 C 
ATOM     22  C   LIG    1        7.830   2.742  -3.249  0.00  0.00    +0.024 C 
ENDBRANCH  18  20
ENDBRANCH  17  18
ENDBRANCH  14  17
ENDBRANCH  13  14
ENDBRANCH  12  13
ENDBRANCH   4  12
TORSDOF 8
