REMARK  Name = *****
REMARK                            x       y       z     vdW  Elec       q    Type
REMARK                         _______ _______ _______ _____ _____    ______ ____
ROOT
ATOM      1  C   LIG    1        3.715   0.140   1.594  0.00  0.00    +0.125 A 
ATOM      2  C   LIG    1        4.297  -0.799   2.449  0.00  0.00    +0.069 A 
ATOM      3 CL   LIG    1        4.662  -2.425   1.996  0.00  0.00    -0.082 Cl
ATOM      4  C   LIG    1        4.604  -0.437   3.773  0.00  0.00    +0.047 A 
ATOM      5  C   LIG    1        4.339   0.850   4.254  0.00  0.00    +0.061 A 
ATOM      6  N   LIG    1        4.641   1.199   5.569  0.00  0.00    -0.303 N 
ATOM      7  H   LIG    1        5.086   0.504   6.159  0.00  0.00    +0.153 HD
ATOM      8  C   LIG    1        4.405   2.445   6.069  0.00  0.00    +0.209 C 
ATOM      9  N   LIG    1        3.886   3.478   5.515  0.00  0.00    -0.121 NA
ATOM     10  S   LIG    1        3.400   3.392   3.974  0.00  0.00    +0.102 S 
ATOM     11  O   LIG    1        4.229   4.274   3.177  0.00  0.00    -0.146 OA
ATOM     12  O   LIG    1        1.954   3.498   3.938  0.00  0.00    -0.146 OA
ATOM     13  C   LIG    1        3.756   1.762   3.382  0.00  0.00    +0.136 A 
ATOM     14  C   LIG    1        3.443   1.432   2.059  0.00  0.00    +0.061 A 
ENDROOT
BRANCH   1  15
ATOM     15  S   LIG    1        3.328  -0.245  -0.085  0.00  0.00    +0.057 S 
ATOM     16  O   LIG    1        2.624   0.874  -0.668  0.00  0.00    -0.153 OA
ATOM     17  O   LIG    1        4.484  -0.831  -0.719  0.00  0.00    -0.153 OA
BRANCH  15  18
ATOM     18  N   LIG    1        2.169  -1.450   0.059  0.00  0.00    -0.203 NA
ATOM     19  H   LIG    1        1.292  -1.138  -0.362  0.00  0.00    +0.144 HD
ATOM     20  H   LIG    1        2.524  -2.322  -0.335  0.00  0.00    +0.144 HD
ENDBRANCH  15  18
ENDBRANCH   1  15
TORSDOF 2
