REMARK  Name = *****
REMARK                            x       y       z     vdW  Elec       q    Type
REMARK                         _______ _______ _______ _____ _____    ______ ____
ROOT
ATOM      1  CA  CYS A  1        5.041   1.591  -1.227  0.00  0.00    +0.191 C 
ENDROOT
BRANCH   1   4
ATOM      2  C   UNK A  0        1.248   1.465  -1.700  0.00  0.00    +0.109 C 
ATOM      3  C   UNK A  0        2.550   1.738  -0.996  0.00  0.00    +0.211 C 
ATOM      4  N   CYS A  1        3.663   1.451  -1.746  0.00  0.00    -0.302 N 
ATOM      5  H   CYS A  1        3.553   1.177  -2.709  0.00  0.00    +0.149 HD
ATOM      6  O   UNK A  0        2.630   2.285   0.092  0.00  0.00    -0.276 OA
ENDBRANCH   1   4
BRANCH   1   7
ATOM      7  C   CYS A  1        5.618   2.974  -1.560  0.00  0.00    +0.326 C 
ATOM      8  O   CYS A  1        6.818   3.208  -1.659  0.00  0.00    -0.249 OA
BRANCH   7   9
ATOM      9  OXT CYS A  1        4.688   3.962  -1.645  0.00  0.00    -0.479 OA
ATOM     10  HXT CYS A  1        3.816   3.655  -1.336  0.00  0.00    +0.295 HD
ENDBRANCH   7   9
ENDBRANCH   1   7
BRANCH   1  11
ATOM     11  CB  CYS A  1        5.968   0.515  -1.811  0.00  0.00    +0.099 C 
BRANCH  11  12
ATOM     12  SG  CYS A  1        5.426  -1.190  -1.423  0.00  0.00    -0.176 S 
ATOM     13  HG  CYS A  1        4.873  -0.934  -0.226  0.00  0.00    +0.102 HD
ENDBRANCH  11  12
ENDBRANCH   1  11
TORSDOF 5
