REMARK  Name = *****
REMARK                            x       y       z     vdW  Elec       q    Type
REMARK                         _______ _______ _______ _____ _____    ______ ____
ROOT
ATOM      1  C   LIG    1        5.398  -2.372  -1.217  0.00  0.00    -0.016 C 
ATOM      2  C   LIG    1        6.700  -2.707  -1.353  0.00  0.00    -0.011 C 
ATOM      3  C   LIG    1        7.040  -3.877  -2.217  0.00  0.00    +0.024 A 
ATOM      4  C   LIG    1        8.054  -3.844  -3.195  0.00  0.00    +0.129 A 
ATOM      5  C   LIG    1        8.336  -4.997  -3.945  0.00  0.00    +0.046 A 
ATOM      6  C   LIG    1        7.633  -6.182  -3.740  0.00  0.00    +0.004 A 
ATOM      7  C   LIG    1        6.650  -6.236  -2.762  0.00  0.00    +0.001 A 
ATOM      8  O   LIG    1        8.887  -2.800  -3.514  0.00  0.00    -0.487 OA
ATOM      9  C   LIG    1        8.493  -1.472  -3.173  0.00  0.00    +0.265 C 
ATOM     10  C   LIG    1        8.636  -1.201  -1.699  0.00  0.00    -0.003 A 
ATOM     11  C   LIG    1        9.639  -0.353  -1.206  0.00  0.00    +0.007 A 
ATOM     12  C   LIG    1        9.792  -0.170   0.169  0.00  0.00    +0.000 A 
ATOM     13  C   LIG    1        8.958  -0.842   1.060  0.00  0.00    +0.001 A 
ATOM     14  C   LIG    1        7.948  -1.676   0.577  0.00  0.00    +0.009 A 
ATOM     15  C   LIG    1        6.363  -5.098  -2.003  0.00  0.00    +0.012 A 
ATOM     16  C   LIG    1        7.765  -1.837  -0.802  0.00  0.00    -0.011 A 
ENDROOT
BRANCH   1  17
ATOM     17  C   LIG    1        4.793  -1.172  -0.516  0.00  0.00    +0.043 C 
BRANCH  17  18
ATOM     18  C   LIG    1        4.011  -0.267  -1.495  0.00  0.00    +0.088 C 
BRANCH  18  20
ATOM     19  C   LIG    1        4.367   1.821  -0.281  0.00  0.00    +0.104 C 
ATOM     20  N   LIG    1        3.377   0.909  -0.859  0.00  0.00    -0.308 NA
ATOM     21  C   LIG    1        2.554   1.634  -1.835  0.00  0.00    +0.104 C 
ENDBRANCH  18  20
ENDBRANCH  17  18
ENDBRANCH   1  17
TORSDOF 3
