REMARK  Name = *****
REMARK                            x       y       z     vdW  Elec       q    Type
REMARK                         _______ _______ _______ _____ _____    ______ ____
ROOT
ATOM      1  C   LIG    1        8.297  -0.964  -0.733  0.00  0.00    +0.000 A 
ATOM      2  C   LIG    1        9.620  -0.951  -0.896  0.00  0.00    +0.000 A 
ATOM      3  C   LIG    1       10.356  -2.168  -0.987  0.00  0.00    +0.000 A 
ATOM      4  C   LIG    1       11.687  -2.240  -1.151  0.00  0.00    +0.000 C 
ATOM      5  O   LIG    1       12.304  -3.619  -1.228  0.00  0.00    +0.000 OA
ATOM      6  B   LIG    1       10.809  -4.666  -1.044  0.00  0.00    +0.000 B 
ATOM      7  C   LIG    1        9.614  -3.354  -0.896  0.00  0.00    +0.000 A 
ATOM      8  C   LIG    1        8.335  -3.377  -0.738  0.00  0.00    +0.000 A 
ATOM      9  C   LIG    1        7.606  -2.183  -0.641  0.00  0.00    +0.000 A 
ENDROOT
BRANCH   6  10
ATOM     10  O   LIG    1       10.649  -6.115  -1.025  0.00  0.00    +0.000 OA
ATOM     11  H   LIG    1       11.516  -6.537  -1.132  0.00  0.00    +0.000 HD
ENDBRANCH   6  10
BRANCH   1  12
ATOM     12  O   LIG    1        7.615   0.198  -0.655  0.00  0.00    +0.000 OA
BRANCH  12  16
ATOM     13  C   LIG    1        9.293   3.462  -2.512  0.00  0.00    +0.000 A 
ATOM     14  C   LIG    1        9.531   2.244  -3.001  0.00  0.00    +0.000 A 
ATOM     15  C   LIG    1        8.796   1.146  -2.493  0.00  0.00    +0.000 A 
ATOM     16  C   LIG    1        8.068   1.290  -1.305  0.00  0.00    +0.000 A 
ATOM     17  C   LIG    1        7.828   2.476  -0.827  0.00  0.00    +0.000 A 
ATOM     18  C   LIG    1        8.307   3.614  -1.497  0.00  0.00    +0.000 A 
BRANCH  13  20
ATOM     19  N   LIG    1       10.585   5.490  -3.382  0.00  0.00    +0.000 NA
ATOM     20  C   LIG    1       10.004   4.577  -2.990  0.00  0.00    +0.000 C 
ENDBRANCH  13  20
ENDBRANCH  12  16
ENDBRANCH   1  12
TORSDOF 4
