REMARK  Name = *****
REMARK                            x       y       z     vdW  Elec       q    Type
REMARK                         _______ _______ _______ _____ _____    ______ ____
ROOT
ATOM      1  C   LIG    1        4.017  -3.029   1.367  0.00  0.00    +0.011 C 
ATOM      2  C   LIG    1        3.958  -4.569   1.113  0.00  0.00    +0.008 C 
ATOM      3  C   LIG    1        4.017  -4.899  -0.394  0.00  0.00    +0.005 C 
ATOM      4  C   LIG    1        5.171  -4.224  -1.130  0.00  0.00    +0.000 C 
ATOM      5  C   LIG    1        5.225  -2.726  -0.863  0.00  0.00    +0.000 C 
ATOM      6  C   LIG    1        5.221  -2.413   0.630  0.00  0.00    +0.005 C 
ENDROOT
BRANCH   1   7
ATOM      7  C   LIG    1        2.658  -2.355   1.007  0.00  0.00    +0.120 C 
BRANCH   7  10
ATOM      8  O   LIG    1        3.018  -0.113  -0.799  0.00  0.00    -0.275 OA
ATOM      9  C   LIG    1        2.813   0.041   0.396  0.00  0.00    +0.226 C 
ATOM     10  N   LIG    1        2.618  -0.935   1.327  0.00  0.00    -0.241 N 
ATOM     11  C   LIG    1        2.230  -0.432   2.543  0.00  0.00    +0.226 C 
ATOM     12  O   LIG    1        1.810  -1.075   3.506  0.00  0.00    -0.275 OA
ATOM     13  C   LIG    1        2.365   1.073   2.516  0.00  0.00    +0.091 C 
ATOM     14  C   LIG    1        1.113   1.944   2.772  0.00  0.00    +0.002 C 
ATOM     15  C   LIG    1        1.376   3.145   1.849  0.00  0.00    +0.008 C 
ATOM     16  C   LIG    1        1.529   2.267   0.603  0.00  0.00    +0.002 C 
ATOM     17  C   LIG    1        0.190   1.496   0.604  0.00  0.00    +0.004 C 
ATOM     18  C   LIG    1       -0.137   1.360   2.098  0.00  0.00    +0.004 C 
ATOM     19  C   LIG    1        2.700   1.387   1.055  0.00  0.00    +0.091 C 
ENDBRANCH   7  10
ENDBRANCH   1   7
BRANCH   2  20
ATOM     20  C   LIG    1        5.058  -5.356   1.888  0.00  0.00    +0.088 C 
BRANCH  20  21
ATOM     21  N   LIG    1        5.098  -5.088   3.333  0.00  0.00    -0.299 NA
ATOM     22  C   LIG    1        3.826  -5.330   4.050  0.00  0.00    +0.103 C 
ATOM     23  C   LIG    1        3.505  -6.808   4.358  0.00  0.00    +0.122 C 
ATOM     24  N   LIG    1        4.613  -7.391   5.134  0.00  0.00    -0.312 N 
ATOM     25  C   LIG    1        5.885  -7.312   4.382  0.00  0.00    +0.122 C 
ATOM     26  C   LIG    1        6.192  -5.834   4.011  0.00  0.00    +0.103 C 
BRANCH  24  27
ATOM     27  C   LIG    1        4.355  -8.545   5.831  0.00  0.00    +0.138 A 
ATOM     28  C   LIG    1        3.530  -8.541   7.038  0.00  0.00    +0.031 A 
ATOM     29  C   LIG    1        3.485  -9.823   7.591  0.00  0.00    +0.041 A 
ATOM     30  C   LIG    1        2.797 -10.117   8.782  0.00  0.00    +0.017 A 
ATOM     31  C   LIG    1        2.142  -9.079   9.445  0.00  0.00    +0.001 A 
ATOM     32  C   LIG    1        2.158  -7.790   8.926  0.00  0.00    +0.001 A 
ATOM     33  S   LIG    1        4.396 -10.868   6.584  0.00  0.00    +0.014 S 
ATOM     34  C   LIG    1        2.843  -7.510   7.734  0.00  0.00    +0.012 A 
ATOM     35  N   LIG    1        4.884  -9.724   5.507  0.00  0.00    -0.194 NA
ENDBRANCH  24  27
ENDBRANCH  20  21
ENDBRANCH   2  20
TORSDOF 5
