REMARK  Name = *****
REMARK                            x       y       z     vdW  Elec       q    Type
REMARK                         _______ _______ _______ _____ _____    ______ ____
ROOT
ATOM      1  C   LIG    1        5.920  -2.618   1.314  0.00  0.00    +0.025 A 
ATOM      2  C   LIG    1        5.347  -3.387   0.334  0.00  0.00    +0.029 A 
ATOM      3  C   LIG    1        6.171  -4.127  -0.527  0.00  0.00    +0.057 A 
ATOM      4  I   LIG    1        4.796  -5.115  -2.039  0.00  0.00    -0.040 I 
ATOM      5  C   LIG    1        7.584  -4.265  -0.281  0.00  0.00    +0.147 A 
ATOM      6  C   LIG    1        8.018  -3.789   0.960  0.00  0.00    +0.057 A 
ATOM      7  I   LIG    1        8.469  -5.390   2.625  0.00  0.00    -0.040 I 
ATOM      8  C   LIG    1        7.253  -2.849   1.668  0.00  0.00    +0.029 A 
ENDROOT
BRANCH   1   9
ATOM      9  C   LIG    1        5.210  -1.638   2.192  0.00  0.00    +0.197 C 
ATOM     10  O   LIG    1        5.872  -0.841   2.771  0.00  0.00    -0.286 OA
BRANCH   9  12
ATOM     11  C   LIG    1        3.115  -1.902   3.564  0.00  0.00    +0.117 A 
ATOM     12  C   LIG    1        3.767  -1.700   2.349  0.00  0.00    +0.071 A 
ATOM     13  C   LIG    1        2.723  -1.539   1.358  0.00  0.00    +0.031 A 
ATOM     14  C   LIG    1        1.538  -1.532   2.075  0.00  0.00    +0.136 A 
ATOM     15  C   LIG    1        0.270  -1.369   1.523  0.00  0.00    +0.047 A 
ATOM     16  C   LIG    1        0.194  -1.320   0.132  0.00  0.00    +0.004 A 
ATOM     17  C   LIG    1        1.352  -1.353  -0.643  0.00  0.00    +0.001 A 
ATOM     18  C   LIG    1        2.623  -1.383  -0.046  0.00  0.00    +0.012 A 
ATOM     19  O   LIG    1        1.772  -1.722   3.389  0.00  0.00    -0.459 OA
BRANCH  11  20
ATOM     20  C   LIG    1        3.441  -2.257   4.983  0.00  0.00    +0.075 C 
BRANCH  20  21
ATOM     21  C   LIG    1        4.604  -3.218   5.222  0.00  0.00    +0.007 C 
BRANCH  21  23
ATOM     22  C   LIG    1        3.211  -5.360   5.003  0.00  0.00    +0.004 C 
ATOM     23  C   LIG    1        4.461  -4.599   4.578  0.00  0.00    -0.003 C 
ENDBRANCH  21  23
ENDBRANCH  20  21
ENDBRANCH  11  20
ENDBRANCH   9  12
ENDBRANCH   1   9
BRANCH   5  24
ATOM     24  O   LIG    1        8.477  -4.730  -1.239  0.00  0.00    -0.489 OA
BRANCH  24  25
ATOM     25  C   LIG    1        9.727  -5.381  -0.861  0.00  0.00    +0.244 C 
BRANCH  25  26
ATOM     26  C   LIG    1        9.953  -6.835  -1.469  0.00  0.00    +0.125 C 
BRANCH  26  27
ATOM     27  N   LIG    1        9.191  -8.039  -1.033  0.00  0.00    -0.300 NA
BRANCH  27  28
ATOM     28  C   LIG    1        9.711  -9.309  -1.589  0.00  0.00    +0.081 C 
ATOM     29  C   LIG    1        9.677  -9.497  -3.112  0.00  0.00    +0.020 C 
ENDBRANCH  27  28
BRANCH  27  30
ATOM     30  C   LIG    1        7.782  -8.034  -1.392  0.00  0.00    +0.081 C 
ATOM     31  C   LIG    1        7.035  -7.009  -0.662  0.00  0.00    +0.020 C 
ENDBRANCH  27  30
ENDBRANCH  26  27
ENDBRANCH  25  26
ENDBRANCH  24  25
ENDBRANCH   5  24
TORSDOF 11
