REMARK  Name = *****
REMARK                            x       y       z     vdW  Elec       q    Type
REMARK                         _______ _______ _______ _____ _____    ______ ____
ROOT
ATOM      1  C   LIG    1        4.923   2.155  -1.191  0.00  0.00    +0.122 C 
ATOM      2  C   LIG    1        6.173   2.614  -1.385  0.00  0.00    +0.079 C 
ATOM      3  N   LIG    1        7.404   2.043  -1.151  0.00  0.00    -0.267 N 
ATOM      4  C   LIG    1        7.629   0.627  -0.935  0.00  0.00    +0.139 C 
ATOM      5  C   LIG    1        8.513   2.902  -1.220  0.00  0.00    +0.248 C 
ATOM      6  O   LIG    1        9.682   2.536  -1.099  0.00  0.00    -0.273 OA
ATOM      7  C   LIG    1        8.097   4.379  -1.462  0.00  0.00    +0.208 C 
ATOM      8  S   LIG    1        6.374   4.194  -2.085  0.00  0.00    -0.081 S 
ENDROOT
BRANCH   7   9
ATOM      9  N   LIG    1        8.148   5.195  -0.221  0.00  0.00    -0.283 NA
ATOM     10  C   LIG    1        9.482   5.253   0.403  0.00  0.00    +0.086 C 
ATOM     11  C   LIG    1       10.496   6.121  -0.347  0.00  0.00    +0.015 C 
ATOM     12  C   LIG    1        9.971   7.537  -0.551  0.00  0.00    +0.002 C 
ATOM     13  C   LIG    1        8.568   7.522  -1.145  0.00  0.00    +0.015 C 
ATOM     14  C   LIG    1        7.638   6.570  -0.389  0.00  0.00    +0.086 C 
ENDBRANCH   7   9
BRANCH   1  15
ATOM     15  C   LIG    1        4.450   0.925  -0.542  0.00  0.00    +0.334 C 
ATOM     16  O   LIG    1        5.072   0.239   0.255  0.00  0.00    -0.245 OA
BRANCH  15  17
ATOM     17  O   LIG    1        3.171   0.717  -0.952  0.00  0.00    -0.462 OA
BRANCH  17  19
ATOM     18  C   LIG    1        2.777  -1.664  -1.166  0.00  0.00    +0.048 C 
ATOM     19  C   LIG    1        2.484  -0.406  -0.371  0.00  0.00    +0.229 C 
ENDBRANCH  17  19
ENDBRANCH  15  17
ENDBRANCH   1  15
TORSDOF 4
