REMARK  Name = *****
REMARK                            x       y       z     vdW  Elec       q    Type
REMARK                         _______ _______ _______ _____ _____    ______ ____
ROOT
ATOM      1  C   LIG    1       -0.361   1.426   0.988  0.00  0.00    -0.021 C 
ATOM      2  C   LIG    1       -0.794   2.753   0.647  0.00  0.00    +0.003 C 
ATOM      3  C   LIG    1       -2.185   2.782   0.755  0.00  0.00    +0.047 C 
ATOM      4  C   LIG    1       -2.946   3.922   0.475  0.00  0.00    +0.026 C 
ATOM      5  C   LIG    1       -2.267   5.087   0.102  0.00  0.00    +0.006 C 
ATOM      6  C   LIG    1       -0.872   5.117   0.007  0.00  0.00    -0.045 C 
ATOM      7  N   LIG    1       -2.585   1.533   1.165  0.00  0.00    -0.360 NA
ATOM      8  H   LIG    1       -3.545   1.266   1.330  0.00  0.00    +0.165 HD
ATOM      9  C   LIG    1       -0.136   3.940   0.254  0.00  0.00    +0.014 C 
ATOM     10  C   LIG    1       -1.498   0.718   1.332  0.00  0.00    +0.087 C 
ENDROOT
BRANCH   1  11
ATOM     11  C   LIG    1        1.051   0.897   0.997  0.00  0.00    +0.056 C 
BRANCH  11  14
ATOM     12  C   LIG    1        3.409  -0.921   1.212  0.00  0.00    +0.105 C 
ATOM     13  N   LIG    1        2.634  -0.886  -0.011  0.00  0.00    -0.302 NA
ATOM     14  C   LIG    1        1.270  -0.322   0.062  0.00  0.00    +0.061 C 
ATOM     15  C   LIG    1        0.959   0.017  -1.411  0.00  0.00    +0.020 C 
ATOM     16  C   LIG    1        2.239  -0.280  -2.181  0.00  0.00    +0.017 C 
ATOM     17  C   LIG    1        3.315  -0.224  -1.117  0.00  0.00    +0.084 C 
ENDBRANCH  11  14
ENDBRANCH   1  11
BRANCH   6  18
ATOM     18  C   LIG    1       -0.162   6.404  -0.357  0.00  0.00    +0.058 C 
BRANCH  18  19
ATOM     19  C   LIG    1        0.782   6.863   0.749  0.00  0.00    +0.176 C 
BRANCH  19  20
ATOM     20  S   LIG    1        1.613   8.370   0.303  0.00  0.00    -0.003 S 
ATOM     21  O   LIG    1        0.653   9.459   0.375  0.00  0.00    -0.169 OA
ATOM     22  O   LIG    1        2.378   8.134  -0.904  0.00  0.00    -0.169 OA
BRANCH  20  23
ATOM     23  C   LIG    1        2.782   8.602   1.627  0.00  0.00    +0.088 C 
ATOM     24  C   LIG    1        2.434   9.383   2.733  0.00  0.00    +0.027 C 
ATOM     25  C   LIG    1        3.375   9.602   3.740  0.00  0.00    +0.002 C 
ATOM     26  C   LIG    1        4.654   9.052   3.636  0.00  0.00    +0.000 C 
ATOM     27  C   LIG    1        4.997   8.276   2.527  0.00  0.00    +0.002 C 
ATOM     28  C   LIG    1        4.062   8.050   1.516  0.00  0.00    +0.027 C 
ENDBRANCH  20  23
ENDBRANCH  19  20
ENDBRANCH  18  19
ENDBRANCH   6  18
TORSDOF 6
