REMARK  Name = *****
REMARK                            x       y       z     vdW  Elec       q    Type
REMARK                         _______ _______ _______ _____ _____    ______ ____
ROOT
ATOM      1  C   LIG    1        4.830  -1.012   1.648  0.00  0.00    +0.169 C 
ATOM      2  C   LIG    1        4.029  -2.113   2.409  0.00  0.00    +0.084 C 
ATOM      3  C   LIG    1        3.512  -3.198   1.460  0.00  0.00    +0.042 C 
ATOM      4  C   LIG    1        4.709  -3.959   0.895  0.00  0.00    +0.084 C 
ATOM      5  C   LIG    1        5.801  -3.045   0.277  0.00  0.00    +0.169 C 
ATOM      6  C   LIG    1        5.401  -1.536   0.292  0.00  0.00    +0.175 C 
ENDROOT
BRANCH   2   7
ATOM      7  N   LIG    1        2.869  -1.612   3.167  0.00  0.00    -0.325 NA
ATOM      8  H   LIG    1        3.139  -0.816   3.751  0.00  0.00    +0.118 HD
ATOM      9  H   LIG    1        2.217  -1.168   2.515  0.00  0.00    +0.118 HD
ENDBRANCH   2   7
BRANCH   4  10
ATOM     10  N   LIG    1        4.257  -4.975  -0.067  0.00  0.00    -0.325 NA
ATOM     11  H   LIG    1        5.070  -5.466  -0.444  0.00  0.00    +0.118 HD
ATOM     12  H   LIG    1        3.724  -5.688   0.434  0.00  0.00    +0.118 HD
ENDBRANCH   4  10
BRANCH   6  13
ATOM     13  O   LIG    1        4.408  -1.268  -0.721  0.00  0.00    -0.387 OA
ATOM     14  H   LIG    1        4.569  -1.853  -1.482  0.00  0.00    +0.210 HD
ENDBRANCH   6  13
BRANCH   5  15
ATOM     15  O   LIG    1        7.076  -3.213   0.925  0.00  0.00    -0.341 OA
BRANCH  15  16
ATOM     16  C   LIG    1        7.646  -4.547   0.874  0.00  0.00    +0.281 C 
ATOM     17  C   LIG    1        9.000  -4.421   1.611  0.00  0.00    +0.189 C 
ATOM     18  C   LIG    1        9.856  -5.703   1.546  0.00  0.00    +0.116 C 
ATOM     19  C   LIG    1        9.959  -6.150   0.072  0.00  0.00    +0.165 C 
ATOM     20  C   LIG    1        8.591  -6.190  -0.641  0.00  0.00    +0.177 C 
ATOM     21  O   LIG    1        7.832  -4.972  -0.476  0.00  0.00    -0.341 OA
BRANCH  18  22
ATOM     22  N   LIG    1        9.379  -6.793   2.428  0.00  0.00    -0.323 NA
ATOM     23  H   LIG    1       10.111  -7.506   2.462  0.00  0.00    +0.119 HD
ATOM     24  H   LIG    1        9.338  -6.437   3.385  0.00  0.00    +0.119 HD
ENDBRANCH  18  22
BRANCH  19  25
ATOM     25  O   LIG    1       10.837  -5.256  -0.633  0.00  0.00    -0.388 OA
ATOM     26  H   LIG    1       10.628  -4.347  -0.325  0.00  0.00    +0.210 HD
ENDBRANCH  19  25
BRANCH  17  27
ATOM     27  O   LIG    1        9.765  -3.359   0.988  0.00  0.00    -0.385 OA
ATOM     28  H   LIG    1        9.090  -2.698   0.721  0.00  0.00    +0.210 HD
ENDBRANCH  17  27
BRANCH  20  29
ATOM     29  C   LIG    1        7.773  -7.463  -0.328  0.00  0.00    +0.190 C 
BRANCH  29  30
ATOM     30  O   LIG    1        7.225  -7.515   0.979  0.00  0.00    -0.392 OA
ATOM     31  H   LIG    1        7.978  -7.467   1.622  0.00  0.00    +0.209 HD
ENDBRANCH  29  30
ENDBRANCH  20  29
ENDBRANCH  15  16
ENDBRANCH   5  15
BRANCH   1  32
ATOM     32  O   LIG    1        5.923  -0.463   2.413  0.00  0.00    -0.341 OA
BRANCH  32  37
ATOM     33  C   LIG    1        7.582   1.492   3.650  0.00  0.00    +0.166 C 
ATOM     34  C   LIG    1        6.729   2.763   3.464  0.00  0.00    +0.175 C 
ATOM     35  C   LIG    1        5.349   2.437   2.893  0.00  0.00    +0.179 C 
ATOM     36  C   LIG    1        4.703   1.330   3.715  0.00  0.00    +0.201 C 
ATOM     37  C   LIG    1        5.626   0.089   3.699  0.00  0.00    +0.282 C 
ATOM     38  O   LIG    1        6.859   0.457   4.345  0.00  0.00    -0.342 OA
BRANCH  36  39
ATOM     39  O   LIG    1        3.374   1.094   3.248  0.00  0.00    -0.384 OA
ATOM     40  H   LIG    1        3.006   1.986   3.072  0.00  0.00    +0.210 HD
ENDBRANCH  36  39
BRANCH  35  41
ATOM     41  O   LIG    1        4.504   3.599   2.944  0.00  0.00    -0.386 OA
ATOM     42  H   LIG    1        5.056   4.343   2.631  0.00  0.00    +0.210 HD
ENDBRANCH  35  41
BRANCH  34  43
ATOM     43  O   LIG    1        7.359   3.722   2.605  0.00  0.00    -0.387 OA
ATOM     44  H   LIG    1        7.638   3.263   1.791  0.00  0.00    +0.210 HD
ENDBRANCH  34  43
BRANCH  33  45
ATOM     45  C   LIG    1        8.837   1.823   4.486  0.00  0.00    +0.112 C 
BRANCH  45  46
ATOM     46  N   LIG    1        9.736   0.668   4.586  0.00  0.00    -0.328 NA
ATOM     47  H   LIG    1        9.181  -0.136   4.887  0.00  0.00    +0.118 HD
ATOM     48  H   LIG    1       10.420   0.837   5.322  0.00  0.00    +0.118 HD
ENDBRANCH  45  46
ENDBRANCH  33  45
ENDBRANCH  32  37
ENDBRANCH   1  32
TORSDOF 17
