REMARK  Name = *****
REMARK                            x       y       z     vdW  Elec       q    Type
REMARK                         _______ _______ _______ _____ _____    ______ ____
ROOT
ATOM      1  C   LIG    1        3.178   1.514  -6.891  0.00  0.00    +0.019 A 
ATOM      2  C   LIG    1        4.135   1.073  -5.960  0.00  0.00    +0.035 A 
ATOM      3  C   LIG    1        4.832   1.940  -5.088  0.00  0.00    +0.049 A 
ATOM      4  N   LIG    1        5.789   1.471  -4.132  0.00  0.00    -0.298 N 
ATOM      5  C   LIG    1        6.696   2.313  -3.413  0.00  0.00    +0.048 A 
ATOM      6  C   LIG    1        6.606   3.722  -3.473  0.00  0.00    +0.034 A 
ATOM      7  S   LIG    1        5.303   4.596  -4.299  0.00  0.00    -0.086 S 
ATOM      8  C   LIG    1        7.547   4.551  -2.827  0.00  0.00    +0.017 A 
ATOM      9  C   LIG    1        8.589   4.009  -2.090  0.00  0.00    +0.001 A 
ATOM     10  C   LIG    1        8.687   2.633  -1.984  0.00  0.00    +0.002 A 
ATOM     11  C   LIG    1        7.758   1.804  -2.632  0.00  0.00    +0.024 A 
ATOM     12  C   LIG    1        4.540   3.308  -5.245  0.00  0.00    +0.034 A 
ATOM     13  C   LIG    1        3.583   3.759  -6.181  0.00  0.00    +0.017 A 
ATOM     14  C   LIG    1        2.894   2.870  -6.994  0.00  0.00    +0.012 A 
ENDROOT
BRANCH   1  16
ATOM     15  C   LIG    1        1.109   0.822  -8.274  0.00  0.00    +0.091 C 
ATOM     16  C   LIG    1        2.514   0.524  -7.782  0.00  0.00    +0.160 C 
ATOM     17  O   LIG    1        3.094  -0.505  -8.076  0.00  0.00    -0.292 OA
ENDBRANCH   1  16
BRANCH   4  18
ATOM     18  C   LIG    1        5.805   0.006  -3.815  0.00  0.00    +0.112 C 
BRANCH  18  19
ATOM     19  C   LIG    1        6.801  -0.770  -4.697  0.00  0.00    +0.035 C 
BRANCH  19  20
ATOM     20  C   LIG    1        6.829  -2.299  -4.450  0.00  0.00    +0.086 C 
BRANCH  20  21
ATOM     21  N   LIG    1        5.561  -3.030  -4.603  0.00  0.00    -0.300 NA
ATOM     22  C   LIG    1        4.882  -2.851  -5.899  0.00  0.00    +0.100 C 
ATOM     23  C   LIG    1        5.418  -3.675  -7.085  0.00  0.00    +0.100 C 
ATOM     24  N   LIG    1        5.517  -5.124  -6.845  0.00  0.00    -0.298 NA
ATOM     25  C   LIG    1        6.213  -5.340  -5.559  0.00  0.00    +0.100 C 
ATOM     26  C   LIG    1        5.717  -4.485  -4.356  0.00  0.00    +0.100 C 
BRANCH  24  27
ATOM     27  C   LIG    1        4.226  -5.834  -6.916  0.00  0.00    +0.112 C 
BRANCH  27  28
ATOM     28  C   LIG    1        3.471  -5.631  -8.245  0.00  0.00    +0.171 C 
BRANCH  28  29
ATOM     29  O   LIG    1        2.337  -6.491  -8.322  0.00  0.00    -0.394 OA
ATOM     30  H   LIG    1        2.562  -7.204  -8.943  0.00  0.00    +0.209 HD
ENDBRANCH  28  29
ENDBRANCH  27  28
ENDBRANCH  24  27
ENDBRANCH  20  21
ENDBRANCH  19  20
ENDBRANCH  18  19
ENDBRANCH   4  18
TORSDOF 8
