REMARK  Name = *****
REMARK                            x       y       z     vdW  Elec       q    Type
REMARK                         _______ _______ _______ _____ _____    ______ ____
ROOT
ATOM      1  C   LIG    1        2.496   1.955  -0.077  0.00  0.00    +0.242 C 
ATOM      2  C   LIG    1        2.007   3.391  -0.531  0.00  0.00    +0.195 C 
ATOM      3  S   LIG    1        2.935   4.854   0.039  0.00  0.00    -0.125 S 
ATOM      4  C   LIG    1        3.526   5.343  -1.656  0.00  0.00    +0.042 C 
ATOM      5  C   LIG    1        3.187   4.186  -2.630  0.00  0.00    +0.201 C 
ATOM      6  C   LIG    1        5.049   5.516  -1.537  0.00  0.00    +0.025 C 
ATOM      7  C   LIG    1        2.898   6.700  -1.993  0.00  0.00    +0.025 C 
ATOM      8  N   LIG    1        2.550   3.102  -1.880  0.00  0.00    -0.266 N 
ATOM      9  C   LIG    1        3.276   2.031  -1.453  0.00  0.00    +0.271 C 
ATOM     10  O   LIG    1        4.219   1.472  -1.977  0.00  0.00    -0.270 OA
ENDROOT
BRANCH   1  11
ATOM     11  N   LIG    1        3.438   1.901   1.080  0.00  0.00    -0.277 N 
ATOM     12  H   LIG    1        4.387   1.585   0.907  0.00  0.00    +0.152 HD
ATOM     13  C   LIG    1        3.011   2.030   2.381  0.00  0.00    +0.234 C 
ATOM     14  O   LIG    1        1.845   2.300   2.676  0.00  0.00    -0.275 OA
BRANCH  13  15
ATOM     15  C   LIG    1        4.078   1.807   3.445  0.00  0.00    +0.213 C 
BRANCH  15  16
ATOM     16  C   LIG    1        4.288   0.326   3.736  0.00  0.00    -0.018 A 
ATOM     17  C   LIG    1        5.505  -0.215   4.123  0.00  0.00    +0.050 A 
ATOM     18  S   LIG    1        5.470  -1.917   4.287  0.00  0.00    -0.105 S 
ATOM     19  C   LIG    1        3.813  -1.972   3.887  0.00  0.00    +0.045 A 
ATOM     20  C   LIG    1        3.301  -0.719   3.628  0.00  0.00    +0.012 A 
ENDBRANCH  15  16
BRANCH  15  21
ATOM     21  C   LIG    1        3.857   2.618   4.713  0.00  0.00    +0.321 C 
ATOM     22  O   LIG    1        4.787   2.978   5.429  0.00  0.00    -0.250 OA
BRANCH  21  23
ATOM     23  O   LIG    1        2.579   2.922   5.034  0.00  0.00    -0.480 OA
ATOM     24  H   LIG    1        1.911   2.648   4.360  0.00  0.00    +0.295 HD
ENDBRANCH  21  23
ENDBRANCH  15  21
ENDBRANCH  13  15
ENDBRANCH   1  11
BRANCH   1  26
ATOM     25  C   LIG    1        0.513   0.797  -1.027  0.00  0.00    +0.197 C 
ATOM     26  O   LIG    1        1.521   0.870  -0.027  0.00  0.00    -0.349 OA
ENDBRANCH   1  26
BRANCH   5  27
ATOM     27  C   LIG    1        2.305   4.513  -3.848  0.00  0.00    +0.327 C 
ATOM     28  O   LIG    1        2.381   5.525  -4.526  0.00  0.00    -0.249 OA
BRANCH  27  29
ATOM     29  O   LIG    1        1.488   3.489  -4.208  0.00  0.00    -0.479 OA
ATOM     30  H   LIG    1        1.643   2.704  -3.645  0.00  0.00    +0.295 HD
ENDBRANCH  27  29
ENDBRANCH   5  27
TORSDOF 8
