REMARK  Name = *****
REMARK                            x       y       z     vdW  Elec       q    Type
REMARK                         _______ _______ _______ _____ _____    ______ ____
ROOT
ATOM      1  C   LIG    1       18.318 -17.539   6.108  0.00  0.00    -0.046 A 
ATOM      2  C   LIG    1       17.439 -16.457   5.966  0.00  0.00    +0.005 A 
ATOM      3  C   LIG    1       16.892 -15.838   7.092  0.00  0.00    +0.029 A 
ATOM      4  C   LIG    1       17.233 -16.301   8.366  0.00  0.00    +0.113 A 
ATOM      5  C   LIG    1       18.127 -17.360   8.526  0.00  0.00    +0.029 A 
ATOM      6  C   LIG    1       18.669 -17.973   7.397  0.00  0.00    +0.005 A 
ENDROOT
BRANCH   4   7
ATOM      7  S   LIG    1       16.483 -15.578   9.809  0.00  0.00    +0.103 S 
ATOM      8  O   LIG    1       15.570 -14.546   9.355  0.00  0.00    -0.146 OA
ATOM      9  O   LIG    1       17.569 -15.230  10.712  0.00  0.00    -0.146 OA
BRANCH   7  10
ATOM     10  N   LIG    1       15.643 -16.809  10.422  0.00  0.00    -0.076 NA
ATOM     11  C   LIG    1       14.394 -16.734  10.712  0.00  0.00    +0.299 C 
BRANCH  11  12
ATOM     12  N   LIG    1       13.645 -17.727  11.248  0.00  0.00    -0.295 N 
ATOM     13  H   LIG    1       12.700 -17.462  11.499  0.00  0.00    +0.151 HD
BRANCH  12  14
ATOM     14  C   LIG    1       13.941 -19.143  11.144  0.00  0.00    +0.075 C 
ATOM     15  C   LIG    1       13.320 -19.727   9.867  0.00  0.00    +0.022 C 
ATOM     16  C   LIG    1       13.532 -21.240   9.786  0.00  0.00    +0.005 C 
ATOM     17  C   LIG    1       12.974 -21.950  11.026  0.00  0.00    -0.014 C 
ATOM     18  C   LIG    1       13.206 -23.458  10.943  0.00  0.00    +0.007 C 
ATOM     19  C   LIG    1       13.597 -21.370  12.302  0.00  0.00    +0.005 C 
ATOM     20  C   LIG    1       13.397 -19.858  12.386  0.00  0.00    +0.022 C 
ENDBRANCH  12  14
ENDBRANCH  11  12
BRANCH  11  21
ATOM     21  O   LIG    1       13.617 -15.653  10.539  0.00  0.00    -0.481 OA
ATOM     22  H   LIG    1       14.108 -14.903  10.145  0.00  0.00    +0.295 HD
ENDBRANCH  11  21
ENDBRANCH   7  10
ENDBRANCH   4   7
BRANCH   1  23
ATOM     23  C   LIG    1       18.866 -18.260   4.896  0.00  0.00    +0.054 C 
BRANCH  23  24
ATOM     24  C   LIG    1       20.208 -17.721   4.388  0.00  0.00    +0.110 C 
BRANCH  24  30
ATOM     25  C   LIG    1       24.213 -17.890   8.429  0.00  0.00    +0.015 C 
ATOM     26  C   LIG    1       23.274 -17.561   7.331  0.00  0.00    +0.250 C 
ATOM     27  O   LIG    1       23.005 -16.434   6.968  0.00  0.00    -0.270 OA
ATOM     28  N   LIG    1       22.781 -18.763   6.826  0.00  0.00    -0.218 N 
ATOM     29  C   LIG    1       21.793 -18.940   5.875  0.00  0.00    +0.309 C 
ATOM     30  N   LIG    1       21.288 -17.782   5.350  0.00  0.00    -0.299 N 
ATOM     31  H   LIG    1       21.666 -16.907   5.708  0.00  0.00    +0.150 HD
ATOM     32  O   LIG    1       21.376 -20.053   5.559  0.00  0.00    -0.252 OA
ATOM     33  C   LIG    1       23.361 -19.885   7.500  0.00  0.00    +0.149 C 
ATOM     34  C   LIG    1       24.234 -19.229   8.521  0.00  0.00    -0.047 C 
ATOM     35  C   LIG    1       24.976 -20.084   9.488  0.00  0.00    +0.041 C 
BRANCH  25  37
ATOM     36  C   LIG    1       26.182 -16.354   8.690  0.00  0.00    +0.009 C 
ATOM     37  C   LIG    1       24.841 -16.813   9.244  0.00  0.00    +0.037 C 
ENDBRANCH  25  37
ENDBRANCH  24  30
ENDBRANCH  23  24
ENDBRANCH   1  23
TORSDOF 9
