REMARK  Name = *****
REMARK                            x       y       z     vdW  Elec       q    Type
REMARK                         _______ _______ _______ _____ _____    ______ ____
ROOT
ATOM      1  C   LIG    1       -3.454   1.344  -0.588  0.00  0.00    +0.042 C 
ATOM      2  C   LIG    1       -2.333   0.571   0.118  0.00  0.00    +0.069 C 
ATOM      3  C   LIG    1       -2.809  -0.582   1.085  0.00  0.00    -0.000 C 
ATOM      4  C   LIG    1       -1.783  -0.763   2.243  0.00  0.00    +0.014 C 
ATOM      5  C   LIG    1       -2.710  -1.861   0.185  0.00  0.00    +0.001 C 
ATOM      6  C   LIG    1       -3.924  -2.785   0.077  0.00  0.00    -0.004 C 
ATOM      7  C   LIG    1       -4.812  -2.765   1.356  0.00  0.00    -0.001 C 
ATOM      8  C   LIG    1       -5.276  -1.286   1.396  0.00  0.00    +0.005 C 
ATOM      9  C   LIG    1       -4.494  -3.752   2.651  0.00  0.00    -0.022 C 
ATOM     10  C   LIG    1       -6.005  -3.531   3.204  0.00  0.00    +0.012 C 
ATOM     11  C   LIG    1       -3.790  -4.987   1.903  0.00  0.00    +0.001 C 
ATOM     12  C   LIG    1       -4.819  -6.062   1.737  0.00  0.00    +0.059 C 
ATOM     13  C   LIG    1       -4.790  -6.654   3.086  0.00  0.00    +0.040 A 
ATOM     14  C   LIG    1       -4.527  -5.909   4.236  0.00  0.00    -0.006 A 
ATOM     15  C   LIG    1       -4.395  -6.939   5.190  0.00  0.00    +0.138 A 
ATOM     16  N   LIG    1       -4.401  -8.164   4.671  0.00  0.00    -0.182 NA
ATOM     17  N   LIG    1       -4.530  -7.962   3.343  0.00  0.00    -0.281 N 
ATOM     18  H   LIG    1       -4.285  -8.681   2.682  0.00  0.00    +0.189 HD
ATOM     19  C   LIG    1       -2.841  -4.856   0.724  0.00  0.00    +0.005 C 
ATOM     20  C   LIG    1       -4.134  -4.320   4.186  0.00  0.00    +0.045 C 
ATOM     21  C   LIG    1       -3.521  -4.167  -0.402  0.00  0.00    +0.004 C 
ATOM     22  C   LIG    1       -2.266  -1.404  -1.212  0.00  0.00    +0.007 C 
ATOM     23  C   LIG    1       -4.167  -0.346   1.800  0.00  0.00    +0.010 C 
ATOM     24  C   LIG    1       -1.470  -0.157  -0.927  0.00  0.00    +0.035 C 
ENDROOT
BRANCH   2  25
ATOM     25  O   LIG    1       -1.527   1.528   0.803  0.00  0.00    -0.388 OA
ATOM     26  H   LIG    1       -0.926   1.932   0.153  0.00  0.00    +0.210 HD
ENDBRANCH   2  25
TORSDOF 1
