REMARK  Name = *****
REMARK                            x       y       z     vdW  Elec       q    Type
REMARK                         _______ _______ _______ _____ _____    ______ ____
ROOT
ATOM      1  C   LIG    1        6.648  -3.267   2.160  0.00  0.00    +0.148 A 
ATOM      2  O   LIG    1        6.729  -4.627   2.236  0.00  0.00    -0.454 OA
ATOM      3  C   LIG    1        7.806  -4.935   3.016  0.00  0.00    +0.136 A 
ATOM      4  C   LIG    1        8.415  -3.773   3.442  0.00  0.00    +0.050 A 
ATOM      5  C   LIG    1        7.666  -2.700   2.897  0.00  0.00    +0.051 A 
ENDROOT
BRANCH   3   6
ATOM      6  C   LIG    1        8.063  -6.356   3.204  0.00  0.00    +0.018 A 
ATOM      7  C   LIG    1        9.366  -6.821   3.437  0.00  0.00    +0.018 A 
ATOM      8  C   LIG    1        9.616  -8.186   3.615  0.00  0.00    +0.085 A 
ATOM      9  C   LIG    1        8.551  -9.094   3.570  0.00  0.00    +0.273 A 
ATOM     10  C   LIG    1        7.245  -8.648   3.346  0.00  0.00    +0.085 A 
ATOM     11  C   LIG    1        7.009  -7.283   3.160  0.00  0.00    +0.018 A 
BRANCH   9  12
ATOM     12  N   LIG    1        8.806 -10.527   3.758  0.00  0.00    +0.080 N 
ATOM     13  O   LIG    1        9.978 -10.883   3.948  0.00  0.00    -0.576 OA
ATOM     14  O   LIG    1        7.835 -11.295   3.717  0.00  0.00    +0.041 OA
ENDBRANCH   9  12
ENDBRANCH   3   6
BRANCH   1  16
ATOM     15  N   LIG    1        5.441  -1.439   1.228  0.00  0.00    -0.180 NA
ATOM     16  C   LIG    1        5.589  -2.719   1.364  0.00  0.00    +0.176 C 
BRANCH  15  21
ATOM     17  O   LIG    1        1.242  -0.717  -0.967  0.00  0.00    -0.272 OA
ATOM     18  C   LIG    1        2.371  -0.572  -0.522  0.00  0.00    +0.260 C 
ATOM     19  N   LIG    1        3.133   0.586  -0.599  0.00  0.00    -0.129 NA
ATOM     20  C   LIG    1        4.250   0.267  -0.035  0.00  0.00    +0.295 C 
ATOM     21  N   LIG    1        4.421  -1.007   0.425  0.00  0.00    -0.170 N 
ATOM     22  C   LIG    1        3.144  -1.681   0.219  0.00  0.00    +0.234 C 
BRANCH  20  23
ATOM     23  O   LIG    1        5.275   1.101   0.144  0.00  0.00    -0.482 OA
ATOM     24  H   LIG    1        5.960   0.600   0.621  0.00  0.00    +0.295 HD
ENDBRANCH  20  23
ENDBRANCH  15  21
ENDBRANCH   1  16
TORSDOF 5
