REMARK  Name = *****
REMARK                            x       y       z     vdW  Elec       q    Type
REMARK                         _______ _______ _______ _____ _____    ______ ____
ROOT
ATOM      1  C   LIG    1        2.872   0.950   0.637  0.00  0.00    +0.124 A 
ATOM      2  C   LIG    1        3.938   0.363   1.361  0.00  0.00    +0.001 A 
ATOM      3  C   LIG    1        4.654   1.220   2.245  0.00  0.00    +0.016 A 
ATOM      4  C   LIG    1        4.362   2.590   2.433  0.00  0.00    -0.017 A 
ATOM      5  C   LIG    1        3.302   3.110   1.691  0.00  0.00    +0.012 A 
ATOM      6  C   LIG    1        2.575   2.311   0.809  0.00  0.00    +0.046 A 
ENDROOT
BRANCH   2   7
ATOM      7  C   LIG    1        4.350  -1.136   1.219  0.00  0.00    -0.000 C 
ATOM      8  C   LIG    1        5.574  -1.518   2.126  0.00  0.00    +0.015 C 
ATOM      9  C   LIG    1        5.981  -2.991   1.988  0.00  0.00    -0.010 C 
ATOM     10  C   LIG    1        6.370  -3.262   0.530  0.00  0.00    +0.007 C 
ATOM     11  C   LIG    1        5.176  -2.962  -0.386  0.00  0.00    -0.010 C 
ATOM     12  C   LIG    1        3.998  -3.862   0.022  0.00  0.00    +0.007 C 
ATOM     13  C   LIG    1        3.597  -3.576   1.480  0.00  0.00    -0.010 C 
ATOM     14  C   LIG    1        4.794  -3.873   2.393  0.00  0.00    +0.007 C 
ATOM     15  C   LIG    1        4.766  -1.479  -0.244  0.00  0.00    +0.015 C 
ATOM     16  C   LIG    1        3.187  -2.094   1.623  0.00  0.00    +0.015 C 
ENDBRANCH   2   7
BRANCH   4  17
ATOM     17  C   LIG    1        5.138   3.445   3.371  0.00  0.00    -0.017 A 
ATOM     18  C   LIG    1        5.330   4.821   3.126  0.00  0.00    +0.017 A 
ATOM     19  C   LIG    1        6.053   5.652   4.005  0.00  0.00    -0.017 A 
ATOM     20  C   LIG    1        6.610   5.095   5.174  0.00  0.00    -0.017 A 
ATOM     21  C   LIG    1        7.333   5.912   6.059  0.00  0.00    +0.023 A 
ATOM     22  C   LIG    1        7.488   7.278   5.799  0.00  0.00    +0.059 A 
ATOM     23  C   LIG    1        6.961   7.825   4.626  0.00  0.00    +0.015 A 
ATOM     24  C   LIG    1        6.437   3.731   5.426  0.00  0.00    +0.009 A 
ATOM     25  C   LIG    1        6.245   7.018   3.738  0.00  0.00    +0.009 A 
ATOM     26  C   LIG    1        5.710   2.925   4.543  0.00  0.00    +0.009 A 
BRANCH  22  27
ATOM     27  C   LIG    1        8.239   8.172   6.718  0.00  0.00    +0.337 C 
ATOM     28  O   LIG    1        8.841   9.155   6.337  0.00  0.00    -0.245 OA
BRANCH  27  29
ATOM     29  O   LIG    1        8.152   7.817   8.020  0.00  0.00    -0.477 OA
ATOM     30  H   LIG    1        7.502   7.124   8.223  0.00  0.00    +0.295 HD
ENDBRANCH  27  29
ENDBRANCH  22  27
ENDBRANCH   4  17
BRANCH   1  32
ATOM     31  C   LIG    1        1.125   0.752  -0.993  0.00  0.00    +0.277 C 
ATOM     32  O   LIG    1        2.154   0.148  -0.212  0.00  0.00    -0.495 OA
ENDBRANCH   1  32
TORSDOF 5
