REMARK  Name = *****
REMARK                            x       y       z     vdW  Elec       q    Type
REMARK                         _______ _______ _______ _____ _____    ______ ____
ROOT
ATOM      1  C   LIG    1        4.617   1.177   0.221  0.00  0.00    +0.161 C 
ENDROOT
BRANCH   1   2
ATOM      2  C   LIG    1        5.761   0.217  -0.058  0.00  0.00    -0.014 A 
ATOM      3  C   LIG    1        5.998  -0.925   0.716  0.00  0.00    +0.055 A 
ATOM      4  C   LIG    1        7.087  -1.742   0.431  0.00  0.00    +0.159 A 
ATOM      5  C   LIG    1        7.967  -1.431  -0.606  0.00  0.00    +0.158 A 
ATOM      6  C   LIG    1        7.761  -0.299  -1.373  0.00  0.00    +0.049 A 
ATOM      7  C   LIG    1        6.660   0.519  -1.101  0.00  0.00    +0.010 A 
BRANCH   4   8
ATOM      8  O   LIG    1        7.297  -2.860   1.185  0.00  0.00    -0.503 OA
ATOM      9  H   LIG    1        8.095  -3.272   0.797  0.00  0.00    +0.292 HD
ENDBRANCH   4   8
BRANCH   5  10
ATOM     10  O   LIG    1        9.024  -2.271  -0.819  0.00  0.00    -0.503 OA
ATOM     11  H   LIG    1        9.549  -1.913  -1.557  0.00  0.00    +0.292 HD
ENDBRANCH   5  10
ENDBRANCH   1   2
BRANCH   1  12
ATOM     12  O   LIG    1        4.848   1.850   1.462  0.00  0.00    -0.386 OA
ATOM     13  H   LIG    1        5.780   1.719   1.700  0.00  0.00    +0.210 HD
ENDBRANCH   1  12
BRANCH   1  14
ATOM     14  C   LIG    1        3.144   0.620   0.112  0.00  0.00    +0.087 C 
BRANCH  14  16
ATOM     15  C   LIG    1        1.472  -0.269  -1.658  0.00  0.00    +0.005 C 
ATOM     16  C   LIG    1        2.923   0.058  -1.321  0.00  0.00    +0.018 C 
ENDBRANCH  14  16
BRANCH  14  17
ATOM     17  N   LIG    1        2.690  -0.387   1.095  0.00  0.00    -0.308 NA
ATOM     18  H   LIG    1        3.169  -1.271   0.926  0.00  0.00    +0.122 HD
BRANCH  17  19
ATOM     19  C   LIG    1        2.806  -0.019   2.512  0.00  0.00    +0.048 C 
ATOM     20  C   LIG    1        2.316  -1.205   3.350  0.00  0.00    +0.024 C 
ATOM     21  C   LIG    1        2.019   1.237   2.893  0.00  0.00    +0.024 C 
ENDBRANCH  17  19
ENDBRANCH  14  17
ENDBRANCH   1  14
TORSDOF 8
