REMARK  Name = *****
REMARK                            x       y       z     vdW  Elec       q    Type
REMARK                         _______ _______ _______ _____ _____    ______ ____
ROOT
ATOM      1  C   LIG    1        2.990   0.389   1.209  0.00  0.00    +0.020 C 
ATOM      2  C   LIG    1        4.297  -0.344   1.597  0.00  0.00    +0.118 C 
ATOM      3  C   LIG    1        5.502   0.122   0.772  0.00  0.00    +0.035 C 
ATOM      4  C   LIG    1        5.701   1.649   0.733  0.00  0.00    -0.012 C 
ATOM      5  C   LIG    1        6.373   2.183   2.002  0.00  0.00    +0.007 C 
ATOM      6  C   LIG    1        4.387   2.388   0.443  0.00  0.00    +0.004 C 
ATOM      7  C   LIG    1        3.228   1.912   1.318  0.00  0.00    +0.006 C 
ENDROOT
BRANCH   1   9
ATOM      8  C   LIG    1        2.140  -1.557  -0.234  0.00  0.00    +0.007 C 
ATOM      9  C   LIG    1        2.431  -0.051  -0.182  0.00  0.00    -0.012 C 
ATOM     10  C   LIG    1        1.144   0.700  -0.553  0.00  0.00    +0.007 C 
ENDBRANCH   1   9
BRANCH   2  11
ATOM     11  O   LIG    1        4.577  -0.129   2.981  0.00  0.00    -0.392 OA
ATOM     12  H   LIG    1        3.817  -0.462   3.489  0.00  0.00    +0.210 HD
ENDBRANCH   2  11
TORSDOF 2
