REMARK  Name = *****
REMARK                            x       y       z     vdW  Elec       q    Type
REMARK                         _______ _______ _______ _____ _____    ______ ____
ROOT
ATOM      1  C   LIG    1        5.716   1.103  -1.345  0.00  0.00    +0.265 C 
ATOM      2  C   LIG    1        5.396   1.136  -2.867  0.00  0.00    +0.265 C 
ATOM      3  C   LIG    1        3.907   0.814  -3.011  0.00  0.00    +0.265 C 
ATOM      4  C   LIG    1        2.914   1.769  -2.333  0.00  0.00    +0.265 C 
ATOM      5  C   LIG    1        3.359   2.308  -0.946  0.00  0.00    +0.265 C 
ATOM      6  C   LIG    1        4.806   2.014  -0.472  0.00  0.00    +0.265 C 
ENDROOT
BRANCH   2   7
ATOM      7  O   LIG    1        5.853   2.241  -3.672  0.00  0.00    -0.450 OA
BRANCH   7   8
ATOM      8  C   LIG    1        6.267   3.383  -3.095  0.00  0.00    +0.341 C 
ATOM      9  O   LIG    1        5.969   3.771  -1.969  0.00  0.00    -0.245 OA
BRANCH   8  10
ATOM     10  C   LIG    1        7.235   4.118  -3.857  0.00  0.00    +0.077 A 
ATOM     11  C   LIG    1        7.461   5.435  -3.460  0.00  0.00    +0.125 A 
ATOM     12  N   LIG    1        8.371   6.241  -4.028  0.00  0.00    -0.262 NA
ATOM     13  C   LIG    1        9.108   5.690  -5.014  0.00  0.00    +0.111 A 
ATOM     14  C   LIG    1        8.977   4.375  -5.452  0.00  0.00    +0.020 A 
ATOM     15  C   LIG    1        8.021   3.564  -4.860  0.00  0.00    +0.018 A 
ENDBRANCH   8  10
ENDBRANCH   7   8
ENDBRANCH   2   7
BRANCH   3  16
ATOM     16  O   LIG    1        3.470   0.311  -4.293  0.00  0.00    -0.450 OA
BRANCH  16  17
ATOM     17  C   LIG    1        3.748   0.953  -5.440  0.00  0.00    +0.341 C 
ATOM     18  O   LIG    1        3.554   2.135  -5.678  0.00  0.00    -0.245 OA
BRANCH  17  19
ATOM     19  C   LIG    1        4.467  -0.004  -6.308  0.00  0.00    +0.077 A 
ATOM     20  C   LIG    1        5.394   0.467  -7.226  0.00  0.00    +0.125 A 
ATOM     21  N   LIG    1        6.178  -0.343  -7.985  0.00  0.00    -0.262 NA
ATOM     22  C   LIG    1        6.014  -1.677  -7.829  0.00  0.00    +0.111 A 
ATOM     23  C   LIG    1        5.104  -2.242  -6.951  0.00  0.00    +0.020 A 
ATOM     24  C   LIG    1        4.322  -1.391  -6.176  0.00  0.00    +0.018 A 
ENDBRANCH  17  19
ENDBRANCH  16  17
ENDBRANCH   3  16
BRANCH   4  25
ATOM     25  O   LIG    1        1.603   1.091  -2.111  0.00  0.00    -0.450 OA
BRANCH  25  26
ATOM     26  C   LIG    1        1.544  -0.172  -1.576  0.00  0.00    +0.341 C 
ATOM     27  O   LIG    1        2.389  -0.988  -1.527  0.00  0.00    -0.245 OA
BRANCH  26  28
ATOM     28  C   LIG    1        0.345  -0.364  -0.782  0.00  0.00    +0.077 A 
ATOM     29  C   LIG    1       -0.861   0.268  -1.075  0.00  0.00    +0.125 A 
ATOM     30  N   LIG    1       -1.972   0.101  -0.331  0.00  0.00    -0.262 NA
ATOM     31  C   LIG    1       -1.883  -0.717   0.745  0.00  0.00    +0.111 A 
ATOM     32  C   LIG    1       -0.731  -1.402   1.109  0.00  0.00    +0.020 A 
ATOM     33  C   LIG    1        0.392  -1.225   0.326  0.00  0.00    +0.018 A 
ENDBRANCH  26  28
ENDBRANCH  25  26
ENDBRANCH   4  25
BRANCH   5  34
ATOM     34  O   LIG    1        3.164   3.744  -0.680  0.00  0.00    -0.450 OA
BRANCH  34  35
ATOM     35  C   LIG    1        2.743   4.663  -1.576  0.00  0.00    +0.341 C 
ATOM     36  O   LIG    1        1.798   4.549  -2.328  0.00  0.00    -0.245 OA
BRANCH  35  37
ATOM     37  C   LIG    1        3.643   5.847  -1.527  0.00  0.00    +0.077 A 
ATOM     38  C   LIG    1        4.709   5.922  -0.636  0.00  0.00    +0.125 A 
ATOM     39  N   LIG    1        5.585   6.954  -0.568  0.00  0.00    -0.262 NA
ATOM     40  C   LIG    1        5.381   7.975  -1.420  0.00  0.00    +0.111 A 
ATOM     41  C   LIG    1        4.356   7.998  -2.353  0.00  0.00    +0.020 A 
ATOM     42  C   LIG    1        3.479   6.911  -2.416  0.00  0.00    +0.018 A 
ENDBRANCH  35  37
ENDBRANCH  34  35
ENDBRANCH   5  34
BRANCH   1  43
ATOM     43  O   LIG    1        7.098   1.464  -1.067  0.00  0.00    -0.450 OA
BRANCH  43  45
ATOM     44  O   LIG    1        8.130  -0.530  -1.486  0.00  0.00    -0.245 OA
ATOM     45  C   LIG    1        7.982   0.470  -0.813  0.00  0.00    +0.341 C 
BRANCH  45  46
ATOM     46  C   LIG    1        8.665   0.738   0.477  0.00  0.00    +0.077 A 
ATOM     47  C   LIG    1        9.804   0.054   0.848  0.00  0.00    +0.125 A 
ATOM     48  N   LIG    1       10.407   0.182   2.064  0.00  0.00    -0.262 NA
ATOM     49  C   LIG    1        9.835   1.021   2.954  0.00  0.00    +0.111 A 
ATOM     50  C   LIG    1        8.704   1.751   2.675  0.00  0.00    +0.020 A 
ATOM     51  C   LIG    1        8.133   1.613   1.417  0.00  0.00    +0.018 A 
ENDBRANCH  45  46
ENDBRANCH  43  45
ENDBRANCH   1  43
BRANCH   6  52
ATOM     52  O   LIG    1        4.715   1.470   0.886  0.00  0.00    -0.450 OA
BRANCH  52  53
ATOM     53  C   LIG    1        5.032   2.339   1.892  0.00  0.00    +0.341 C 
ATOM     54  O   LIG    1        5.503   3.455   1.790  0.00  0.00    -0.245 OA
BRANCH  53  55
ATOM     55  C   LIG    1        4.835   1.720   3.197  0.00  0.00    +0.077 A 
ATOM     56  C   LIG    1        5.648   2.112   4.251  0.00  0.00    +0.125 A 
ATOM     57  N   LIG    1        5.510   1.661   5.514  0.00  0.00    -0.262 NA
ATOM     58  C   LIG    1        4.468   0.834   5.735  0.00  0.00    +0.111 A 
ATOM     59  C   LIG    1        3.588   0.412   4.745  0.00  0.00    +0.020 A 
ATOM     60  C   LIG    1        3.788   0.847   3.442  0.00  0.00    +0.018 A 
ENDBRANCH  53  55
ENDBRANCH  52  53
ENDBRANCH   6  52
TORSDOF 18
