REMARK  Name = *****
REMARK                            x       y       z     vdW  Elec       q    Type
REMARK                         _______ _______ _______ _____ _____    ______ ____
ROOT
ATOM      1  C   LIG    1       10.698  -0.180  -6.066  0.00  0.00    -0.021 C 
ATOM      2  C   LIG    1       11.782  -0.017  -6.873  0.00  0.00    -0.035 C 
ATOM      3  C   LIG    1       12.656   1.226  -6.829  0.00  0.00    +0.059 C 
ATOM      4  C   LIG    1       12.809   2.033  -8.148  0.00  0.00    +0.085 C 
ATOM      5  C   LIG    1       13.944   3.038  -8.025  0.00  0.00    -0.011 C 
ATOM      6  C   LIG    1       14.962   2.864  -7.173  0.00  0.00    +0.009 C 
ATOM      7  C   LIG    1       15.059   1.693  -6.319  0.00  0.00    +0.051 C 
ATOM      8  S   LIG    1       13.172   1.067  -9.650  0.00  0.00    -0.116 S 
ATOM      9  C   LIG    1       12.551  -0.555  -9.249  0.00  0.00    +0.016 A 
ATOM     10  C   LIG    1       12.643  -1.471 -10.317  0.00  0.00    +0.015 A 
ATOM     11  C   LIG    1       12.196  -2.781 -10.187  0.00  0.00    +0.001 A 
ATOM     12  C   LIG    1       11.656  -3.196  -8.980  0.00  0.00    +0.001 A 
ATOM     13  C   LIG    1       11.566  -2.300  -7.912  0.00  0.00    +0.009 A 
ATOM     14  C   LIG    1       13.963   0.911  -6.152  0.00  0.00    -0.005 C 
ATOM     15  C   LIG    1       11.995  -0.961  -8.018  0.00  0.00    -0.008 A 
ENDROOT
BRANCH   7  16
ATOM     16  C   LIG    1       16.332   1.391  -5.580  0.00  0.00    +0.417 C 
ATOM     17  F   LIG    1       16.861   0.197  -5.949  0.00  0.00    -0.166 F 
ATOM     18  F   LIG    1       16.124   1.324  -4.237  0.00  0.00    -0.166 F 
ATOM     19  F   LIG    1       17.304   2.326  -5.771  0.00  0.00    -0.166 F 
ENDBRANCH   7  16
BRANCH   1  20
ATOM     20  C   LIG    1       10.074   0.827  -5.124  0.00  0.00    +0.043 C 
BRANCH  20  21
ATOM     21  C   LIG    1        8.711   1.385  -5.638  0.00  0.00    +0.088 C 
BRANCH  21  25
ATOM     22  N   LIG    1        6.829   0.590  -8.804  0.00  0.00    -0.298 NA
ATOM     23  C   LIG    1        8.203   0.166  -8.470  0.00  0.00    +0.100 C 
ATOM     24  C   LIG    1        9.124   1.345  -8.102  0.00  0.00    +0.100 C 
ATOM     25  N   LIG    1        8.714   2.128  -6.925  0.00  0.00    -0.300 NA
ATOM     26  C   LIG    1        7.363   2.632  -7.275  0.00  0.00    +0.100 C 
ATOM     27  C   LIG    1        6.360   1.543  -7.766  0.00  0.00    +0.100 C 
BRANCH  22  28
ATOM     28  C   LIG    1        6.805   1.115 -10.187  0.00  0.00    +0.112 C 
BRANCH  28  29
ATOM     29  C   LIG    1        5.418   1.396 -10.787  0.00  0.00    +0.171 C 
BRANCH  29  30
ATOM     30  O   LIG    1        4.868   2.610 -10.290  0.00  0.00    -0.394 OA
ATOM     31  H   LIG    1        3.904   2.486 -10.261  0.00  0.00    +0.209 HD
ENDBRANCH  29  30
ENDBRANCH  28  29
ENDBRANCH  22  28
ENDBRANCH  21  25
ENDBRANCH  20  21
ENDBRANCH   1  20
TORSDOF 7
