REMARK  Name = *****
REMARK                            x       y       z     vdW  Elec       q    Type
REMARK                         _______ _______ _______ _____ _____    ______ ____
ROOT
ATOM      1  C   LIG    1       13.928   0.429   5.553  0.00  0.00    +0.045 C 
ATOM      2  C   LIG    1       13.116   0.501   4.465  0.00  0.00    +0.046 C 
ATOM      3  C   LIG    1       11.619   0.751   4.567  0.00  0.00    +0.188 C 
ATOM      4  O   LIG    1       11.044   1.219   5.531  0.00  0.00    -0.287 OA
ATOM      5  C   LIG    1       10.818   0.371   3.365  0.00  0.00    +0.054 C 
ATOM      6  C   LIG    1       11.412   0.065   2.207  0.00  0.00    +0.042 C 
ATOM      7  C   LIG    1       12.839   0.114   2.063  0.00  0.00    +0.124 C 
ATOM      8  F   LIG    1       13.359  -0.074   0.835  0.00  0.00    -0.205 F 
ATOM      9  C   LIG    1       13.648   0.315   3.110  0.00  0.00    +0.052 C 
ENDROOT
BRANCH   1  10
ATOM     10  C   LIG    1       13.419   0.616   6.936  0.00  0.00    -0.003 A 
ATOM     11  C   LIG    1       13.009  -0.499   7.685  0.00  0.00    +0.011 A 
ATOM     12  C   LIG    1       12.586  -0.347   9.008  0.00  0.00    +0.020 A 
ATOM     13  C   LIG    1       12.585   0.917   9.592  0.00  0.00    +0.041 A 
ATOM     14 CL   LIG    1       12.088   1.100  11.230  0.00  0.00    -0.084 Cl
ATOM     15  C   LIG    1       12.993   2.033   8.863  0.00  0.00    +0.020 A 
ATOM     16  C   LIG    1       13.402   1.884   7.533  0.00  0.00    +0.011 A 
ENDBRANCH   1  10
BRANCH   1  17
ATOM     17  N   LIG    1       15.280   0.076   5.466  0.00  0.00    -0.343 N 
ATOM     18  H   LIG    1       15.493  -0.479   4.646  0.00  0.00    +0.146 HD
BRANCH  17  19
ATOM     19  C   LIG    1       16.241  -0.020   6.556  0.00  0.00    +0.102 C 
BRANCH  19  20
ATOM     20  C   LIG    1       17.614  -0.462   6.038  0.00  0.00    +0.028 C 
BRANCH  20  21
ATOM     21  C   LIG    1       17.632  -1.824   5.341  0.00  0.00    +0.097 C 
BRANCH  21  25
ATOM     22  N   LIG    1       15.823  -3.159   6.228  0.00  0.00    -0.329 N 
ATOM     23  H   LIG    1       15.181  -2.577   5.704  0.00  0.00    +0.145 HD
ATOM     24  H   LIG    1       15.438  -3.818   6.893  0.00  0.00    +0.145 HD
ATOM     25  C   LIG    1       17.164  -2.924   6.263  0.00  0.00    +0.210 C 
ATOM     26  O   LIG    1       17.910  -3.534   7.025  0.00  0.00    -0.276 OA
ENDBRANCH  21  25
ENDBRANCH  20  21
ENDBRANCH  19  20
ENDBRANCH  17  19
ENDBRANCH   1  17
TORSDOF 6
