REMARK  Name = *****
REMARK                            x       y       z     vdW  Elec       q    Type
REMARK                         _______ _______ _______ _____ _____    ______ ____
ROOT
ATOM      1  C   LIG    1        8.518   3.358   0.006  0.00  0.00    +0.121 A 
ATOM      2  C   LIG    1        8.001   2.981   1.241  0.00  0.00    +0.046 A 
ATOM      3  C   LIG    1        8.758   3.015   2.449  0.00  0.00    +0.009 A 
ATOM      4  C   LIG    1       10.115   3.410   2.423  0.00  0.00    -0.022 A 
ATOM      5  C   LIG    1       10.614   3.778   1.181  0.00  0.00    +0.009 A 
ATOM      6  C   LIG    1        9.856   3.798  -0.004  0.00  0.00    +0.046 A 
ENDROOT
BRANCH   1   7
ATOM      7  O   LIG    1        7.738   3.389  -1.108  0.00  0.00    -0.489 OA
BRANCH   7   8
ATOM      8  C   LIG    1        8.313   3.089  -2.412  0.00  0.00    +0.261 C 
BRANCH   8   9
ATOM      9  C   LIG    1        7.804   4.022  -3.550  0.00  0.00    +0.166 C 
BRANCH   9  10
ATOM     10  O   LIG    1        6.494   3.517  -3.799  0.00  0.00    -0.387 OA
ATOM     11  H   LIG    1        5.932   3.888  -3.094  0.00  0.00    +0.210 HD
ENDBRANCH   9  10
BRANCH   9  12
ATOM     12  C   LIG    1        7.750   5.563  -3.301  0.00  0.00    +0.115 C 
BRANCH  12  13
ATOM     13  N   LIG    1        7.401   6.469  -4.434  0.00  0.00    -0.311 NA
ATOM     14  H   LIG    1        8.061   6.398  -5.205  0.00  0.00    +0.122 HD
BRANCH  13  16
ATOM     15  C   LIG    1        5.824   7.731  -5.931  0.00  0.00    +0.024 C 
ATOM     16  C   LIG    1        6.002   6.599  -4.887  0.00  0.00    +0.048 C 
ATOM     17  C   LIG    1        5.325   5.374  -5.498  0.00  0.00    +0.024 C 
ENDBRANCH  13  16
ENDBRANCH  12  13
ENDBRANCH   9  12
ENDBRANCH   8   9
ENDBRANCH   7   8
ENDBRANCH   1   7
BRANCH   4  18
ATOM     18  C   LIG    1       11.064   3.378   3.642  0.00  0.00    +0.195 C 
BRANCH  18  19
ATOM     19  O   LIG    1       10.674   4.168   4.771  0.00  0.00    -0.373 OA
BRANCH  19  20
ATOM     20  C   LIG    1       11.758   4.785   5.487  0.00  0.00    +0.188 C 
BRANCH  20  21
ATOM     21  C   LIG    1       11.301   5.764   6.602  0.00  0.00    +0.188 C 
BRANCH  21  22
ATOM     22  O   LIG    1       10.710   6.992   6.149  0.00  0.00    -0.375 OA
BRANCH  22  23
ATOM     23  C   LIG    1        9.311   6.971   5.834  0.00  0.00    +0.112 C 
ATOM     24  C   LIG    1        9.021   6.188   4.567  0.00  0.00    +0.037 C 
ATOM     25  C   LIG    1        8.870   8.408   5.565  0.00  0.00    +0.037 C 
ENDBRANCH  22  23
ENDBRANCH  21  22
ENDBRANCH  20  21
ENDBRANCH  19  20
ENDBRANCH  18  19
ENDBRANCH   4  18
TORSDOF 13
