REMARK  Name = *****
REMARK                            x       y       z     vdW  Elec       q    Type
REMARK                         _______ _______ _______ _____ _____    ______ ____
ROOT
ATOM      1  O   LIG    1       -4.294  -1.380 -25.763  0.00  0.00    -0.340 OA
ENDROOT
BRANCH   1   6
ATOM      2  C   LIG    1       -3.941   2.368 -25.510  0.00  0.00    +0.178 C 
ATOM      3  C   LIG    1       -4.291   2.657 -27.086  0.00  0.00    +0.181 C 
ATOM      4  C   LIG    1       -4.658   1.296 -27.732  0.00  0.00    +0.183 C 
ATOM      5  C   LIG    1       -5.582   0.506 -26.689  0.00  0.00    +0.205 C 
ATOM      6  C   LIG    1       -4.741  -0.017 -25.530  0.00  0.00    +0.282 C 
ATOM      7  O   LIG    1       -3.616   0.922 -25.291  0.00  0.00    -0.341 OA
BRANCH   2   8
ATOM      8  C   LIG    1       -3.068   3.336 -24.382  0.00  0.00    +0.194 C 
BRANCH   8   9
ATOM      9  O   LIG    1       -3.406   4.781 -24.064  0.00  0.00    -0.375 OA
BRANCH   9  10
ATOM     10  C   LIG    1       -2.649   5.969 -24.555  0.00  0.00    +0.190 C 
BRANCH  10  12
ATOM     11  C   LIG    1       -3.023   5.130 -26.716  0.00  0.00    +0.040 C 
ATOM     12  C   LIG    1       -2.981   6.449 -26.005  0.00  0.00    +0.137 C 
BRANCH  12  13
ATOM     13  O   LIG    1       -4.054   7.284 -26.247  0.00  0.00    -0.390 OA
ATOM     14  H   LIG    1       -4.534   7.588 -25.433  0.00  0.00    +0.210 HD
ENDBRANCH  12  13
ENDBRANCH  10  12
ENDBRANCH   9  10
ENDBRANCH   8   9
ENDBRANCH   2   8
BRANCH   3  15
ATOM     15  O   LIG    1       -5.454   3.441 -27.591  0.00  0.00    -0.369 OA
BRANCH  15  16
ATOM     16  C   LIG    1       -5.849   4.829 -27.412  0.00  0.00    +0.191 C 
BRANCH  16  17
ATOM     17  C   LIG    1       -6.139   5.276 -25.943  0.00  0.00    +0.137 C 
ATOM     18  C   LIG    1       -7.532   5.617 -25.488  0.00  0.00    +0.040 C 
BRANCH  17  19
ATOM     19  O   LIG    1       -5.617   4.402 -24.972  0.00  0.00    -0.390 OA
ATOM     20  H   LIG    1       -5.150   4.885 -24.256  0.00  0.00    +0.210 HD
ENDBRANCH  17  19
ENDBRANCH  16  17
ENDBRANCH  15  16
ENDBRANCH   3  15
BRANCH   4  21
ATOM     21  O   LIG    1       -3.463   0.562 -28.238  0.00  0.00    -0.369 OA
BRANCH  21  22
ATOM     22  C   LIG    1       -2.590   1.344 -29.102  0.00  0.00    +0.191 C 
BRANCH  22  23
ATOM     23  C   LIG    1       -1.542   0.565 -29.945  0.00  0.00    +0.137 C 
ATOM     24  C   LIG    1       -0.607   1.553 -30.666  0.00  0.00    +0.040 C 
BRANCH  23  25
ATOM     25  O   LIG    1       -2.172  -0.220 -30.956  0.00  0.00    -0.390 OA
ATOM     26  H   LIG    1       -2.961  -0.625 -30.550  0.00  0.00    +0.210 HD
ENDBRANCH  23  25
ENDBRANCH  22  23
ENDBRANCH  21  22
ENDBRANCH   4  21
BRANCH   5  27
ATOM     27  O   LIG    1       -6.886   0.970 -26.251  0.00  0.00    -0.366 OA
BRANCH  27  28
ATOM     28  C   LIG    1       -7.146   2.076 -25.397  0.00  0.00    +0.191 C 
BRANCH  28  29
ATOM     29  C   LIG    1       -6.778   2.120 -23.856  0.00  0.00    +0.137 C 
ATOM     30  C   LIG    1       -7.266   0.968 -23.030  0.00  0.00    +0.040 C 
BRANCH  29  31
ATOM     31  O   LIG    1       -7.268   3.294 -23.183  0.00  0.00    -0.390 OA
ATOM     32  H   LIG    1       -7.901   3.737 -23.763  0.00  0.00    +0.210 HD
ENDBRANCH  29  31
ENDBRANCH  28  29
ENDBRANCH  27  28
ENDBRANCH   5  27
ENDBRANCH   1   6
BRANCH   1  33
ATOM     33  C   LIG    1       -5.205  -2.522 -25.921  0.00  0.00    +0.184 C 
ATOM     34  C   LIG    1       -5.478  -3.011 -27.425  0.00  0.00    +0.178 C 
ATOM     35  O   LIG    1       -6.674  -3.805 -27.471  0.00  0.00    -0.341 OA
ATOM     36  C   LIG    1       -6.683  -4.885 -26.541  0.00  0.00    +0.282 C 
ATOM     37  C   LIG    1       -6.929  -4.391 -25.071  0.00  0.00    +0.205 C 
ATOM     38  C   LIG    1       -6.393  -2.883 -24.857  0.00  0.00    +0.183 C 
BRANCH  38  39
ATOM     39  O   LIG    1       -7.372  -1.827 -24.825  0.00  0.00    -0.369 OA
BRANCH  39  40
ATOM     40  C   LIG    1       -8.691  -1.949 -24.257  0.00  0.00    +0.191 C 
BRANCH  40  41
ATOM     41  C   LIG    1       -8.976  -2.157 -22.723  0.00  0.00    +0.137 C 
ATOM     42  C   LIG    1      -10.106  -1.229 -22.233  0.00  0.00    +0.040 C 
BRANCH  41  43
ATOM     43  O   LIG    1       -7.863  -1.936 -21.866  0.00  0.00    -0.390 OA
ATOM     44  H   LIG    1       -7.245  -2.672 -22.000  0.00  0.00    +0.210 HD
ENDBRANCH  41  43
ENDBRANCH  40  41
ENDBRANCH  39  40
ENDBRANCH  38  39
BRANCH  37  45
ATOM     45  O   LIG    1       -8.251  -4.510 -24.507  0.00  0.00    -0.366 OA
BRANCH  45  46
ATOM     46  C   LIG    1       -9.161  -5.589 -24.711  0.00  0.00    +0.191 C 
BRANCH  46  47
ATOM     47  C   LIG    1       -9.008  -6.767 -23.728  0.00  0.00    +0.137 C 
ATOM     48  C   LIG    1      -10.192  -7.742 -23.773  0.00  0.00    +0.040 C 
BRANCH  47  49
ATOM     49  O   LIG    1       -8.892  -6.297 -22.381  0.00  0.00    -0.390 OA
ATOM     50  H   LIG    1       -9.630  -5.687 -22.208  0.00  0.00    +0.210 HD
ENDBRANCH  47  49
ENDBRANCH  46  47
ENDBRANCH  45  46
ENDBRANCH  37  45
BRANCH  36  51
ATOM     51  O   LIG    1       -5.469  -5.615 -26.566  0.00  0.00    -0.346 OA
BRANCH  51  52
ATOM     52  C   LIG    1       -5.183  -6.219 -27.880  0.00  0.00    +0.194 C 
BRANCH  52  53
ATOM     53  C   LIG    1       -3.798  -6.873 -27.869  0.00  0.00    +0.137 C 
ATOM     54  C   LIG    1       -2.656  -5.943 -27.449  0.00  0.00    +0.040 C 
BRANCH  53  55
ATOM     55  O   LIG    1       -3.566  -7.324 -29.228  0.00  0.00    -0.390 OA
ATOM     56  H   LIG    1       -2.636  -7.592 -29.304  0.00  0.00    +0.210 HD
ENDBRANCH  53  55
ENDBRANCH  52  53
ENDBRANCH  51  52
ENDBRANCH  36  51
BRANCH  34  57
ATOM     57  C   LIG    1       -5.522  -2.010 -28.616  0.00  0.00    +0.194 C 
BRANCH  57  58
ATOM     58  O   LIG    1       -5.300  -2.467 -29.975  0.00  0.00    -0.375 OA
BRANCH  58  59
ATOM     59  C   LIG    1       -6.342  -3.281 -30.500  0.00  0.00    +0.190 C 
BRANCH  59  60
ATOM     60  C   LIG    1       -6.542  -3.190 -32.033  0.00  0.00    +0.137 C 
ATOM     61  C   LIG    1       -7.117  -1.868 -32.546  0.00  0.00    +0.040 C 
BRANCH  60  62
ATOM     62  O   LIG    1       -7.463  -4.234 -32.393  0.00  0.00    -0.390 OA
ATOM     63  H   LIG    1       -7.620  -4.175 -33.350  0.00  0.00    +0.210 HD
ENDBRANCH  60  62
ENDBRANCH  59  60
ENDBRANCH  58  59
ENDBRANCH  57  58
ENDBRANCH  34  57
ENDBRANCH   1  33
TORSDOF 36
