REMARK  Name = *****
REMARK                            x       y       z     vdW  Elec       q    Type
REMARK                         _______ _______ _______ _____ _____    ______ ____
ROOT
ATOM      1  C   UNK A  0      -12.977   5.251  -3.404  0.00  0.00    +0.246 C 
ATOM      2  N   UNK A  2      -12.457   3.992  -3.181  0.00  0.00    -0.298 N 
ATOM      3  H   ACE A  1      -13.025   3.200  -3.500  0.00  0.00    +0.150 HD
ATOM      4  O   UNK A  0      -12.316   6.279  -3.246  0.00  0.00    -0.270 OA
ENDROOT
BRANCH   2   5
ATOM      5  C   UNK A  2      -11.061   3.751  -2.718  0.00  0.00    +0.191 C 
ATOM      6  C   UNK A  2      -10.697   3.927  -1.206  0.00  0.00    +0.169 C 
ATOM      7  N   UNK A  2      -10.557   2.483  -1.141  0.00  0.00    -0.249 N 
ATOM      8  C   UNK A  2      -10.188   1.845   0.002  0.00  0.00    +0.119 C 
ATOM      9  C   UNK A  2      -10.427   2.435   1.188  0.00  0.00    +0.014 C 
ATOM     10  C   UNK A  2      -11.167   3.719   1.432  0.00  0.00    +0.100 C 
ATOM     11  S   UNK A  2      -11.995   4.405  -0.038  0.00  0.00    -0.131 S 
ATOM     12  C   UNK A  2      -10.677   2.250  -2.454  0.00  0.00    +0.244 C 
ATOM     13  O   UNK A  2      -10.569   1.196  -3.063  0.00  0.00    -0.273 OA
BRANCH   8  14
ATOM     14  C   UNK A  2       -9.515   0.506   0.025  0.00  0.00    +0.351 C 
ATOM     15  O   UNK A  2       -8.882   0.111   0.997  0.00  0.00    -0.244 OA
BRANCH  14  16
ATOM     16  O   UNK A  2       -9.646  -0.250  -1.079  0.00  0.00    -0.476 OA
ATOM     17  H   UNK A  2      -10.160   0.135  -1.823  0.00  0.00    +0.295 HD
ENDBRANCH  14  16
ENDBRANCH   8  14
ENDBRANCH   2   5
BRANCH   1  18
ATOM     18  C   UNK A  0      -14.411   5.308  -3.904  0.00  0.00    +0.059 C 
ATOM     19  C   UNK A  0      -15.131   6.454  -3.805  0.00  0.00    -0.001 C 
BRANCH  18  23
ATOM     20  C   UNK A  0      -15.178   2.041  -5.133  0.00  0.00    +0.156 A 
ATOM     21  S   UNK A  0      -16.202   2.756  -6.312  0.00  0.00    -0.060 S 
ATOM     22  C   UNK A  0      -15.833   4.296  -5.681  0.00  0.00    +0.077 A 
ATOM     23  C   UNK A  0      -14.968   4.175  -4.609  0.00  0.00    +0.085 A 
ATOM     24  N   UNK A  0      -14.600   2.875  -4.298  0.00  0.00    -0.225 NA
BRANCH  20  25
ATOM     25  N   UNK A  0      -14.995   0.717  -5.118  0.00  0.00    -0.338 N 
ATOM     26  H   UNK A  0      -15.569   0.121  -5.702  0.00  0.00    +0.144 HD
ATOM     27  H   UNK A  0      -14.560   0.275  -4.319  0.00  0.00    +0.144 HD
ENDBRANCH  20  25
ENDBRANCH  18  23
BRANCH  19  28
ATOM     28  C   UNK A  0      -14.785   7.821  -3.290  0.00  0.00    +0.148 C 
BRANCH  28  29
ATOM     29  C   UNK A  0      -14.293   8.720  -4.412  0.00  0.00    +0.308 C 
ATOM     30  O   UNK A  0      -15.030   9.384  -5.128  0.00  0.00    -0.251 OA
BRANCH  29  31
ATOM     31  O   UNK A  0      -12.951   8.688  -4.580  0.00  0.00    -0.480 OA
ATOM     32  H   UNK A  0      -12.502   8.038  -3.990  0.00  0.00    +0.295 HD
ENDBRANCH  29  31
ENDBRANCH  28  29
ENDBRANCH  19  28
ENDBRANCH   1  18
TORSDOF 9
