REMARK  Name = *****
REMARK                            x       y       z     vdW  Elec       q    Type
REMARK                         _______ _______ _______ _____ _____    ______ ____
ROOT
ATOM      1  CA  LIG    1       -0.369   5.114  -1.955  0.00  0.00    +0.191 C 
ATOM      2  C   LIG    1       -0.401   4.833  -3.485  0.00  0.00    +0.169 C 
ATOM      3  N   LIG    1        0.925   4.255  -3.328  0.00  0.00    -0.248 N 
ATOM      4  CA  LIG    1        1.752   3.893  -4.366  0.00  0.00    +0.133 C 
ATOM      5  C   LIG    1        1.388   4.186  -5.653  0.00  0.00    +0.030 C 
ATOM      6  C   LIG    1        0.267   5.151  -6.015  0.00  0.00    +0.115 C 
ATOM      7  S   LIG    1       -0.269   6.212  -4.635  0.00  0.00    -0.130 S 
ATOM      8  C   LIG    1        0.901   4.236  -1.983  0.00  0.00    +0.244 C 
ATOM      9  O   LIG    1        1.622   3.800  -1.095  0.00  0.00    -0.273 OA
ENDROOT
BRANCH   1  11
ATOM     10  C   LIG    1       -1.080   7.425  -1.271  0.00  0.00    +0.270 C 
ATOM     11  N   LIG    1       -0.101   6.470  -1.426  0.00  0.00    -0.296 N 
ATOM     12  H   LIG    1        0.843   6.758  -1.174  0.00  0.00    +0.150 HD
ATOM     13  O   LIG    1       -2.237   7.251  -1.628  0.00  0.00    -0.268 OA
BRANCH  10  15
ATOM     14  N   LIG    1        0.557   9.233  -0.627  0.00  0.00    -0.076 NA
ATOM     15  C   LIG    1       -0.648   8.729  -0.602  0.00  0.00    +0.208 C 
BRANCH  15  16
ATOM     16  C   LIG    1       -1.626   9.517   0.146  0.00  0.00    +0.197 A 
ATOM     17  N   LIG    1       -1.548  10.916   0.121  0.00  0.00    -0.202 NA
ATOM     18  C   LIG    1       -2.452  11.429   0.919  0.00  0.00    +0.187 A 
ATOM     19  S   LIG    1       -3.391  10.183   1.665  0.00  0.00    +0.050 S 
ATOM     20  N   LIG    1       -2.573   8.945   0.900  0.00  0.00    -0.185 NA
BRANCH  18  21
ATOM     21  N   LIG    1       -2.615  12.750   1.057  0.00  0.00    -0.230 N 
ATOM     22  H   LIG    1       -2.317  13.332   0.290  0.00  0.00    +0.160 HD
BRANCH  21  23
ATOM     23  P   LIG    1       -3.281  13.383   2.365  0.00  0.00    +0.423 P 
ATOM     24  O   LIG    1       -3.181  12.788   3.729  0.00  0.00    -0.237 OA
BRANCH  23  25
ATOM     25  O   LIG    1       -4.818  13.644   2.009  0.00  0.00    -0.310 OA
ATOM     26  H   LIG    1       -5.335  13.896   2.793  0.00  0.00    +0.221 HD
ENDBRANCH  23  25
BRANCH  23  27
ATOM     27  O   LIG    1       -2.788  14.905   2.433  0.00  0.00    -0.310 OA
ATOM     28  H   LIG    1       -2.967  15.297   3.307  0.00  0.00    +0.221 HD
ENDBRANCH  23  27
ENDBRANCH  21  23
ENDBRANCH  18  21
ENDBRANCH  15  16
BRANCH  14  29
ATOM     29  O   LIG    1        1.504   8.531  -1.377  0.00  0.00    -0.393 OA
BRANCH  29  31
ATOM     30  C   LIG    1        3.587   8.973  -2.505  0.00  0.00    +0.051 C 
ATOM     31  C   LIG    1        2.729   9.273  -1.295  0.00  0.00    +0.259 C 
ENDBRANCH  29  31
ENDBRANCH  14  29
ENDBRANCH  10  15
ENDBRANCH   1  11
BRANCH   4  32
ATOM     32  C   LIG    1        3.059   3.224  -4.074  0.00  0.00    +0.352 C 
ATOM     33  O   LIG    1        4.025   3.105  -4.807  0.00  0.00    -0.244 OA
BRANCH  32  34
ATOM     34  OXT LIG    1        3.112   2.692  -2.846  0.00  0.00    -0.476 OA
ATOM     35  HXT LIG    1        4.016   2.324  -2.780  0.00  0.00    +0.295 HD
ENDBRANCH  32  34
ENDBRANCH   4  32
BRANCH   5  36
ATOM     36  S   LIG    1        2.175   3.533  -7.094  0.00  0.00    -0.064 S 
BRANCH  36  37
ATOM     37  C   LIG    1        1.966   1.809  -6.799  0.00  0.00    +0.140 A 
ATOM     38  S   LIG    1        2.639   0.642  -7.860  0.00  0.00    -0.069 S 
ATOM     39  C   LIG    1        2.182  -0.591  -6.762  0.00  0.00    +0.076 A 
ATOM     40  C   LIG    1        1.532  -0.049  -5.668  0.00  0.00    +0.080 A 
ATOM     41  N   LIG    1        1.348   1.323  -5.738  0.00  0.00    -0.232 NA
BRANCH  40  42
ATOM     42  C   LIG    1        1.091  -0.817  -4.500  0.00  0.00    +0.012 A 
ATOM     43  C   LIG    1        0.369  -0.210  -3.468  0.00  0.00    +0.080 A 
ATOM     44  C   LIG    1        0.002  -0.946  -2.345  0.00  0.00    +0.309 A 
ATOM     45  N   LIG    1        0.274  -2.267  -2.270  0.00  0.00    -0.206 N 
ATOM     46  C   LIG    1       -0.204  -3.048  -1.117  0.00  0.00    +0.438 C 
ATOM     47  C   LIG    1        0.957  -2.885  -3.256  0.00  0.00    +0.309 A 
ATOM     48  C   LIG    1        1.390  -2.175  -4.370  0.00  0.00    +0.080 A 
ENDBRANCH  40  42
ENDBRANCH  36  37
ENDBRANCH   5  36
TORSDOF 14
