REMARK  Name = *****
REMARK                            x       y       z     vdW  Elec       q    Type
REMARK                         _______ _______ _______ _____ _____    ______ ____
ROOT
ATOM      1  C   LIG    1       -3.198   0.685   0.911  0.00  0.00    +0.115 C 
ATOM      2  C   LIG    1       -3.805   2.110   0.934  0.00  0.00    +0.153 C 
ATOM      3  C   LIG    1       -4.946   2.297  -0.095  0.00  0.00    +0.115 C 
ATOM      4  C   LIG    1       -6.045   1.215   0.120  0.00  0.00    +0.173 C 
ATOM      5  C   LIG    1       -5.471  -0.202   0.123  0.00  0.00    +0.182 C 
ATOM      6  O   LIG    1       -4.989  -0.503  -1.200  0.00  0.00    -0.338 OA
ATOM      7  C   LIG    1       -6.102  -0.581  -2.106  0.00  0.00    +0.319 C 
ATOM      8  C   LIG    1       -6.934   0.749  -2.102  0.00  0.00    +0.281 C 
ATOM      9  C   LIG    1       -6.377   1.673  -3.200  0.00  0.00    +0.200 C 
ATOM     10  O   LIG    1       -6.247   2.887  -3.036  0.00  0.00    -0.291 OA
ATOM     11  C   LIG    1       -6.066   1.042  -4.541  0.00  0.00    +0.111 C 
ATOM     12  C   LIG    1       -6.279  -0.465  -4.493  0.00  0.00    +0.126 C 
ATOM     13  C   LIG    1       -5.732  -1.139  -5.745  0.00  0.00    +0.038 C 
ATOM     14  O   LIG    1       -5.567  -0.981  -3.374  0.00  0.00    -0.343 OA
ATOM     15  O   LIG    1       -7.127   1.334  -0.823  0.00  0.00    -0.331 OA
ATOM     16  C   LIG    1       -4.323  -0.364   1.127  0.00  0.00    +0.165 C 
ENDROOT
BRANCH   1  18
ATOM     17  C   LIG    1       -1.023   1.389   1.839  0.00  0.00    +0.101 C 
ATOM     18  N   LIG    1       -2.154   0.480   1.947  0.00  0.00    -0.312 NA
ATOM     19  H   LIG    1       -2.594   0.615   2.862  0.00  0.00    +0.122 HD
ENDBRANCH   1  18
BRANCH   3  20
ATOM     20  N   LIG    1       -5.590   3.634   0.046  0.00  0.00    -0.312 NA
ATOM     21  H   LIG    1       -6.338   3.673  -0.659  0.00  0.00    +0.122 HD
ATOM     22  C   LIG    1       -4.683   4.747  -0.213  0.00  0.00    +0.101 C 
ENDBRANCH   3  20
BRANCH   2  23
ATOM     23  O   LIG    1       -4.314   2.401   2.247  0.00  0.00    -0.389 OA
ATOM     24  H   LIG    1       -4.880   3.193   2.126  0.00  0.00    +0.210 HD
ENDBRANCH   2  23
BRANCH   8  25
ATOM     25  O   LIG    1       -8.275   0.471  -2.540  0.00  0.00    -0.355 OA
ATOM     26  H   LIG    1       -8.754   1.295  -2.334  0.00  0.00    +0.213 HD
ENDBRANCH   8  25
BRANCH  16  27
ATOM     27  O   LIG    1       -3.820  -1.704   1.007  0.00  0.00    -0.388 OA
ATOM     28  H   LIG    1       -3.414  -1.767   0.123  0.00  0.00    +0.210 HD
ENDBRANCH  16  27
TORSDOF 5
