REMARK  Name = *****
REMARK                            x       y       z     vdW  Elec       q    Type
REMARK                         _______ _______ _______ _____ _____    ______ ____
ROOT
ATOM      1  C   LIG    1       -1.207  -5.608   7.153  0.00  0.00    +0.082 C 
ATOM      2  C   LIG    1        0.107  -5.654   6.335  0.00  0.00    +0.066 C 
ATOM      3  C   LIG    1        0.164  -4.589   5.224  0.00  0.00    +0.157 C 
ATOM      4  C   LIG    1       -0.988  -4.859   4.277  0.00  0.00    +0.030 A 
ATOM      5  C   LIG    1       -2.237  -5.269   4.785  0.00  0.00    +0.006 A 
ATOM      6  C   LIG    1       -3.333  -5.333   3.919  0.00  0.00    +0.132 A 
ATOM      7  C   LIG    1       -3.189  -5.086   2.547  0.00  0.00    +0.078 A 
ATOM      8  C   LIG    1       -4.357  -5.171   1.657  0.00  0.00    +0.198 C 
ATOM      9  O   LIG    1       -5.482  -5.326   2.141  0.00  0.00    -0.286 OA
ATOM     10  C   LIG    1       -4.177  -5.097   0.204  0.00  0.00    +0.033 A 
ATOM     11  C   LIG    1       -2.913  -4.855  -0.330  0.00  0.00    +0.033 A 
ATOM     12  C   LIG    1       -2.742  -4.822  -1.718  0.00  0.00    +0.012 A 
ATOM     13  C   LIG    1       -3.837  -5.027  -2.561  0.00  0.00    +0.001 A 
ATOM     14  C   LIG    1       -5.104  -5.258  -2.022  0.00  0.00    +0.001 A 
ATOM     15  C   LIG    1       -1.764  -4.640   0.565  0.00  0.00    +0.198 C 
ATOM     16  O   LIG    1       -0.655  -4.353   0.106  0.00  0.00    -0.286 OA
ATOM     17  C   LIG    1       -5.278  -5.292  -0.642  0.00  0.00    +0.012 A 
ATOM     18  C   LIG    1       -1.932  -4.792   2.024  0.00  0.00    +0.078 A 
ATOM     19  C   LIG    1       -0.838  -4.669   2.892  0.00  0.00    +0.135 A 
ATOM     20  C   LIG    1       -2.414  -5.770   6.208  0.00  0.00    +0.069 C 
ENDROOT
BRANCH   1  22
ATOM     21  C   LIG    1       -2.376  -6.871   9.144  0.00  0.00    +0.088 C 
ATOM     22  C   LIG    1       -1.202  -6.761   8.197  0.00  0.00    +0.150 C 
ATOM     23  O   LIG    1       -0.269  -7.565   8.284  0.00  0.00    -0.296 OA
ENDBRANCH   1  22
BRANCH   1  24
ATOM     24  N   LIG    1       -1.356  -4.339   7.906  0.00  0.00    -0.318 NA
ATOM     25  H   LIG    1       -0.475  -4.137   8.382  0.00  0.00    +0.119 HD
ATOM     26  H   LIG    1       -1.427  -3.584   7.213  0.00  0.00    +0.119 HD
ENDBRANCH   1  24
BRANCH   6  27
ATOM     27  O   LIG    1       -4.540  -5.682   4.473  0.00  0.00    -0.506 OA
ATOM     28  H   LIG    1       -5.238  -5.600   3.786  0.00  0.00    +0.292 HD
ENDBRANCH   6  27
BRANCH  19  29
ATOM     29  O   LIG    1        0.418  -4.375   2.428  0.00  0.00    -0.506 OA
ATOM     30  H   LIG    1        0.390  -4.272   1.450  0.00  0.00    +0.292 HD
ENDBRANCH  19  29
BRANCH   3  31
ATOM     31  O   LIG    1        0.051  -3.275   5.806  0.00  0.00    -0.343 OA
BRANCH  31  32
ATOM     32  C   LIG    1        0.160  -2.175   4.884  0.00  0.00    +0.253 C 
ATOM     33  O   LIG    1        1.433  -2.184   4.237  0.00  0.00    -0.349 OA
ATOM     34  C   LIG    1        1.628  -1.064   3.377  0.00  0.00    +0.196 C 
ATOM     35  C   LIG    1        1.658   0.222   4.199  0.00  0.00    +0.169 C 
ATOM     36  C   LIG    1        0.320   0.368   4.928  0.00  0.00    +0.150 C 
ATOM     37  C   LIG    1       -0.014  -0.894   5.714  0.00  0.00    +0.095 C 
BRANCH  35  38
ATOM     38  O   LIG    1        1.870   1.367   3.370  0.00  0.00    -0.387 OA
ATOM     39  H   LIG    1        2.783   1.309   3.032  0.00  0.00    +0.210 HD
ENDBRANCH  35  38
BRANCH  36  40
ATOM     40  O   LIG    1       -0.714   0.638   3.973  0.00  0.00    -0.389 OA
ATOM     41  H   LIG    1       -0.353   1.358   3.413  0.00  0.00    +0.210 HD
ENDBRANCH  36  40
ENDBRANCH  31  32
ENDBRANCH   3  31
TORSDOF 8
