REMARK  Name = *****
REMARK                            x       y       z     vdW  Elec       q    Type
REMARK                         _______ _______ _______ _____ _____    ______ ____
ROOT
ATOM      1  C   LIG    1        3.196   3.701  -0.186  0.00  0.00    +0.011 C 
ATOM      2  C   LIG    1        1.716   3.547   0.139  0.00  0.00    +0.026 C 
ATOM      3  C   LIG    1        1.313   3.643   1.629  0.00  0.00    +0.133 C 
ATOM      4  C   LIG    1       -0.141   3.032   1.583  0.00  0.00    +0.009 C 
ATOM      5  C   LIG    1        0.065   1.780   0.694  0.00  0.00    +0.005 C 
ATOM      6  C   LIG    1       -1.194   1.130   0.080  0.00  0.00    +0.036 C 
ATOM      7  C   LIG    1       -2.450   2.029   0.033  0.00  0.00    +0.153 C 
ATOM      8  C   LIG    1       -2.029   3.485  -0.211  0.00  0.00    +0.154 C 
ATOM      9  F   LIG    1       -2.997   2.020   1.301  0.00  0.00    -0.238 F 
ATOM     10  C   LIG    1       -3.545   1.386  -0.917  0.00  0.00    +0.047 C 
ATOM     11  C   LIG    1       -3.442  -0.152  -0.816  0.00  0.00    -0.020 C 
ATOM     12  C   LIG    1       -3.600  -0.979  -1.865  0.00  0.00    +0.054 C 
ATOM     13  C   LIG    1       -3.792  -0.450  -3.229  0.00  0.00    +0.179 C 
ATOM     14  C   LIG    1       -3.583   1.000  -3.422  0.00  0.00    +0.047 C 
ATOM     15  O   LIG    1       -4.044  -1.190  -4.176  0.00  0.00    -0.288 OA
ATOM     16  C   LIG    1       -2.986  -0.671   0.522  0.00  0.00    +0.194 C 
ATOM     17  F   LIG    1       -2.995  -2.034   0.568  0.00  0.00    -0.241 F 
ATOM     18  C   LIG    1       -4.967   1.782  -0.448  0.00  0.00    +0.023 C 
ATOM     19  C   LIG    1       -3.441   1.824  -2.373  0.00  0.00    -0.009 C 
ATOM     20  C   LIG    1       -1.551  -0.199   0.797  0.00  0.00    +0.048 C 
ATOM     21  C   LIG    1       -0.639   2.663   2.997  0.00  0.00    +0.015 C 
ATOM     22  C   LIG    1       -1.171   4.032   0.948  0.00  0.00    +0.044 C 
ATOM     23  C   LIG    1        1.105   2.229  -0.366  0.00  0.00    +0.011 C 
ENDROOT
BRANCH   3  24
ATOM     24  O   LIG    1        1.280   5.017   1.999  0.00  0.00    -0.380 OA
ATOM     25  H   LIG    1        0.758   5.109   2.817  0.00  0.00    +0.211 HD
ENDBRANCH   3  24
BRANCH   3  26
ATOM     26  C   LIG    1        2.322   2.858   2.536  0.00  0.00    +0.180 C 
ATOM     27  O   LIG    1        2.277   1.633   2.678  0.00  0.00    -0.293 OA
BRANCH  26  28
ATOM     28  C   LIG    1        3.410   3.642   3.232  0.00  0.00    +0.186 C 
ATOM     29 CL   LIG    1        2.805   4.186   4.806  0.00  0.00    -0.117 Cl
ENDBRANCH  26  28
ENDBRANCH   3  26
BRANCH   8  30
ATOM     30  O   LIG    1       -3.150   4.354  -0.372  0.00  0.00    -0.389 OA
ATOM     31  H   LIG    1       -3.649   4.348   0.467  0.00  0.00    +0.210 HD
ENDBRANCH   8  30
TORSDOF 4
