REMARK  Name = *****
REMARK                            x       y       z     vdW  Elec       q    Type
REMARK                         _______ _______ _______ _____ _____    ______ ____
ROOT
ATOM      1  N   LIG    1        1.021   0.052  -0.106  0.00  0.00    -0.314 N 
ATOM      2  H   LIG    1        0.510  -0.742   0.255  0.00  0.00    +0.146 HD
ATOM      3  H   LIG    1        0.513   0.843  -0.465  0.00  0.00    +0.146 HD
ATOM      4  C   LIG    1        2.365  -0.011  -0.077  0.00  0.00    +0.294 C 
ATOM      5  O   LIG    1        2.975  -0.974   0.360  0.00  0.00    -0.253 OA
ATOM      6  N   LIG    1        2.977   1.081  -0.572  0.00  0.00    -0.314 N 
ATOM      7  H   LIG    1        3.987   1.087  -0.575  0.00  0.00    +0.146 HD
ATOM      8  H   LIG    1        2.478   1.876  -0.933  0.00  0.00    +0.146 HD
ENDROOT
TORSDOF 0
