REMARK  Name = *****
REMARK                            x       y       z     vdW  Elec       q    Type
REMARK                         _______ _______ _______ _____ _____    ______ ____
ROOT
ATOM      1  C   LIG    1        2.951   0.447   1.248  0.00  0.00    -0.031 A 
ATOM      2  C   LIG    1        2.773   1.852   1.398  0.00  0.00    +0.007 A 
ATOM      3  C   LIG    1        3.234   2.471   2.605  0.00  0.00    +0.072 A 
ATOM      4  C   LIG    1        3.092   3.834   2.770  0.00  0.00    +0.032 A 
ATOM      5  C   LIG    1        2.500   4.629   1.798  0.00  0.00    +0.048 A 
ATOM      6  C   LIG    1        1.996   4.041   0.652  0.00  0.00    +0.134 A 
ATOM      7  N   LIG    1        3.805   1.810   3.617  0.00  0.00    -0.245 NA
ATOM      8  C   LIG    1        3.928   0.496   3.438  0.00  0.00    +0.093 A 
ATOM      9  C   LIG    1        4.425  -0.446   4.429  0.00  0.00    +0.071 C 
ATOM     10  N   LIG    1        4.329  -1.715   3.898  0.00  0.00    -0.302 N 
ATOM     11  C   LIG    1        3.803  -1.683   2.532  0.00  0.00    +0.163 C 
ATOM     12  C   LIG    1        4.673  -2.856   4.571  0.00  0.00    +0.259 C 
ATOM     13  O   LIG    1        4.586  -3.984   4.099  0.00  0.00    -0.267 OA
ATOM     14  C   LIG    1        5.158  -2.636   5.971  0.00  0.00    +0.061 C 
ATOM     15  C   LIG    1        5.485  -3.865   6.741  0.00  0.00    +0.273 C 
ATOM     16  O   LIG    1        5.828  -3.640   8.121  0.00  0.00    -0.458 OA
ATOM     17  C   LIG    1        6.336  -2.451   8.513  0.00  0.00    +0.344 C 
ATOM     18  C   LIG    1        5.730  -1.173   7.887  0.00  0.00    +0.188 C 
ATOM     19  O   LIG    1        7.171  -2.382   9.415  0.00  0.00    -0.247 OA
ATOM     20  C   LIG    1        5.259  -1.393   6.477  0.00  0.00    +0.008 C 
ATOM     21  C   LIG    1        4.887  -0.241   5.665  0.00  0.00    +0.035 C 
ATOM     22  C   LIG    1        2.146   2.670   0.432  0.00  0.00    +0.056 A 
ATOM     23  C   LIG    1        3.534  -0.223   2.315  0.00  0.00    +0.004 A 
ENDROOT
BRANCH   1  25
ATOM     24  C   LIG    1        3.694  -0.392  -1.005  0.00  0.00    +0.009 C 
ATOM     25  C   LIG    1        2.559  -0.318   0.008  0.00  0.00    +0.033 C 
ENDBRANCH   1  25
BRANCH  18  26
ATOM     26  O   LIG    1        6.778  -0.187   7.845  0.00  0.00    -0.373 OA
ATOM     27  H   LIG    1        7.320  -0.331   8.648  0.00  0.00    +0.211 HD
ENDBRANCH  18  26
BRANCH  18  28
ATOM     28  C   LIG    1        4.625  -0.628   8.820  0.00  0.00    +0.048 C 
ATOM     29  C   LIG    1        3.451  -1.573   9.049  0.00  0.00    +0.007 C 
ENDBRANCH  18  28
BRANCH   6  30
ATOM     30  O   LIG    1        1.336   4.760  -0.361  0.00  0.00    -0.411 OA
BRANCH  30  31
ATOM     31  C   LIG    1        0.724   6.002  -0.147  0.00  0.00    +0.408 C 
ATOM     32  N   LIG    1        0.133   6.490  -1.298  0.00  0.00    -0.267 N 
ATOM     33  C   LIG    1       -0.312   7.868  -1.350  0.00  0.00    +0.112 C 
ATOM     34  C   LIG    1        0.588   8.680  -2.281  0.00  0.00    +0.038 C 
ATOM     35  C   LIG    1        0.735   8.026  -3.684  0.00  0.00    +0.060 C 
ATOM     36  C   LIG    1        1.139   6.539  -3.506  0.00  0.00    +0.038 C 
ATOM     37  C   LIG    1        0.188   5.808  -2.573  0.00  0.00    +0.112 C 
ATOM     38  O   LIG    1        0.699   6.600   0.915  0.00  0.00    -0.226 OA
BRANCH  35  39
ATOM     39  N   LIG    1        1.721   8.754  -4.526  0.00  0.00    -0.299 NA
ATOM     40  C   LIG    1        2.009   8.127  -5.829  0.00  0.00    +0.085 C 
ATOM     41  C   LIG    1        0.853   8.231  -6.826  0.00  0.00    +0.015 C 
ATOM     42  C   LIG    1        0.435   9.683  -7.036  0.00  0.00    +0.002 C 
ATOM     43  C   LIG    1        0.234  10.409  -5.708  0.00  0.00    +0.015 C 
ATOM     44  C   LIG    1        1.406  10.177  -4.751  0.00  0.00    +0.085 C 
ENDBRANCH  35  39
ENDBRANCH  30  31
ENDBRANCH   6  30
TORSDOF 6
