REMARK  Name = *****
REMARK                            x       y       z     vdW  Elec       q    Type
REMARK                         _______ _______ _______ _____ _____    ______ ____
ROOT
ATOM      1  C   LIG    1        6.199   2.316   2.366  0.00  0.00    +0.076 C 
ATOM      2  C   LIG    1        6.287   2.471   3.886  0.00  0.00    +0.026 C 
ATOM      3  C   LIG    1        6.124   1.166   4.689  0.00  0.00    -0.005 C 
ATOM      4  C   LIG    1        4.633   0.847   4.923  0.00  0.00    +0.019 C 
ATOM      5  C   LIG    1        4.504  -0.429   5.725  0.00  0.00    +0.105 C 
ATOM      6  C   LIG    1        5.117  -1.582   4.951  0.00  0.00    +0.050 C 
ATOM      7  C   LIG    1        6.634  -1.379   4.864  0.00  0.00    +0.023 C 
ATOM      8  C   LIG    1        4.481  -2.779   5.642  0.00  0.00    +0.178 C 
ATOM      9  C   LIG    1        5.114  -3.267   6.935  0.00  0.00    +0.052 C 
ATOM     10  O   LIG    1        3.141  -2.314   5.934  0.00  0.00    -0.461 OA
ATOM     11  C   LIG    1        3.115  -0.942   5.955  0.00  0.00    +0.311 C 
ATOM     12  O   LIG    1        2.126  -0.269   6.184  0.00  0.00    -0.251 OA
ATOM     13  C   LIG    1        6.950  -0.029   4.115  0.00  0.00    -0.000 C 
ATOM     14  C   LIG    1        6.829  -0.130   2.579  0.00  0.00    +0.006 C 
ATOM     15  C   LIG    1        7.123   1.200   1.889  0.00  0.00    +0.022 C 
ENDROOT
BRANCH   1  17
ATOM     16  C   LIG    1        3.993   3.152   1.626  0.00  0.00    +0.401 C 
ATOM     17  N   LIG    1        4.843   2.112   1.891  0.00  0.00    -0.278 N 
ATOM     18  H   LIG    1        4.515   1.190   1.618  0.00  0.00    +0.152 HD
ATOM     19  O   LIG    1        4.150   4.308   1.952  0.00  0.00    -0.227 OA
BRANCH  16  20
ATOM     20  O   LIG    1        2.969   2.656   0.868  0.00  0.00    -0.451 OA
BRANCH  20  22
ATOM     21  C   LIG    1        2.731   4.371  -0.855  0.00  0.00    +0.048 C 
ATOM     22  C   LIG    1        2.083   3.642   0.313  0.00  0.00    +0.230 C 
ENDBRANCH  20  22
ENDBRANCH  16  20
ENDBRANCH   1  17
BRANCH   7  23
ATOM     23  C   LIG    1        7.348  -2.559   4.254  0.00  0.00    -0.021 C 
ATOM     24  C   LIG    1        8.321  -3.243   4.880  0.00  0.00    +0.024 C 
BRANCH  24  25
ATOM     25  C   LIG    1        9.057  -4.367   4.287  0.00  0.00    +0.064 A 
ATOM     26  N   LIG    1        8.748  -4.724   3.026  0.00  0.00    -0.255 NA
ATOM     27  C   LIG    1        9.434  -5.767   2.486  0.00  0.00    +0.119 A 
ATOM     28  C   LIG    1       10.434  -6.513   3.120  0.00  0.00    +0.000 A 
ATOM     29  C   LIG    1       10.717  -6.091   4.429  0.00  0.00    +0.012 A 
ATOM     30  C   LIG    1       10.035  -5.021   5.016  0.00  0.00    +0.028 A 
BRANCH  28  31
ATOM     31  C   LIG    1       11.134  -7.657   2.467  0.00  0.00    -0.014 A 
ATOM     32  C   LIG    1       10.830  -8.072   1.155  0.00  0.00    +0.046 A 
ATOM     33  C   LIG    1       11.489  -9.147   0.558  0.00  0.00    +0.124 A 
ATOM     34  F   LIG    1       11.162  -9.502  -0.691  0.00  0.00    -0.205 F 
ATOM     35  C   LIG    1       12.472  -9.853   1.231  0.00  0.00    +0.038 A 
ATOM     36  C   LIG    1       12.801  -9.475   2.524  0.00  0.00    +0.003 A 
ATOM     37  C   LIG    1       12.142  -8.395   3.128  0.00  0.00    +0.009 A 
ENDBRANCH  28  31
ENDBRANCH  24  25
ENDBRANCH   7  23
TORSDOF 6
