REMARK  Name = *****
REMARK                            x       y       z     vdW  Elec       q    Type
REMARK                         _______ _______ _______ _____ _____    ______ ____
ROOT
ATOM      1  C   LIG    1       -3.526  -1.769  -1.636  0.00  0.00    +0.132 C 
ATOM      2  C   LIG    1       -3.365  -0.543  -2.603  0.00  0.00    +0.011 C 
ATOM      3  C   LIG    1       -1.858  -0.194  -2.769  0.00  0.00    +0.015 C 
ATOM      4  C   LIG    1       -4.033   0.653  -1.819  0.00  0.00    +0.002 C 
ATOM      5  C   LIG    1       -5.243   1.341  -2.460  0.00  0.00    -0.003 C 
ATOM      6  C   LIG    1       -5.166   1.317  -4.009  0.00  0.00    +0.003 C 
ATOM      7  C   LIG    1       -5.146  -0.160  -4.410  0.00  0.00    +0.005 C 
ATOM      8  C   LIG    1       -4.369   2.469  -4.814  0.00  0.00    -0.004 C 
ATOM      9  C   LIG    1       -4.513   2.110  -6.323  0.00  0.00    +0.016 C 
ATOM     10  C   LIG    1       -5.193   3.588  -4.147  0.00  0.00    -0.059 C 
ATOM     11  C   LIG    1       -5.495   4.651  -4.907  0.00  0.00    +0.049 C 
ATOM     12  C   LIG    1       -4.335   5.450  -4.808  0.00  0.00    +0.163 A 
ATOM     13  C   LIG    1       -3.060   4.869  -4.824  0.00  0.00    +0.019 A 
ATOM     14  C   LIG    1       -2.238   6.014  -4.736  0.00  0.00    +0.161 A 
ATOM     15  N   LIG    1       -2.923   7.102  -4.352  0.00  0.00    -0.086 NA
ATOM     16  O   LIG    1       -4.254   6.735  -4.387  0.00  0.00    -0.355 OA
ATOM     17  C   LIG    1       -4.772   3.761  -2.661  0.00  0.00    +0.032 C 
ATOM     18  C   LIG    1       -2.876   3.259  -4.776  0.00  0.00    +0.051 C 
ATOM     19  C   LIG    1       -5.519   2.733  -1.870  0.00  0.00    +0.008 C 
ATOM     20  C   LIG    1       -4.425   0.094  -0.431  0.00  0.00    +0.008 C 
ATOM     21  C   LIG    1       -3.846  -0.822  -4.053  0.00  0.00    +0.011 C 
ATOM     22  C   LIG    1       -3.533  -1.117  -0.246  0.00  0.00    +0.049 C 
ENDROOT
BRANCH   1  24
ATOM     23  C   LIG    1       -5.740  -3.241  -2.095  0.00  0.00    +0.007 C 
ATOM     24  C   LIG    1       -4.754  -2.538  -1.855  0.00  0.00    -0.070 C 
ENDBRANCH   1  24
BRANCH   1  25
ATOM     25  O   LIG    1       -2.442  -2.672  -1.782  0.00  0.00    -0.376 OA
ATOM     26  H   LIG    1       -1.946  -2.694  -0.947  0.00  0.00    +0.211 HD
ENDBRANCH   1  25
TORSDOF 2
