REMARK  Name = *****
REMARK                            x       y       z     vdW  Elec       q    Type
REMARK                         _______ _______ _______ _____ _____    ______ ____
ROOT
ATOM      1  C   LIG    1        5.105  -2.310   1.955  0.00  0.00    +0.092 A 
ATOM      2  C   LIG    1        5.972  -1.957   3.043  0.00  0.00    +0.044 A 
ATOM      3  I   LIG    1        7.174  -0.073   2.913  0.00  0.00    -0.041 I 
ATOM      4  C   LIG    1        6.138  -2.774   4.205  0.00  0.00    -0.018 A 
ATOM      5  C   LIG    1        5.373  -3.959   4.250  0.00  0.00    +0.019 A 
ATOM      6  I   LIG    1        5.015  -5.074   6.011  0.00  0.00    -0.043 I 
ATOM      7  C   LIG    1        4.666  -4.413   3.132  0.00  0.00    +0.031 A 
ATOM      8  C   LIG    1        4.542  -3.603   1.998  0.00  0.00    +0.041 A 
ATOM      9  I   LIG    1        3.448  -4.451   0.404  0.00  0.00    -0.042 I 
ENDROOT
BRANCH   1  11
ATOM     10  C   LIG    1        4.481  -0.230   1.114  0.00  0.00    +0.184 C 
ATOM     11  N   LIG    1        4.808  -1.453   0.850  0.00  0.00    -0.238 NA
BRANCH  10  13
ATOM     12  C   LIG    1        4.258   0.659  -1.175  0.00  0.00    +0.130 C 
ATOM     13  N   LIG    1        4.169   0.809   0.265  0.00  0.00    -0.327 N 
ATOM     14  C   LIG    1        4.107   2.170   0.782  0.00  0.00    +0.130 C 
ENDBRANCH  10  13
ENDBRANCH   1  11
BRANCH   4  15
ATOM     15  C   LIG    1        7.060  -2.373   5.347  0.00  0.00    +0.048 C 
BRANCH  15  16
ATOM     16  C   LIG    1        8.260  -3.275   5.667  0.00  0.00    +0.125 C 
BRANCH  16  17
ATOM     17  C   LIG    1        9.305  -3.374   4.571  0.00  0.00    +0.305 C 
ATOM     18  O   LIG    1        9.141  -3.966   3.540  0.00  0.00    -0.251 OA
BRANCH  17  19
ATOM     19  O   LIG    1       10.489  -2.779   4.885  0.00  0.00    -0.481 OA
ATOM     20  H   LIG    1       10.549  -2.366   5.761  0.00  0.00    +0.295 HD
ENDBRANCH  17  19
ENDBRANCH  16  17
ENDBRANCH  15  16
ENDBRANCH   4  15
TORSDOF 6
