REMARK  Name = *****
REMARK                            x       y       z     vdW  Elec       q    Type
REMARK                         _______ _______ _______ _____ _____    ______ ____
ROOT
ATOM      1  O   LIG    1        2.046  -0.864  -2.136  0.00  0.00    -0.458 OA
ENDROOT
BRANCH   1   3
ATOM      2  C   LIG    1        3.370   0.829  -1.029  0.00  0.00    +0.032 C 
ATOM      3  C   LIG    1        2.315   0.548  -2.135  0.00  0.00    +0.180 C 
ATOM      4  C   LIG    1        0.992   1.286  -1.882  0.00  0.00    +0.048 C 
ATOM      5  C   LIG    1        1.177   2.791  -1.686  0.00  0.00    -0.011 C 
ATOM      6  C   LIG    1        1.569   3.489  -2.991  0.00  0.00    +0.007 C 
ATOM      7  C   LIG    1        2.187   3.043  -0.564  0.00  0.00    +0.004 C 
ATOM      8  C   LIG    1        3.526   2.342  -0.791  0.00  0.00    +0.007 C 
BRANCH   2  10
ATOM      9  C   LIG    1        5.715   0.261  -0.136  0.00  0.00    +0.007 C 
ATOM     10  C   LIG    1        4.732   0.106  -1.304  0.00  0.00    -0.011 C 
ATOM     11  C   LIG    1        5.420   0.539  -2.603  0.00  0.00    +0.007 C 
ENDBRANCH   2  10
ENDBRANCH   1   3
BRANCH   1  12
ATOM     12  C   LIG    1        1.602  -1.426  -3.292  0.00  0.00    +0.341 C 
ATOM     13  O   LIG    1        1.452  -0.854  -4.354  0.00  0.00    -0.245 OA
BRANCH  12  14
ATOM     14  C   LIG    1        1.315  -2.873  -3.045  0.00  0.00    +0.080 A 
ATOM     15  C   LIG    1        0.729  -3.681  -4.043  0.00  0.00    +0.039 A 
ATOM     16  C   LIG    1        0.385  -5.000  -3.706  0.00  0.00    +0.023 A 
ATOM     17  C   LIG    1        0.684  -5.532  -2.449  0.00  0.00    +0.002 A 
ATOM     18  C   LIG    1        1.326  -4.753  -1.497  0.00  0.00    +0.001 A 
ATOM     19  C   LIG    1        1.644  -3.433  -1.795  0.00  0.00    +0.017 A 
BRANCH  15  20
ATOM     20  N   LIG    1        0.266  -3.176  -5.271  0.00  0.00    -0.357 N 
ATOM     21  H   LIG    1        0.716  -2.295  -5.536  0.00  0.00    +0.142 HD
ATOM     22  H   LIG    1        0.256  -3.851  -6.029  0.00  0.00    +0.142 HD
ENDBRANCH  15  20
ENDBRANCH  12  14
ENDBRANCH   1  12
TORSDOF 5
