REMARK  Name = *****
REMARK                            x       y       z     vdW  Elec       q    Type
REMARK                         _______ _______ _______ _____ _____    ______ ____
ROOT
ATOM      1  C   LIG    1        0.910   0.001   0.363  0.00  0.00    +0.040 C 
ATOM      2  C   LIG    1        2.427  -0.126   0.174  0.00  0.00    +0.116 C 
ENDROOT
BRANCH   2   3
ATOM      3  N   LIG    1        3.022   0.974   0.999  0.00  0.00    -0.316 NA
ATOM      4  H   LIG    1        2.773   0.818   1.978  0.00  0.00    +0.119 HD
ATOM      5  H   LIG    1        4.040   0.846   0.989  0.00  0.00    +0.119 HD
ENDBRANCH   2   3
BRANCH   2   6
ATOM      6  C   LIG    1        2.982  -1.471   0.706  0.00  0.00    +0.325 C 
ATOM      7  O   LIG    1        4.077  -1.559   1.262  0.00  0.00    -0.249 OA
BRANCH   6   8
ATOM      8  O   LIG    1        2.213  -2.561   0.514  0.00  0.00    -0.479 OA
ATOM      9  H   LIG    1        1.407  -2.418  -0.024  0.00  0.00    +0.295 HD
ENDBRANCH   6   8
ENDBRANCH   2   6
BRANCH   2  10
ATOM     10  C   LIG    1        2.889   0.105  -1.286  0.00  0.00    +0.068 C 
BRANCH  10  11
ATOM     11  C   LIG    1        2.393  -0.901  -2.301  0.00  0.00    -0.045 A 
ATOM     12  C   LIG    1        1.172  -0.704  -2.961  0.00  0.00    +0.007 A 
ATOM     13  C   LIG    1        0.705  -1.645  -3.877  0.00  0.00    +0.045 A 
ATOM     14  C   LIG    1        1.458  -2.782  -4.144  0.00  0.00    +0.117 A 
ATOM     15  C   LIG    1        2.683  -2.986  -3.518  0.00  0.00    +0.045 A 
ATOM     16  C   LIG    1        3.150  -2.045  -2.598  0.00  0.00    +0.007 A 
BRANCH  14  17
ATOM     17  O   LIG    1        0.953  -3.684  -5.031  0.00  0.00    -0.507 OA
ATOM     18  H   LIG    1        1.563  -4.438  -5.089  0.00  0.00    +0.292 HD
ENDBRANCH  14  17
ENDBRANCH  10  11
ENDBRANCH   2  10
TORSDOF 6
