REMARK  Name = *****
REMARK                            x       y       z     vdW  Elec       q    Type
REMARK                         _______ _______ _______ _____ _____    ______ ____
ROOT
ATOM      1  C   LIG    1        4.414   1.642   1.207  0.00  0.00    +0.013 C 
ENDROOT
BRANCH   1   2
ATOM      2  C   LIG    1        3.354   2.690   0.751  0.00  0.00    +0.008 C 
BRANCH   2   4
ATOM      3  C   LIG    1        1.306   3.308  -0.688  0.00  0.00    +0.007 C 
ATOM      4  C   LIG    1        2.345   2.229  -0.338  0.00  0.00    -0.017 C 
ATOM      5  C   LIG    1        3.053   1.818  -1.630  0.00  0.00    +0.007 C 
ENDBRANCH   2   4
ENDBRANCH   1   2
BRANCH   1   6
ATOM      6  C   LIG    1        3.778   0.335   1.720  0.00  0.00    +0.081 C 
BRANCH   6   7
ATOM      7  N   LIG    1        4.827  -0.600   2.142  0.00  0.00    -0.330 NA
ATOM      8  H   LIG    1        5.288  -1.003   1.319  0.00  0.00    +0.118 HD
ATOM      9  H   LIG    1        4.433  -1.392   2.655  0.00  0.00    +0.118 HD
ENDBRANCH   6   7
ENDBRANCH   1   6
BRANCH   1  10
ATOM     10  C   LIG    1        5.411   2.248   2.232  0.00  0.00    +0.125 C 
BRANCH  10  11
ATOM     11  C   LIG    1        4.816   2.712   3.537  0.00  0.00    +0.305 C 
ATOM     12  O   LIG    1        4.448   3.873   3.756  0.00  0.00    -0.251 OA
BRANCH  11  13
ATOM     13  O   LIG    1        4.736   1.744   4.472  0.00  0.00    -0.481 OA
ATOM     14  H   LIG    1        5.029   0.869   4.121  0.00  0.00    +0.295 HD
ENDBRANCH  11  13
ENDBRANCH  10  11
ENDBRANCH   1  10
TORSDOF 7
