REMARK  Name = *****
REMARK                            x       y       z     vdW  Elec       q    Type
REMARK                         _______ _______ _______ _____ _____    ______ ____
ROOT
ATOM      1  C   LIG    1       -4.983   7.955  -0.154  0.00  0.00    +0.239 C 
ATOM      2  N   LIG    1       -4.468   9.055  -0.770  0.00  0.00    -0.300 N 
ATOM      3  H   LIG    1       -4.851   9.908  -0.374  0.00  0.00    +0.150 HD
ATOM      4  O   LIG    1       -5.883   8.172   0.670  0.00  0.00    -0.273 OA
ENDROOT
BRANCH   2   5
ATOM      5  CA  LIG    1       -3.605   9.161  -1.969  0.00  0.00    +0.191 C 
ATOM      6  C   LIG    1       -2.853  10.536  -2.134  0.00  0.00    +0.169 C 
ATOM      7  N   LIG    1       -1.644   9.765  -2.332  0.00  0.00    -0.249 N 
ATOM      8  CA  LIG    1       -0.358  10.220  -2.162  0.00  0.00    +0.123 C 
ATOM      9  C   LIG    1       -0.110  11.451  -1.639  0.00  0.00    -0.021 C 
ATOM     10  C   LIG    1       -1.207  12.380  -1.150  0.00  0.00    +0.104 C 
ATOM     11  S   LIG    1       -2.713  11.534  -0.620  0.00  0.00    -0.131 S 
ATOM     12  C   LIG    1       -2.165   8.577  -1.919  0.00  0.00    +0.244 C 
ATOM     13  O   LIG    1       -1.648   7.551  -1.526  0.00  0.00    -0.273 OA
BRANCH   8  14
ATOM     14  C   LIG    1        0.672   9.272  -2.716  0.00  0.00    +0.351 C 
ATOM     15  O   LIG    1        0.437   8.369  -3.503  0.00  0.00    -0.244 OA
BRANCH  14  16
ATOM     16  OXT LIG    1        1.938   9.503  -2.348  0.00  0.00    -0.476 OA
ATOM     17  HXT LIG    1        2.430   8.801  -2.825  0.00  0.00    +0.295 HD
ENDBRANCH  14  16
ENDBRANCH   8  14
BRANCH   9  18
ATOM     18  C   LIG    1        1.267  12.061  -1.426  0.00  0.00    +0.111 C 
BRANCH  18  19
ATOM     19  S   LIG    1        1.776  12.964  -2.920  0.00  0.00    -0.080 S 
BRANCH  19  20
ATOM     20  C   LIG    1        3.335  13.516  -2.424  0.00  0.00    +0.209 A 
ATOM     21  N   LIG    1        4.370  13.764  -3.276  0.00  0.00    -0.223 N 
ATOM     22  C   LIG    1        4.439  13.686  -4.708  0.00  0.00    +0.177 C 
ATOM     23  N   LIG    1        5.440  14.176  -2.571  0.00  0.00    -0.043 NA
ATOM     24  N   LIG    1        5.038  14.188  -1.307  0.00  0.00    -0.022 NA
ATOM     25  N   LIG    1        3.728  13.780  -1.199  0.00  0.00    -0.102 NA
ENDBRANCH  19  20
ENDBRANCH  18  19
ENDBRANCH   9  18
ENDBRANCH   2   5
BRANCH   1  26
ATOM     26  CA  LIG    1       -4.570   6.511  -0.542  0.00  0.00    +0.191 C 
BRANCH  26  34
ATOM     27  N   LIG    1       -9.625   3.873  -3.577  0.00  0.00    -0.292 N 
ATOM     28  C   LIG    1       -9.165   4.913  -4.381  0.00  0.00    +0.302 C 
ATOM     29  O   LIG    1       -9.825   5.408  -5.285  0.00  0.00    -0.265 OA
ATOM     30  C   LIG    1       -7.734   5.437  -4.090  0.00  0.00    +0.309 C 
ATOM     31  O   LIG    1       -7.092   5.856  -5.047  0.00  0.00    -0.265 OA
ATOM     32  N   LIG    1       -7.276   5.318  -2.768  0.00  0.00    -0.217 N 
ATOM     33  C   LIG    1       -6.115   5.978  -2.388  0.00  0.00    +0.310 C 
ATOM     34  N   LIG    1       -5.794   5.883  -1.051  0.00  0.00    -0.284 N 
ATOM     35  H   LIG    1       -6.558   5.951  -0.394  0.00  0.00    +0.151 HD
ATOM     36  O   LIG    1       -5.363   6.582  -3.148  0.00  0.00    -0.252 OA
ATOM     37  C   LIG    1       -8.118   4.603  -1.810  0.00  0.00    +0.137 C 
ATOM     38  C   LIG    1       -8.830   3.422  -2.456  0.00  0.00    +0.127 C 
BRANCH  27  40
ATOM     39  C   LIG    1      -12.059   3.783  -3.173  0.00  0.00    +0.024 C 
ATOM     40  C   LIG    1      -10.868   3.184  -3.902  0.00  0.00    +0.105 C 
ENDBRANCH  27  40
ENDBRANCH  26  34
BRANCH  26  41
ATOM     41  C   LIG    1       -4.054   5.673   0.631  0.00  0.00    -0.018 A 
ATOM     42  C   LIG    1       -4.499   5.860   1.952  0.00  0.00    +0.009 A 
ATOM     43  C   LIG    1       -4.067   5.033   2.990  0.00  0.00    +0.045 A 
ATOM     44  C   LIG    1       -3.191   3.994   2.723  0.00  0.00    +0.117 A 
ATOM     45  C   LIG    1       -2.728   3.777   1.430  0.00  0.00    +0.045 A 
ATOM     46  C   LIG    1       -3.161   4.611   0.389  0.00  0.00    +0.009 A 
BRANCH  44  47
ATOM     47  O   LIG    1       -2.817   3.202   3.766  0.00  0.00    -0.507 OA
ATOM     48  H   LIG    1       -2.212   2.518   3.435  0.00  0.00    +0.292 HD
ENDBRANCH  44  47
ENDBRANCH  26  41
ENDBRANCH   1  26
TORSDOF 11
