REMARK  Name = *****
REMARK                            x       y       z     vdW  Elec       q    Type
REMARK                         _______ _______ _______ _____ _____    ______ ____
ROOT
ATOM      1  C   LIG    1        4.449   0.436   2.228  0.00  0.00    +0.062 A 
ATOM      2  C   LIG    1        5.120   1.309   1.344  0.00  0.00    +0.051 A 
ATOM      3  I   LIG    1        3.924   2.898   0.508  0.00  0.00    -0.041 I 
ATOM      4  C   LIG    1        6.484   1.120   1.056  0.00  0.00    +0.089 A 
ATOM      5  C   LIG    1        7.180   0.044   1.659  0.00  0.00    +0.051 A 
ATOM      6  I   LIG    1        9.087  -0.649   0.860  0.00  0.00    -0.041 I 
ATOM      7  C   LIG    1        6.546  -0.754   2.665  0.00  0.00    +0.062 A 
ATOM      8  C   LIG    1        5.196  -0.504   2.959  0.00  0.00    +0.058 A 
ATOM      9  I   LIG    1        4.386  -1.250   4.824  0.00  0.00    -0.040 I 
ENDROOT
BRANCH   1  12
ATOM     10  C   LIG    1        0.787  -0.390   2.107  0.00  0.00    +0.109 C 
ATOM     11  C   LIG    1        2.272  -0.631   2.029  0.00  0.00    +0.214 C 
ATOM     12  N   LIG    1        3.030   0.494   2.345  0.00  0.00    -0.284 N 
ATOM     13  H   LIG    1        2.593   1.366   2.064  0.00  0.00    +0.155 HD
ATOM     14  O   LIG    1        2.736  -1.700   1.647  0.00  0.00    -0.276 OA
ENDBRANCH   1  12
BRANCH   7  15
ATOM     15  N   LIG    1        7.180  -1.843   3.327  0.00  0.00    -0.284 N 
ATOM     16  H   LIG    1        6.550  -2.550   3.696  0.00  0.00    +0.155 HD
ATOM     17  C   LIG    1        8.333  -1.669   4.081  0.00  0.00    +0.214 C 
ATOM     18  O   LIG    1        8.879  -0.596   4.284  0.00  0.00    -0.276 OA
ATOM     19  C   LIG    1        8.874  -2.962   4.642  0.00  0.00    +0.109 C 
ENDBRANCH   7  15
BRANCH   4  20
ATOM     20  C   LIG    1        7.216   2.076   0.163  0.00  0.00    +0.339 C 
ATOM     21  O   LIG    1        8.356   2.458   0.459  0.00  0.00    -0.245 OA
BRANCH  20  22
ATOM     22  O   LIG    1        6.608   2.470  -0.969  0.00  0.00    -0.477 OA
ATOM     23  H   LIG    1        5.674   2.325  -0.973  0.00  0.00    +0.295 HD
ENDBRANCH  20  22
ENDBRANCH   4  20
TORSDOF 4
