REMARK  Name = *****
REMARK                            x       y       z     vdW  Elec       q    Type
REMARK                         _______ _______ _______ _____ _____    ______ ____
ROOT
ATOM      1  C   LIG    1       -3.066  -0.136   1.613  0.00  0.00    +0.129 C 
ATOM      2  C   LIG    1       -4.584  -0.492   1.473  0.00  0.00    +0.007 C 
ATOM      3  C   LIG    1       -4.961  -0.910   0.039  0.00  0.00    +0.014 C 
ATOM      4  C   LIG    1       -5.274   0.810   1.915  0.00  0.00    +0.005 C 
ATOM      5  C   LIG    1       -6.798   0.701   2.173  0.00  0.00    +0.021 C 
ATOM      6  C   LIG    1       -7.346  -0.596   2.836  0.00  0.00    +0.007 C 
ATOM      7  C   LIG    1       -6.489  -1.850   2.554  0.00  0.00    +0.005 C 
ATOM      8  C   LIG    1       -7.882  -0.446   4.319  0.00  0.00    +0.001 C 
ATOM      9  C   LIG    1       -6.755  -0.293   5.368  0.00  0.00    +0.017 C 
ATOM     10  C   LIG    1       -8.762   0.822   4.426  0.00  0.00    -0.020 C 
ATOM     11  C   LIG    1       -9.951   0.845   5.061  0.00  0.00    +0.052 C 
ATOM     12  C   LIG    1      -10.576  -0.339   5.682  0.00  0.00    +0.160 C 
ATOM     13  O   LIG    1      -11.602  -0.252   6.341  0.00  0.00    -0.292 OA
ATOM     14  C   LIG    1       -9.944  -1.647   5.431  0.00  0.00    +0.064 C 
ATOM     15  C   LIG    1       -9.902  -2.187   4.020  0.00  0.00    +0.016 C 
ATOM     16  C   LIG    1       -8.228   2.020   3.783  0.00  0.00    +0.041 C 
ATOM     17 CL   LIG    1       -8.705   3.593   4.348  0.00  0.00    -0.084 Cl
ATOM     18  C   LIG    1       -8.630  -1.739   4.700  0.00  0.00    +0.011 C 
ATOM     19  C   LIG    1       -7.343   1.965   2.779  0.00  0.00    -0.003 C 
ATOM     20  C   LIG    1       -4.400   1.326   3.072  0.00  0.00    +0.008 C 
ATOM     21  C   LIG    1       -4.985  -1.626   2.452  0.00  0.00    +0.010 C 
ATOM     22  C   LIG    1       -3.007   0.709   2.896  0.00  0.00    +0.043 C 
ENDROOT
BRANCH   1  24
ATOM     23  C   LIG    1       -0.954   0.569   0.243  0.00  0.00    +0.089 C 
ATOM     24  C   LIG    1       -2.439   0.720   0.474  0.00  0.00    +0.162 C 
ATOM     25  O   LIG    1       -3.082   1.539  -0.184  0.00  0.00    -0.295 OA
ENDBRANCH   1  24
BRANCH   1  26
ATOM     26  O   LIG    1       -2.291  -1.319   1.796  0.00  0.00    -0.381 OA
ATOM     27  H   LIG    1       -2.471  -1.915   1.047  0.00  0.00    +0.211 HD
ENDBRANCH   1  26
TORSDOF 2
