REMARK  Name = *****
REMARK                            x       y       z     vdW  Elec       q    Type
REMARK                         _______ _______ _______ _____ _____    ______ ____
ROOT
ATOM      1  C   LIG    1        0.963   0.017   0.050  0.00  0.00    +0.044 C 
ATOM      2  C   LIG    1        2.453  -0.082  -0.071  0.00  0.00    -0.047 A 
ATOM      3  C   LIG    1        3.103  -1.298   0.157  0.00  0.00    +0.049 A 
ATOM      4  C   LIG    1        4.490  -1.410   0.016  0.00  0.00    +0.120 A 
ATOM      5  C   LIG    1        5.273  -0.312  -0.368  0.00  0.00    -0.003 A 
ATOM      6  C   LIG    1        4.601   0.903  -0.609  0.00  0.00    +0.008 A 
ATOM      7  C   LIG    1        3.214   1.017  -0.469  0.00  0.00    +0.004 A 
ENDROOT
BRANCH   5   8
ATOM      8  C   LIG    1        6.783  -0.320  -0.551  0.00  0.00    +0.016 C 
ATOM      9  C   LIG    1        7.239  -1.237  -1.689  0.00  0.00    +0.012 C 
ATOM     10  C   LIG    1        7.537  -0.598   0.752  0.00  0.00    +0.012 C 
ENDBRANCH   5   8
BRANCH   4  11
ATOM     11  O   LIG    1        4.986  -2.655   0.278  0.00  0.00    -0.506 OA
ATOM     12  H   LIG    1        5.945  -2.653   0.162  0.00  0.00    +0.292 HD
ENDBRANCH   4  11
TORSDOF 2
