REMARK  Name = *****
REMARK                            x       y       z     vdW  Elec       q    Type
REMARK                         _______ _______ _______ _____ _____    ______ ____
ROOT
ATOM      1  O   LIG    1        5.249   0.139  -0.365  0.00  0.00    -0.284 OA
ENDROOT
BRANCH   1   3
ATOM      2  O   LIG    1        3.640   1.960  -1.351  0.00  0.00    -0.228 OA
ATOM      3  P   LIG    1        4.130   0.556  -1.430  0.00  0.00    +0.472 P 
BRANCH   3   4
ATOM      4  O   LIG    1        4.719   0.177  -2.862  0.00  0.00    -0.303 OA
ATOM      5  H   LIG    1        4.239   0.644  -3.569  0.00  0.00    +0.222 HD
ENDBRANCH   3   4
BRANCH   3   6
ATOM      6  O   LIG    1        2.959  -0.508  -1.239  0.00  0.00    -0.303 OA
ATOM      7  H   LIG    1        2.262  -0.150  -0.658  0.00  0.00    +0.222 HD
ENDBRANCH   3   6
ENDBRANCH   1   3
BRANCH   1   8
ATOM      8  C   LIG    1        5.754  -1.192  -0.412  0.00  0.00    +0.205 C 
BRANCH   8   9
ATOM      9  C   LIG    1        6.804  -1.370   0.684  0.00  0.00    +0.166 C 
BRANCH   9  10
ATOM     10  O   LIG    1        7.883  -0.441   0.482  0.00  0.00    -0.387 OA
ATOM     11  H   LIG    1        7.467   0.418   0.274  0.00  0.00    +0.210 HD
ENDBRANCH   9  10
BRANCH   9  12
ATOM     12  C   LIG    1        6.239  -1.131   2.088  0.00  0.00    +0.189 C 
BRANCH  12  13
ATOM     13  O   LIG    1        7.273  -1.330   3.053  0.00  0.00    -0.392 OA
ATOM     14  H   LIG    1        8.072  -0.917   2.668  0.00  0.00    +0.209 HD
ENDBRANCH  12  13
ENDBRANCH   9  12
ENDBRANCH   8   9
ENDBRANCH   1   8
TORSDOF 8
