REMARK  Name = *****
REMARK                            x       y       z     vdW  Elec       q    Type
REMARK                         _______ _______ _______ _____ _____    ______ ____
ROOT
ATOM      1  O   LIG    1        5.356   0.980   0.661  0.00  0.00    -0.461 OA
ENDROOT
BRANCH   1  10
ATOM      2  C   LIG    1        2.873   0.120  -1.866  0.00  0.00    +0.193 C 
ATOM      3  N   LIG    1        2.979  -1.321  -1.390  0.00  0.00    +0.247 N 
ATOM      4  C   LIG    1        2.035  -2.135  -2.288  0.00  0.00    +0.193 C 
ATOM      5  C   LIG    1        4.400  -1.944  -1.410  0.00  0.00    +0.102 C 
ATOM      6  C   LIG    1        4.284  -3.221  -0.596  0.00  0.00    +0.201 C 
ATOM      7  C   LIG    1        3.163  -2.984   0.383  0.00  0.00    +0.201 C 
ATOM      8  O   LIG    1        4.511  -3.168   0.810  0.00  0.00    -0.357 OA
ATOM      9  C   LIG    1        5.372  -0.951  -0.766  0.00  0.00    +0.102 C 
ATOM     10  C   LIG    1        4.934  -0.413   0.620  0.00  0.00    +0.187 C 
ATOM     11  C   LIG    1        3.423  -0.530   0.951  0.00  0.00    +0.102 C 
ATOM     12  C   LIG    1        2.663  -1.572   0.110  0.00  0.00    +0.102 C 
ENDBRANCH   1  10
BRANCH   1  13
ATOM     13  C   LIG    1        5.576   1.550   1.881  0.00  0.00    +0.317 C 
ATOM     14  O   LIG    1        5.266   1.011   2.947  0.00  0.00    -0.250 OA
BRANCH  13  15
ATOM     15  C   LIG    1        6.260   2.898   1.744  0.00  0.00    +0.153 C 
BRANCH  15  16
ATOM     16  C   LIG    1        5.404   4.045   2.283  0.00  0.00    -0.032 A 
ATOM     17  C   LIG    1        4.473   4.689   1.450  0.00  0.00    +0.004 A 
ATOM     18  C   LIG    1        3.647   5.706   1.947  0.00  0.00    +0.000 A 
ATOM     19  C   LIG    1        3.755   6.114   3.274  0.00  0.00    +0.000 A 
ATOM     20  C   LIG    1        4.696   5.516   4.102  0.00  0.00    +0.000 A 
ATOM     21  C   LIG    1        5.503   4.486   3.615  0.00  0.00    +0.004 A 
ENDBRANCH  15  16
BRANCH  15  22
ATOM     22  C   LIG    1        7.642   2.809   2.413  0.00  0.00    +0.175 C 
BRANCH  22  23
ATOM     23  O   LIG    1        8.428   1.757   1.857  0.00  0.00    -0.394 OA
ATOM     24  H   LIG    1        9.202   1.659   2.445  0.00  0.00    +0.209 HD
ENDBRANCH  22  23
ENDBRANCH  15  22
ENDBRANCH  13  15
ENDBRANCH   1  13
TORSDOF 6
