REMARK  Name = *****
REMARK                            x       y       z     vdW  Elec       q    Type
REMARK                         _______ _______ _______ _____ _____    ______ ____
ROOT
ATOM      1  O   LIG    1        3.207   1.623  -0.176  0.00  0.00    -0.458 OA
ENDROOT
BRANCH   1   2
ATOM      2  C   LIG    1        4.106   0.990   0.759  0.00  0.00    +0.180 C 
ATOM      3  C   LIG    1        5.145   2.130   1.236  0.00  0.00    +0.063 C 
ATOM      4  C   LIG    1        6.421   2.309   0.317  0.00  0.00    +0.061 C 
ATOM      5  N   LIG    1        6.188   1.358  -0.759  0.00  0.00    -0.289 NA
ATOM      6  C   LIG    1        6.214   0.073  -0.005  0.00  0.00    +0.061 C 
ATOM      7  C   LIG    1        7.579  -0.556  -0.086  0.00  0.00    +0.030 C 
ATOM      8  C   LIG    1        8.511   0.708   0.092  0.00  0.00    +0.060 C 
ATOM      9  C   LIG    1        8.559   1.263  -1.309  0.00  0.00    +0.150 C 
ATOM     10  O   LIG    1        9.597   1.479  -1.923  0.00  0.00    -0.296 OA
ATOM     11  C   LIG    1        7.166   1.493  -1.864  0.00  0.00    +0.159 C 
ATOM     12  C   LIG    1        7.837   1.899   0.926  0.00  0.00    +0.030 C 
ATOM     13  C   LIG    1        4.767  -0.297   0.090  0.00  0.00    +0.063 C 
ENDBRANCH   1   2
BRANCH   1  15
ATOM     14  O   LIG    1        1.629   0.015   0.230  0.00  0.00    -0.245 OA
ATOM     15  C   LIG    1        1.984   1.040  -0.340  0.00  0.00    +0.342 C 
BRANCH  15  16
ATOM     16  C   LIG    1        1.140   1.798  -1.257  0.00  0.00    +0.084 C 
ATOM     17  C   LIG    1       -0.226   1.543  -1.611  0.00  0.00    +0.014 C 
ATOM     18  C   LIG    1       -0.620   2.534  -2.514  0.00  0.00    +0.047 C 
ATOM     19  C   LIG    1       -1.904   2.590  -3.069  0.00  0.00    +0.026 C 
ATOM     20  C   LIG    1       -2.821   1.610  -2.682  0.00  0.00    +0.002 C 
ATOM     21  C   LIG    1       -2.465   0.612  -1.779  0.00  0.00    +0.001 C 
ATOM     22  N   LIG    1        0.460   3.363  -2.703  0.00  0.00    -0.360 NA
ATOM     23  H   LIG    1        0.461   4.175  -3.305  0.00  0.00    +0.165 HD
ATOM     24  C   LIG    1       -1.174   0.565  -1.240  0.00  0.00    +0.011 C 
ATOM     25  C   LIG    1        1.519   2.936  -1.952  0.00  0.00    +0.098 C 
ENDBRANCH  15  16
ENDBRANCH   1  15
TORSDOF 3
