REMARK  Name = *****
REMARK                            x       y       z     vdW  Elec       q    Type
REMARK                         _______ _______ _______ _____ _____    ______ ____
ROOT
ATOM      1  C   LIG    1        1.268   0.236   0.410  0.00  0.00    +0.141 C 
ATOM      2  N   LIG    1        2.609   0.119  -0.111  0.00  0.00    -0.245 N 
ATOM      3  C   LIG    1        3.333   1.194  -0.542  0.00  0.00    +0.229 C 
ATOM      4  O   LIG    1        2.952   2.356  -0.547  0.00  0.00    -0.275 OA
ATOM      5  C   LIG    1        4.679   0.709  -1.032  0.00  0.00    +0.114 C 
ATOM      6  C   LIG    1        4.669  -0.789  -0.732  0.00  0.00    +0.114 C 
ATOM      7  C   LIG    1        3.299  -1.053  -0.185  0.00  0.00    +0.223 C 
ATOM      8  O   LIG    1        2.897  -2.159   0.145  0.00  0.00    -0.275 OA
ENDROOT
BRANCH   5   9
ATOM      9  C   LIG    1        5.876   1.405  -0.422  0.00  0.00    -0.035 A 
ATOM     10  C   LIG    1        5.918   1.764   0.934  0.00  0.00    +0.004 A 
ATOM     11  C   LIG    1        7.053   2.372   1.474  0.00  0.00    +0.000 A 
ATOM     12  C   LIG    1        8.164   2.620   0.670  0.00  0.00    +0.000 A 
ATOM     13  C   LIG    1        8.140   2.260  -0.675  0.00  0.00    +0.000 A 
ATOM     14  C   LIG    1        7.006   1.654  -1.217  0.00  0.00    +0.004 A 
ENDBRANCH   5   9
TORSDOF 1
