REMARK  Name = *****
REMARK                            x       y       z     vdW  Elec       q    Type
REMARK                         _______ _______ _______ _____ _____    ______ ____
ROOT
ATOM      1  C   LIG    1        4.922  -3.689   0.556  0.00  0.00    +0.182 C 
ATOM      2  C   LIG    1        4.614  -3.262   2.090  0.00  0.00    +0.021 C 
ATOM      3  C   LIG    1        4.866  -1.726   2.109  0.00  0.00    +0.005 C 
ATOM      4  C   LIG    1        6.357  -1.321   2.304  0.00  0.00    +0.018 C 
ATOM      5  C   LIG    1        6.979  -1.941   3.598  0.00  0.00    +0.086 C 
ATOM      6  C   LIG    1        6.860  -3.492   3.431  0.00  0.00    +0.137 C 
ATOM      7 CL   LIG    1        5.920  -1.462   5.028  0.00  0.00    -0.114 Cl
ATOM      8  C   LIG    1        8.489  -1.431   3.887  0.00  0.00    +0.029 C 
ATOM      9  C   LIG    1        8.677   0.080   3.556  0.00  0.00    -0.054 C 
ATOM     10  C   LIG    1        9.897   0.629   3.767  0.00  0.00    +0.051 C 
ATOM     11  C   LIG    1       10.938  -0.088   2.935  0.00  0.00    +0.179 C 
ATOM     12  C   LIG    1       10.683  -1.528   2.620  0.00  0.00    +0.047 C 
ATOM     13  O   LIG    1       11.979   0.462   2.602  0.00  0.00    -0.288 OA
ATOM     14  C   LIG    1        7.973   0.593   2.320  0.00  0.00    +0.032 C 
ATOM     15  C   LIG    1        8.889  -1.656   5.381  0.00  0.00    +0.022 C 
ATOM     16  C   LIG    1        9.577  -2.151   3.068  0.00  0.00    -0.011 C 
ATOM     17  C   LIG    1        6.511   0.207   2.279  0.00  0.00    +0.010 C 
ATOM     18  C   LIG    1        4.277  -1.293   0.767  0.00  0.00    +0.012 C 
ATOM     19  C   LIG    1        3.126  -3.486   2.507  0.00  0.00    +0.016 C 
ATOM     20  C   LIG    1        5.445  -4.015   3.153  0.00  0.00    +0.044 C 
ATOM     21  C   LIG    1        4.801  -2.322  -0.234  0.00  0.00    +0.038 C 
ATOM     22  C   LIG    1        3.945  -2.268  -1.498  0.00  0.00    +0.012 C 
ENDROOT
BRANCH   1  23
ATOM     23  C   LIG    1        3.871  -4.744   0.097  0.00  0.00    +0.214 C 
ATOM     24  O   LIG    1        2.693  -4.417  -0.087  0.00  0.00    -0.289 OA
BRANCH  23  25
ATOM     25  C   LIG    1        4.235  -6.223   0.027  0.00  0.00    +0.310 C 
BRANCH  25  26
ATOM     26  O   LIG    1        4.582  -6.799  -1.224  0.00  0.00    -0.457 OA
BRANCH  26  27
ATOM     27  C   LIG    1        3.795  -6.495  -2.287  0.00  0.00    +0.307 C 
ATOM     28  O   LIG    1        2.872  -5.702  -2.335  0.00  0.00    -0.251 OA
BRANCH  27  30
ATOM     29  C   LIG    1        3.279  -8.665  -3.296  0.00  0.00    +0.015 C 
ATOM     30  C   LIG    1        4.119  -7.402  -3.444  0.00  0.00    +0.117 C 
ENDBRANCH  27  30
ENDBRANCH  26  27
ENDBRANCH  25  26
ENDBRANCH  23  25
ENDBRANCH   1  23
BRANCH   6  31
ATOM     31  O   LIG    1        7.362  -4.214   4.556  0.00  0.00    -0.390 OA
ATOM     32  H   LIG    1        6.807  -3.978   5.324  0.00  0.00    +0.210 HD
ENDBRANCH   6  31
BRANCH   1  33
ATOM     33  O   LIG    1        6.318  -4.106   0.526  0.00  0.00    -0.449 OA
BRANCH  33  34
ATOM     34  C   LIG    1        6.884  -4.543  -0.631  0.00  0.00    +0.308 C 
ATOM     35  O   LIG    1        6.276  -4.723  -1.674  0.00  0.00    -0.251 OA
BRANCH  34  36
ATOM     36  C   LIG    1        8.384  -4.691  -0.506  0.00  0.00    +0.117 C 
ATOM     37  C   LIG    1        8.841  -5.771   0.455  0.00  0.00    +0.015 C 
ENDBRANCH  34  36
ENDBRANCH  33  34
ENDBRANCH   1  33
TORSDOF 9
