REMARK  Name = *****
REMARK                            x       y       z     vdW  Elec       q    Type
REMARK                         _______ _______ _______ _____ _____    ______ ____
ROOT
ATOM      1  C   LIG    1        6.804  10.504  -2.265  0.00  0.00    +0.035 C 
ATOM      2  N   LIG    1        6.768   9.862  -1.122  0.00  0.00    -0.342 NA
ATOM      3  C   LIG    1        7.506  10.651  -0.106  0.00  0.00    +0.058 C 
ATOM      4  C   LIG    1        8.617  10.138  -0.788  0.00  0.00    +0.020 C 
ATOM      5  C   LIG    1        8.236  10.525  -2.231  0.00  0.00    +0.066 C 
ENDROOT
BRANCH   3   6
ATOM      6  C   LIG    1        7.003  11.045   1.290  0.00  0.00    -0.001 C 
ATOM      7  C   LIG    1        5.827  11.803   1.420  0.00  0.00    +0.013 C 
ATOM      8  C   LIG    1        5.452  12.369   2.660  0.00  0.00    +0.039 C 
ATOM      9  C   LIG    1        6.232  12.168   3.795  0.00  0.00    +0.123 C 
ATOM     10  F   LIG    1        5.887  12.704   4.970  0.00  0.00    -0.205 F 
ATOM     11  C   LIG    1        7.336  11.367   3.738  0.00  0.00    +0.039 C 
ATOM     12  C   LIG    1        7.647  10.777   2.518  0.00  0.00    +0.013 C 
ENDBRANCH   3   6
BRANCH   4  13
ATOM     13  C   LIG    1        9.659   9.372  -0.122  0.00  0.00    -0.015 C 
ATOM     14  C   LIG    1       10.189   8.185  -0.599  0.00  0.00    +0.008 C 
ATOM     15  C   LIG    1       11.157   7.508   0.172  0.00  0.00    +0.001 C 
ATOM     16  C   LIG    1       11.497   7.925   1.464  0.00  0.00    +0.000 C 
ATOM     17  C   LIG    1       10.859   9.013   2.001  0.00  0.00    +0.001 C 
ATOM     18  C   LIG    1       10.047   9.753   1.155  0.00  0.00    +0.008 C 
ENDBRANCH   4  13
BRANCH   5  19
ATOM     19  C   LIG    1        9.184  10.816  -3.289  0.00  0.00    +0.251 C 
ATOM     20  N   LIG    1        8.698  11.638  -4.293  0.00  0.00    -0.281 N 
ATOM     21  H   LIG    1        7.927  12.203  -3.995  0.00  0.00    +0.155 HD
ATOM     22  O   LIG    1       10.336  10.443  -3.194  0.00  0.00    -0.270 OA
BRANCH  20  23
ATOM     23  C   LIG    1        9.416  12.190  -5.376  0.00  0.00    +0.034 C 
ATOM     24  C   LIG    1       10.007  11.389  -6.352  0.00  0.00    +0.023 C 
ATOM     25  C   LIG    1       10.572  11.973  -7.500  0.00  0.00    +0.002 C 
ATOM     26  C   LIG    1       10.561  13.357  -7.675  0.00  0.00    +0.000 C 
ATOM     27  C   LIG    1        9.969  14.162  -6.707  0.00  0.00    +0.002 C 
ATOM     28  C   LIG    1        9.381  13.580  -5.575  0.00  0.00    +0.023 C 
ENDBRANCH  20  23
ENDBRANCH   5  19
BRANCH   1  30
ATOM     29  C   LIG    1        5.828  11.314  -4.493  0.00  0.00    +0.014 C 
ATOM     30  C   LIG    1        5.555  10.805  -3.144  0.00  0.00    +0.030 C 
ATOM     31  C   LIG    1        4.536   9.700  -3.475  0.00  0.00    +0.014 C 
ENDBRANCH   1  30
BRANCH   2  32
ATOM     32  C   LIG    1        6.369   8.468  -0.987  0.00  0.00    +0.124 C 
BRANCH  32  33
ATOM     33  C   LIG    1        4.909   7.529  -1.625  0.00  0.00    +0.053 C 
BRANCH  33  34
ATOM     34  C   LIG    1        4.230   6.311  -1.041  0.00  0.00    +0.119 C 
BRANCH  34  35
ATOM     35  O   LIG    1        3.253   5.910  -2.065  0.00  0.00    -0.392 OA
ATOM     36  H   LIG    1        3.641   6.059  -2.948  0.00  0.00    +0.210 HD
ENDBRANCH  34  35
BRANCH  34  37
ATOM     37  C   LIG    1        3.401   6.381   0.273  0.00  0.00    +0.063 C 
BRANCH  37  38
ATOM     38  C   LIG    1        4.055   6.738   1.627  0.00  0.00    +0.128 C 
BRANCH  38  39
ATOM     39  O   LIG    1        3.170   6.477   2.703  0.00  0.00    -0.391 OA
ATOM     40  H   LIG    1        3.282   7.232   3.323  0.00  0.00    +0.210 HD
ENDBRANCH  38  39
BRANCH  38  41
ATOM     41  C   LIG    1        4.386   8.179   1.842  0.00  0.00    +0.151 C 
BRANCH  41  42
ATOM     42  C   LIG    1        5.297   8.315   0.952  0.00  0.00    +0.307 C 
ATOM     43  O   LIG    1        6.638   8.166   1.352  0.00  0.00    -0.251 OA
BRANCH  42  44
ATOM     44  O   LIG    1        4.425   9.054  -0.200  0.00  0.00    -0.481 OA
ATOM     45  H   LIG    1        4.726   9.399  -1.070  0.00  0.00    +0.295 HD
ENDBRANCH  42  44
ENDBRANCH  41  42
ENDBRANCH  38  41
ENDBRANCH  37  38
ENDBRANCH  34  37
ENDBRANCH  33  34
ENDBRANCH  32  33
ENDBRANCH   2  32
TORSDOF 15
