REMARK  Name = *****
REMARK                            x       y       z     vdW  Elec       q    Type
REMARK                         _______ _______ _______ _____ _____    ______ ____
ROOT
ATOM      1  N   LIG    1        8.272   4.353   2.508  0.00  0.00    -0.302 NA
ATOM      2  C   LIG    1        8.999   4.927   3.646  0.00  0.00    +0.087 C 
ATOM      3  C   LIG    1        9.645   6.279   3.378  0.00  0.00    +0.047 C 
ATOM      4  C   LIG    1        8.604   7.286   2.906  0.00  0.00    +0.122 C 
ATOM      5  C   LIG    1        8.053   6.727   1.590  0.00  0.00    +0.047 C 
ATOM      6  C   LIG    1        7.457   5.322   1.747  0.00  0.00    +0.087 C 
ENDROOT
BRANCH   1   7
ATOM      7  C   LIG    1        7.424   3.207   2.928  0.00  0.00    +0.085 C 
BRANCH   7   8
ATOM      8  C   LIG    1        8.143   2.151   3.790  0.00  0.00    +0.023 C 
BRANCH   8   9
ATOM      9  C   LIG    1        7.226   0.987   4.167  0.00  0.00    +0.081 C 
BRANCH   9  10
ATOM     10  C   LIG    1        7.975  -0.032   5.040  0.00  0.00    +0.163 C 
ATOM     11  O   LIG    1        8.617  -0.938   4.544  0.00  0.00    -0.292 OA
BRANCH  10  15
ATOM     12  C   LIG    1        7.828   0.448   9.371  0.00  0.00    -0.042 A 
ATOM     13  C   LIG    1        7.146   1.306   8.498  0.00  0.00    +0.005 A 
ATOM     14  C   LIG    1        7.197   1.147   7.115  0.00  0.00    +0.012 A 
ATOM     15  C   LIG    1        7.931   0.130   6.534  0.00  0.00    +0.017 A 
ATOM     16  C   LIG    1        8.639  -0.747   7.379  0.00  0.00    +0.012 A 
ATOM     17  C   LIG    1        8.581  -0.586   8.782  0.00  0.00    +0.005 A 
BRANCH  12  19
ATOM     18  C   LIG    1        6.870   1.871  11.283  0.00  0.00    +0.015 C 
ATOM     19  C   LIG    1        7.744   0.650  10.897  0.00  0.00    -0.013 C 
ATOM     20  C   LIG    1        7.112  -0.578  11.582  0.00  0.00    +0.015 C 
ATOM     21  C   LIG    1        9.148   0.867  11.498  0.00  0.00    +0.015 C 
ENDBRANCH  12  19
ENDBRANCH  10  15
ENDBRANCH   9  10
ENDBRANCH   8   9
ENDBRANCH   7   8
ENDBRANCH   1   7
BRANCH   4  22
ATOM     22  O   LIG    1        7.535   7.538   3.852  0.00  0.00    -0.364 OA
BRANCH  22  23
ATOM     23  C   LIG    1        7.957   8.088   5.123  0.00  0.00    +0.179 C 
BRANCH  23  24
ATOM     24  C   LIG    1        6.856   8.007   6.191  0.00  0.00    -0.015 A 
ATOM     25  C   LIG    1        6.819   6.892   7.052  0.00  0.00    +0.006 A 
ATOM     26  C   LIG    1        6.002   6.879   8.188  0.00  0.00    +0.000 A 
ATOM     27  C   LIG    1        5.172   7.961   8.461  0.00  0.00    +0.000 A 
ATOM     28  C   LIG    1        5.122   9.032   7.571  0.00  0.00    +0.000 A 
ATOM     29  C   LIG    1        5.950   9.053   6.440  0.00  0.00    +0.006 A 
ENDBRANCH  23  24
BRANCH  23  30
ATOM     30  C   LIG    1        8.604   9.470   5.016  0.00  0.00    -0.015 A 
ATOM     31  C   LIG    1        9.622   9.842   5.913  0.00  0.00    +0.006 A 
ATOM     32  C   LIG    1       10.278  11.068   5.779  0.00  0.00    +0.000 A 
ATOM     33  C   LIG    1        9.916  11.943   4.757  0.00  0.00    +0.000 A 
ATOM     34  C   LIG    1        8.877  11.609   3.891  0.00  0.00    +0.000 A 
ATOM     35  C   LIG    1        8.216  10.387   4.027  0.00  0.00    +0.006 A 
ENDBRANCH  23  30
ENDBRANCH  22  23
ENDBRANCH   4  22
TORSDOF 10
