REMARK  Name = *****
REMARK                            x       y       z     vdW  Elec       q    Type
REMARK                         _______ _______ _______ _____ _____    ______ ____
ROOT
ATOM      1  O   LIG    1        0.954   0.066   0.051  0.00  0.00    -0.203 OA
ATOM      2  C   LIG    1        2.167   0.066   0.051  0.00  0.00    +0.505 C 
ENDROOT
BRANCH   2   3
ATOM      3  O   LIG    1        2.929  -1.028   0.025  0.00  0.00    -0.450 OA
ATOM      4  H   LIG    1        2.292  -1.768   0.007  0.00  0.00    +0.299 HD
ENDBRANCH   2   3
BRANCH   2   5
ATOM      5  O   LIG    1        2.929   1.160   0.077  0.00  0.00    -0.450 OA
ATOM      6  H   LIG    1        2.292   1.899   0.094  0.00  0.00    +0.299 HD
ENDBRANCH   2   5
TORSDOF 2
