REMARK  Name = *****
REMARK                            x       y       z     vdW  Elec       q    Type
REMARK                         _______ _______ _______ _____ _____    ______ ____
ROOT
ATOM      1  C   LIG    1        2.550   0.684  -2.104  0.00  0.00    +0.086 C 
ATOM      2  C   LIG    1        3.188   0.639  -0.752  0.00  0.00    +0.103 C 
ATOM      3  O   LIG    1        3.615  -0.616  -0.366  0.00  0.00    -0.464 OA
ATOM      4  C   LIG    1        4.630  -0.653   0.673  0.00  0.00    +0.235 C 
ATOM      5  N   LIG    1        4.277   0.301   1.716  0.00  0.00    -0.243 N 
ATOM      6  C   LIG    1        4.315  -0.088   3.110  0.00  0.00    +0.208 C 
ATOM      7  C   LIG    1        2.969  -0.729   3.395  0.00  0.00    +0.237 C 
ATOM      8  O   LIG    1        2.231  -0.267   4.271  0.00  0.00    -0.274 OA
ATOM      9  N   LIG    1        2.639  -1.886   2.684  0.00  0.00    -0.273 N 
ATOM     10  C   LIG    1        1.333  -2.459   2.987  0.00  0.00    +0.138 C 
ATOM     11  C   LIG    1        3.599  -2.677   1.975  0.00  0.00    +0.045 A 
ATOM     12  C   LIG    1        3.547  -4.078   2.170  0.00  0.00    +0.025 A 
ATOM     13  C   LIG    1        4.469  -4.946   1.586  0.00  0.00    +0.022 A 
ATOM     14  C   LIG    1        5.462  -4.427   0.780  0.00  0.00    +0.042 A 
ATOM     15 CL   LIG    1        6.608  -5.478   0.046  0.00  0.00    -0.084 Cl
ATOM     16  C   LIG    1        5.525  -3.054   0.548  0.00  0.00    +0.031 A 
ATOM     17  C   LIG    1        3.821   1.556   1.394  0.00  0.00    +0.246 C 
ATOM     18  O   LIG    1        3.709   2.485   2.186  0.00  0.00    -0.270 OA
ATOM     19  C   LIG    1        4.605  -2.138   1.131  0.00  0.00    +0.042 A 
ATOM     20  C   LIG    1        3.345   1.724   0.014  0.00  0.00    +0.108 C 
ENDROOT
BRANCH   4  21
ATOM     21  C   LIG    1        6.016  -0.238   0.076  0.00  0.00    +0.019 A 
ATOM     22  C   LIG    1        7.074   0.164   0.916  0.00  0.00    +0.009 A 
ATOM     23  C   LIG    1        8.321   0.514   0.390  0.00  0.00    +0.001 A 
ATOM     24  C   LIG    1        8.540   0.461  -0.984  0.00  0.00    +0.000 A 
ATOM     25  C   LIG    1        7.516   0.056  -1.834  0.00  0.00    +0.001 A 
ATOM     26  C   LIG    1        6.269  -0.293  -1.311  0.00  0.00    +0.009 A 
ENDBRANCH   4  21
TORSDOF 1
