REMARK  Name = *****
REMARK                            x       y       z     vdW  Elec       q    Type
REMARK                         _______ _______ _______ _____ _____    ______ ____
ROOT
ATOM      1  CA  CYS A  1        2.855  -0.039  -0.043  0.00  0.00    +0.170 C 
ENDROOT
BRANCH   1   2
ATOM      2  N   CYS A  1        1.610   0.526   0.572  0.00  0.00    -0.318 NA
ATOM      3  H1  CYS A  1        0.830   0.340  -0.070  0.00  0.00    +0.119 HD
ATOM      4  H2  CYS A  1        1.384  -0.072   1.377  0.00  0.00    +0.119 HD
ENDBRANCH   1   2
BRANCH   1   5
ATOM      5  C   CYS A  1        3.289   0.894  -1.180  0.00  0.00    +0.323 C 
ATOM      6  O   CYS A  1        4.022   0.590  -2.109  0.00  0.00    -0.249 OA
BRANCH   5   7
ATOM      7  OXT CYS A  1        2.779   2.142  -1.007  0.00  0.00    -0.479 OA
ATOM      8  HXT CYS A  1        2.209   2.098  -0.197  0.00  0.00    +0.295 HD
ENDBRANCH   5   7
ENDBRANCH   1   5
BRANCH   1   9
ATOM      9  CB  CYS A  1        2.685  -1.469  -0.570  0.00  0.00    +0.095 C 
BRANCH   9  10
ATOM     10  SG  CYS A  1        2.197  -2.619   0.761  0.00  0.00    -0.176 S 
ATOM     11  HG  CYS A  1        3.348  -2.556   1.450  0.00  0.00    +0.102 HD
ENDBRANCH   9  10
ENDBRANCH   1   9
TORSDOF 5
