REMARK  Name = *****
REMARK                            x       y       z     vdW  Elec       q    Type
REMARK                         _______ _______ _______ _____ _____    ______ ____
ROOT
ATOM      1  C   LIG    1        4.616  -4.435   0.242  0.00  0.00    +0.261 C 
ENDROOT
BRANCH   1   2
ATOM      2  O   LIG    1        4.439  -3.074   0.661  0.00  0.00    -0.488 OA
BRANCH   2   6
ATOM      3  C   LIG    1        9.049  -3.019   2.453  0.00  0.00    +0.044 C 
ATOM      4  C   LIG    1        7.737  -2.331   2.212  0.00  0.00    -0.047 A 
ATOM      5  C   LIG    1        6.707  -3.038   1.586  0.00  0.00    +0.050 A 
ATOM      6  C   LIG    1        5.464  -2.452   1.326  0.00  0.00    +0.139 A 
ATOM      7  C   LIG    1        5.261  -1.120   1.725  0.00  0.00    +0.083 A 
ATOM      8 CL   LIG    1        3.764  -0.308   1.421  0.00  0.00    -0.080 Cl
ATOM      9  C   LIG    1        6.278  -0.409   2.363  0.00  0.00    +0.024 A 
ATOM     10  C   LIG    1        7.513  -1.010   2.611  0.00  0.00    +0.005 A 
ENDBRANCH   2   6
ENDBRANCH   1   2
BRANCH   1  11
ATOM     11  C   LIG    1        5.197  -4.500  -1.181  0.00  0.00    +0.166 C 
BRANCH  11  12
ATOM     12  O   LIG    1        6.464  -3.837  -1.293  0.00  0.00    -0.387 OA
ATOM     13  H   LIG    1        6.300  -2.905  -1.057  0.00  0.00    +0.210 HD
ENDBRANCH  11  12
BRANCH  11  14
ATOM     14  C   LIG    1        5.370  -5.949  -1.673  0.00  0.00    +0.116 C 
BRANCH  14  15
ATOM     15  N   LIG    1        6.314  -6.720  -0.846  0.00  0.00    -0.309 NA
ATOM     16  H   LIG    1        7.197  -6.199  -0.829  0.00  0.00    +0.122 HD
BRANCH  15  17
ATOM     17  C   LIG    1        6.565  -8.101  -1.307  0.00  0.00    +0.011 C 
ATOM     18  C   LIG    1        7.534  -8.749  -0.298  0.00  0.00    +0.027 C 
ATOM     19  C   LIG    1        7.227  -8.131  -2.696  0.00  0.00    +0.027 C 
ATOM     20  C   LIG    1        5.269  -8.929  -1.321  0.00  0.00    +0.027 C 
ENDBRANCH  15  17
ENDBRANCH  14  15
ENDBRANCH  11  14
ENDBRANCH   1  11
TORSDOF 7
