REMARK  Name = *****
REMARK                            x       y       z     vdW  Elec       q    Type
REMARK                         _______ _______ _______ _____ _____    ______ ____
ROOT
ATOM      1  C   LIG    1        7.454  -1.817   2.173  0.00  0.00    -0.045 A 
ATOM      2  C   LIG    1        7.948  -1.773   3.488  0.00  0.00    +0.016 A 
ATOM      3  C   LIG    1        9.318  -1.963   3.754  0.00  0.00    +0.055 A 
ATOM      4  C   LIG    1       10.193  -2.187   2.685  0.00  0.00    +0.012 A 
ATOM      5  C   LIG    1        9.713  -2.225   1.376  0.00  0.00    +0.001 A 
ATOM      6  C   LIG    1        8.351  -2.047   1.124  0.00  0.00    +0.003 A 
ENDROOT
BRANCH   3   7
ATOM      7  C   LIG    1        9.817  -1.932   5.178  0.00  0.00    +0.417 C 
ATOM      8  F   LIG    1        9.223  -2.877   5.960  0.00  0.00    -0.166 F 
ATOM      9  F   LIG    1        9.582  -0.739   5.792  0.00  0.00    -0.166 F 
ATOM     10  F   LIG    1       11.159  -2.150   5.292  0.00  0.00    -0.166 F 
ENDBRANCH   3   7
BRANCH   1  11
ATOM     11  C   LIG    1        5.974  -1.631   1.903  0.00  0.00    +0.053 C 
BRANCH  11  12
ATOM     12  C   LIG    1        5.623  -0.438   0.973  0.00  0.00    +0.055 C 
ATOM     13  C   LIG    1        6.149   0.879   1.558  0.00  0.00    +0.024 C 
BRANCH  12  14
ATOM     14  N   LIG    1        4.156  -0.399   0.782  0.00  0.00    -0.314 NA
ATOM     15  H   LIG    1        3.836  -1.307   0.442  0.00  0.00    +0.122 HD
BRANCH  14  17
ATOM     16  C   LIG    1        2.207   0.607  -0.320  0.00  0.00    +0.020 C 
ATOM     17  C   LIG    1        3.720   0.638  -0.155  0.00  0.00    +0.077 C 
ENDBRANCH  14  17
ENDBRANCH  12  14
ENDBRANCH  11  12
ENDBRANCH   1  11
TORSDOF 5
