REMARK  Name = *****
REMARK                            x       y       z     vdW  Elec       q    Type
REMARK                         _______ _______ _______ _____ _____    ______ ____
ROOT
ATOM      1  C   LIG    1        4.462   1.143   0.586  0.00  0.00    -0.017 A 
ATOM      2  C   LIG    1        5.118  -0.069   0.928  0.00  0.00    +0.039 A 
ATOM      3  C   LIG    1        6.518  -0.202   0.714  0.00  0.00    +0.043 A 
ATOM      4  C   LIG    1        7.238   0.900   0.231  0.00  0.00    +0.013 A 
ATOM      5  C   LIG    1        6.609   2.128   0.021  0.00  0.00    +0.001 A 
ATOM      6  C   LIG    1        5.231   2.246   0.182  0.00  0.00    +0.006 A 
ENDROOT
BRANCH   2   7
ATOM      7  N   LIG    1        4.336  -1.108   1.489  0.00  0.00    -0.357 N 
ATOM      8  H   LIG    1        3.611  -1.397   0.816  0.00  0.00    +0.142 HD
ATOM      9  H   LIG    1        4.885  -1.935   1.722  0.00  0.00    +0.142 HD
ENDBRANCH   2   7
BRANCH   3  10
ATOM     10  C   LIG    1        7.218  -1.526   0.845  0.00  0.00    +0.195 C 
ATOM     11  O   LIG    1        6.590  -2.559   0.613  0.00  0.00    -0.287 OA
BRANCH  10  12
ATOM     12  C   LIG    1        8.667  -1.662   1.204  0.00  0.00    +0.022 A 
ATOM     13  C   LIG    1        9.295  -0.809   2.119  0.00  0.00    +0.012 A 
ATOM     14  C   LIG    1       10.641  -1.006   2.461  0.00  0.00    +0.001 A 
ATOM     15  C   LIG    1       11.364  -2.066   1.913  0.00  0.00    +0.000 A 
ATOM     16  C   LIG    1       10.744  -2.932   1.016  0.00  0.00    +0.001 A 
ATOM     17  C   LIG    1        9.403  -2.730   0.661  0.00  0.00    +0.012 A 
ENDBRANCH  10  12
ENDBRANCH   3  10
BRANCH   1  18
ATOM     18  C   LIG    1        2.948   1.290   0.626  0.00  0.00    +0.132 C 
BRANCH  18  22
ATOM     19  N   LIG    1        1.470   0.954  -1.309  0.00  0.00    -0.329 N 
ATOM     20  H   LIG    1        1.424   1.952  -1.454  0.00  0.00    +0.145 HD
ATOM     21  H   LIG    1        1.007   0.344  -1.970  0.00  0.00    +0.145 HD
ATOM     22  C   LIG    1        2.221   0.363  -0.340  0.00  0.00    +0.215 C 
ATOM     23  O   LIG    1        2.267  -0.875  -0.289  0.00  0.00    -0.276 OA
ENDBRANCH  18  22
ENDBRANCH   1  18
TORSDOF 5
