REMARK  Name = *****
REMARK                            x       y       z     vdW  Elec       q    Type
REMARK                         _______ _______ _______ _____ _____    ______ ____
ROOT
ATOM      1  O   LIG    1        5.113  -0.238   1.640  0.00  0.00    -0.459 OA
ENDROOT
BRANCH   1   7
ATOM      2  C   LIG    1        0.451   0.748  -0.560  0.00  0.00    +0.192 C 
ATOM      3  N   LIG    1        1.982   0.540  -0.598  0.00  0.00    +0.243 N 
ATOM      4  C   LIG    1        2.359   0.725  -2.068  0.00  0.00    +0.192 C 
ATOM      5  C   LIG    1        2.374  -0.819   0.015  0.00  0.00    +0.070 C 
ATOM      6  C   LIG    1        3.861  -1.104  -0.259  0.00  0.00    +0.099 C 
ATOM      7  C   LIG    1        4.805  -0.002   0.249  0.00  0.00    +0.187 C 
ATOM      8  C   LIG    1        4.220   1.419   0.156  0.00  0.00    +0.099 C 
ATOM      9  C   LIG    1        2.121  -0.603   1.517  0.00  0.00    +0.060 C 
ATOM     10  C   LIG    1        2.321   0.899   1.756  0.00  0.00    +0.060 C 
ATOM     11  C   LIG    1        2.700   1.484   0.387  0.00  0.00    +0.070 C 
ENDBRANCH   1   7
BRANCH   1  12
ATOM     12  C   LIG    1        6.159  -1.079   1.905  0.00  0.00    +0.341 C 
ATOM     13  O   LIG    1        6.769  -1.710   1.051  0.00  0.00    -0.247 OA
BRANCH  12  14
ATOM     14  C   LIG    1        6.462  -1.122   3.413  0.00  0.00    +0.253 C 
BRANCH  14  15
ATOM     15  C   LIG    1        6.724   0.259   3.976  0.00  0.00    -0.008 A 
ATOM     16  C   LIG    1        7.764   1.060   3.474  0.00  0.00    +0.007 A 
ATOM     17  C   LIG    1        7.975   2.345   3.977  0.00  0.00    +0.000 A 
ATOM     18  C   LIG    1        7.157   2.840   4.992  0.00  0.00    +0.000 A 
ATOM     19  C   LIG    1        6.132   2.051   5.508  0.00  0.00    +0.000 A 
ATOM     20  C   LIG    1        5.918   0.766   5.007  0.00  0.00    +0.007 A 
ENDBRANCH  14  15
BRANCH  14  21
ATOM     21  O   LIG    1        7.543  -1.975   3.762  0.00  0.00    -0.376 OA
ATOM     22  H   LIG    1        8.218  -1.888   3.064  0.00  0.00    +0.211 HD
ENDBRANCH  14  21
ENDBRANCH  12  14
ENDBRANCH   1  12
TORSDOF 5
