REMARK  Name = *****
REMARK                            x       y       z     vdW  Elec       q    Type
REMARK                         _______ _______ _______ _____ _____    ______ ____
ROOT
ATOM      1  C   LIG    1        4.447   0.840  -0.671  0.00  0.00    +0.000 C 
ATOM      2  O   LIG    1        4.888  -0.191  -1.555  0.00  0.00    +0.000 OA
ATOM      3  B   LIG    1        4.806   0.255  -2.970  0.00  0.00    +0.000 B 
ATOM      4  C   LIG    1        5.488   1.667  -3.368  0.00  0.00    +0.000 C 
ATOM      5  C   LIG    1        4.964   2.696  -2.355  0.00  0.00    +0.000 C 
ATOM      6  C   LIG    1        5.179   2.193  -0.922  0.00  0.00    +0.000 C 
ENDROOT
BRANCH   4   7
ATOM      7  N   LIG    1        5.161   2.069  -4.723  0.00  0.00    +0.000 N 
ATOM      8  H   LIG    1        4.160   2.144  -4.997  0.00  0.00    +0.000 HD
ATOM      9  C   LIG    1        6.093   2.311  -5.681  0.00  0.00    +0.000 C 
ATOM     10  O   LIG    1        7.292   2.172  -5.410  0.00  0.00    +0.000 OA
BRANCH   9  11
ATOM     11  C   LIG    1        5.662   2.635  -7.083  0.00  0.00    +0.000 C 
BRANCH  11  12
ATOM     12  C   LIG    1        6.813   2.867  -8.015  0.00  0.00    +0.000 A 
ATOM     13  S   LIG    1        7.126   4.228  -8.905  0.00  0.00    +0.000 S 
ATOM     14  C   LIG    1        8.493   3.721  -9.703  0.00  0.00    +0.000 A 
ATOM     15  C   LIG    1        8.755   2.418  -9.267  0.00  0.00    +0.000 A 
ATOM     16  C   LIG    1        7.809   1.935  -8.325  0.00  0.00    +0.000 A 
ENDBRANCH  11  12
ENDBRANCH   9  11
ENDBRANCH   4   7
BRANCH   3  17
ATOM     17  O   LIG    1        3.981  -0.482  -3.928  0.00  0.00    +0.000 OA
ATOM     18  H   LIG    1        3.213   0.112  -4.123  0.00  0.00    +0.000 HD
ENDBRANCH   3  17
BRANCH   1  19
ATOM     19  C   LIG    1        2.899   0.976  -0.664  0.00  0.00    +0.000 C 
BRANCH  19  21
ATOM     20  O   LIG    1        1.344  -0.683  -1.286  0.00  0.00    +0.000 OA
ATOM     21  C   LIG    1        2.121  -0.304  -0.424  0.00  0.00    +0.000 C 
BRANCH  21  22
ATOM     22  O   LIG    1        2.224  -1.023   0.718  0.00  0.00    +0.000 OA
ATOM     23  H   LIG    1        2.776  -0.763   1.465  0.00  0.00    +0.000 HD
ENDBRANCH  21  22
ENDBRANCH  19  21
ENDBRANCH   1  19
TORSDOF 7
