REMARK  Name = *****
REMARK                            x       y       z     vdW  Elec       q    Type
REMARK                         _______ _______ _______ _____ _____    ______ ____
ROOT
ATOM      1  C   LIG    1        8.211  -3.947   1.177  0.00  0.00    +0.201 C 
ATOM      2  C   LIG    1        8.179  -2.613   0.392  0.00  0.00    +0.042 C 
ATOM      3  C   LIG    1        7.048  -2.642  -0.649  0.00  0.00    +0.025 C 
ATOM      4  C   LIG    1        8.027  -1.337   1.231  0.00  0.00    +0.025 C 
ATOM      5  S   LIG    1        9.781  -2.482  -0.534  0.00  0.00    -0.127 S 
ATOM      6  C   LIG    1       10.287  -4.209  -0.216  0.00  0.00    +0.169 C 
ATOM      7  C   LIG    1       10.101  -5.287  -1.310  0.00  0.00    +0.223 C 
ATOM      8  C   LIG    1        8.795  -5.623  -0.530  0.00  0.00    +0.244 C 
ATOM      9  O   LIG    1        7.762  -6.233  -0.726  0.00  0.00    -0.273 OA
ATOM     10  N   LIG    1        9.158  -4.819   0.500  0.00  0.00    -0.270 N 
ENDROOT
BRANCH   1  11
ATOM     11  C   LIG    1        8.623  -3.841   2.646  0.00  0.00    +0.332 C 
ATOM     12  O   LIG    1        7.859  -3.509   3.544  0.00  0.00    -0.249 OA
BRANCH  11  13
ATOM     13  O   LIG    1        9.946  -4.106   2.810  0.00  0.00    -0.426 OA
BRANCH  13  14
ATOM     14  C   LIG    1       10.437  -4.112   4.147  0.00  0.00    +0.472 C 
BRANCH  14  15
ATOM     15  O   LIG    1        9.823  -5.069   5.005  0.00  0.00    -0.427 OA
BRANCH  15  16
ATOM     16  C   LIG    1        9.903  -6.360   4.595  0.00  0.00    +0.315 C 
ATOM     17  O   LIG    1       10.538  -6.744   3.621  0.00  0.00    -0.250 OA
BRANCH  16  19
ATOM     18  C   LIG    1       10.104  -7.715   6.658  0.00  0.00    +0.022 C 
ATOM     19  C   LIG    1        9.141  -7.281   5.548  0.00  0.00    +0.059 C 
ATOM     20  C   LIG    1        7.922  -6.562   6.150  0.00  0.00    +0.022 C 
ATOM     21  C   LIG    1        8.652  -8.506   4.761  0.00  0.00    +0.022 C 
ENDBRANCH  16  19
ENDBRANCH  15  16
ENDBRANCH  14  15
ENDBRANCH  13  14
ENDBRANCH  11  13
ENDBRANCH   1  11
BRANCH   7  22
ATOM     22  N   LIG    1        9.899  -4.783  -2.681  0.00  0.00    -0.261 NA
ATOM     23  C   LIG    1        9.322  -5.663  -3.427  0.00  0.00    +0.179 C 
BRANCH  23  24
ATOM     24  N   LIG    1        8.970  -5.556  -4.749  0.00  0.00    -0.321 N 
ATOM     25  C   LIG    1        8.997  -4.278  -5.447  0.00  0.00    +0.106 C 
ATOM     26  C   LIG    1        7.601  -3.658  -5.552  0.00  0.00    +0.019 C 
ATOM     27  C   LIG    1        6.664  -4.426  -6.487  0.00  0.00    +0.002 C 
ATOM     28  C   LIG    1        5.942  -5.617  -5.855  0.00  0.00    +0.002 C 
ATOM     29  C   LIG    1        6.774  -6.593  -5.023  0.00  0.00    +0.019 C 
ATOM     30  C   LIG    1        8.253  -6.654  -5.391  0.00  0.00    +0.106 C 
ENDBRANCH  23  24
ENDBRANCH   7  22
TORSDOF 8
