REMARK  Name = *****
REMARK                            x       y       z     vdW  Elec       q    Type
REMARK                         _______ _______ _______ _____ _____    ______ ____
ROOT
ATOM      1  C   LIG    1        3.407   9.197   6.661  0.00  0.00    +0.121 A 
ATOM      2  C   LIG    1        4.045   8.021   7.074  0.00  0.00    +0.054 A 
ATOM      3  C   LIG    1        4.771   7.230   6.162  0.00  0.00    -0.014 A 
ATOM      4  C   LIG    1        4.851   7.642   4.815  0.00  0.00    -0.017 A 
ATOM      5  C   LIG    1        5.572   6.877   3.890  0.00  0.00    +0.013 A 
ATOM      6  C   LIG    1        6.206   5.684   4.268  0.00  0.00    -0.033 A 
ATOM      7  C   LIG    1        6.125   5.277   5.606  0.00  0.00    +0.005 A 
ATOM      8  C   LIG    1        4.202   8.811   4.410  0.00  0.00    +0.012 A 
ATOM      9  C   LIG    1        5.420   6.042   6.542  0.00  0.00    +0.009 A 
ATOM     10  C   LIG    1        3.484   9.582   5.324  0.00  0.00    +0.046 A 
ENDROOT
BRANCH   1  12
ATOM     11  C   LIG    1        2.117  11.102   7.233  0.00  0.00    +0.277 C 
ATOM     12  O   LIG    1        2.741   9.887   7.639  0.00  0.00    -0.495 OA
ENDBRANCH   1  12
BRANCH   6  13
ATOM     13  C   LIG    1        6.922   4.826   3.234  0.00  0.00    +0.124 C 
ATOM     14  C   LIG    1        8.114   5.579   2.632  0.00  0.00    +0.024 C 
BRANCH  13  15
ATOM     15  C   LIG    1        6.014   4.303   2.115  0.00  0.00    +0.312 C 
ATOM     16  O   LIG    1        6.417   3.998   1.003  0.00  0.00    -0.250 OA
BRANCH  15  17
ATOM     17  O   LIG    1        4.715   4.122   2.455  0.00  0.00    -0.480 OA
ATOM     18  H   LIG    1        4.488   4.392   3.367  0.00  0.00    +0.295 HD
ENDBRANCH  15  17
ENDBRANCH  13  15
ENDBRANCH   6  13
TORSDOF 4
