REMARK  Name = *****
REMARK                            x       y       z     vdW  Elec       q    Type
REMARK                         _______ _______ _______ _____ _____    ______ ____
ROOT
ATOM      1  C   LIG    1        6.146  -0.606  -2.002  0.00  0.00    +0.139 C 
ENDROOT
BRANCH   1   2
ATOM      2  C   LIG    1        7.649  -0.583  -1.748  0.00  0.00    -0.028 A 
ATOM      3  C   LIG    1        8.320   0.590  -1.370  0.00  0.00    +0.005 A 
ATOM      4  C   LIG    1        9.686   0.580  -1.087  0.00  0.00    +0.000 A 
ATOM      5  C   LIG    1       10.408  -0.606  -1.172  0.00  0.00    +0.000 A 
ATOM      6  C   LIG    1        9.766  -1.781  -1.553  0.00  0.00    +0.000 A 
ATOM      7  C   LIG    1        8.400  -1.768  -1.848  0.00  0.00    +0.005 A 
ENDBRANCH   1   2
BRANCH   1   8
ATOM      8  C   LIG    1        5.710   0.122  -3.280  0.00  0.00    -0.028 A 
ATOM      9  C   LIG    1        5.245  -0.615  -4.386  0.00  0.00    +0.005 A 
ATOM     10  C   LIG    1        4.837   0.028  -5.561  0.00  0.00    +0.000 A 
ATOM     11  C   LIG    1        4.890   1.416  -5.655  0.00  0.00    +0.000 A 
ATOM     12  C   LIG    1        5.350   2.162  -4.576  0.00  0.00    +0.000 A 
ATOM     13  C   LIG    1        5.755   1.521  -3.402  0.00  0.00    +0.005 A 
ENDBRANCH   1   8
BRANCH   1  14
ATOM     14  S   LIG    1        5.121  -0.082  -0.539  0.00  0.00    +0.043 S 
ATOM     15  O   LIG    1        5.418   1.350  -0.191  0.00  0.00    -0.256 OA
BRANCH  14  16
ATOM     16  C   LIG    1        5.865  -1.110   0.754  0.00  0.00    +0.200 C 
BRANCH  16  20
ATOM     17  N   LIG    1        4.904  -3.219   1.512  0.00  0.00    -0.329 N 
ATOM     18  H   LIG    1        4.450  -2.745   2.285  0.00  0.00    +0.145 HD
ATOM     19  H   LIG    1        4.712  -4.204   1.374  0.00  0.00    +0.145 HD
ATOM     20  C   LIG    1        5.620  -2.583   0.547  0.00  0.00    +0.223 C 
ATOM     21  O   LIG    1        6.024  -3.229  -0.419  0.00  0.00    -0.275 OA
ENDBRANCH  16  20
ENDBRANCH  14  16
ENDBRANCH   1  14
TORSDOF 5
