REMARK  Name = *****
REMARK                            x       y       z     vdW  Elec       q    Type
REMARK                         _______ _______ _______ _____ _____    ______ ____
ROOT
ATOM      1  C   LIG    1        6.879  -0.021  -0.929  0.00  0.00    +0.170 C 
ENDROOT
BRANCH   1   7
ATOM      2 CL   LIG    1        1.111   0.004   0.902  0.00  0.00    -0.084 Cl
ATOM      3  C   LIG    1        2.755  -0.004   0.400  0.00  0.00    +0.042 A 
ATOM      4  C   LIG    1        3.684  -0.776   1.090  0.00  0.00    +0.040 A 
ATOM      5  C   LIG    1        5.021  -0.785   0.681  0.00  0.00    +0.048 A 
ATOM      6 CL   LIG    1        6.128  -1.697   1.644  0.00  0.00    -0.083 Cl
ATOM      7  C   LIG    1        5.435  -0.045  -0.441  0.00  0.00    +0.001 A 
ATOM      8  C   LIG    1        4.478   0.747  -1.107  0.00  0.00    +0.009 A 
ATOM      9  C   LIG    1        3.148   0.769  -0.687  0.00  0.00    +0.020 A 
ENDBRANCH   1   7
BRANCH   1  10
ATOM     10  O   LIG    1        7.391   1.327  -0.861  0.00  0.00    -0.365 OA
BRANCH  10  11
ATOM     11  C   LIG    1        7.482   1.821   0.481  0.00  0.00    +0.199 C 
BRANCH  11  12
ATOM     12  C   LIG    1        8.061   3.214   0.472  0.00  0.00    +0.015 A 
ATOM     13  C   LIG    1        7.240   4.350   0.323  0.00  0.00    +0.048 A 
ATOM     14 CL   LIG    1        5.523   4.229   0.132  0.00  0.00    -0.083 Cl
ATOM     15  C   LIG    1        7.780   5.643   0.328  0.00  0.00    +0.020 A 
ATOM     16  C   LIG    1        9.151   5.831   0.461  0.00  0.00    +0.003 A 
ATOM     17  C   LIG    1        9.982   4.724   0.595  0.00  0.00    +0.020 A 
ATOM     18  C   LIG    1        9.445   3.429   0.603  0.00  0.00    +0.048 A 
ATOM     19 CL   LIG    1       10.563   2.124   0.797  0.00  0.00    -0.083 Cl
ENDBRANCH  11  12
ENDBRANCH  10  11
ENDBRANCH   1  10
BRANCH   1  20
ATOM     20  C   LIG    1        6.944  -0.512  -2.393  0.00  0.00    +0.159 C 
BRANCH  20  21
ATOM     21  N   LIG    1        8.244  -1.050  -2.744  0.00  0.00    -0.334 N 
ATOM     22  C   LIG    1        8.635  -2.351  -2.594  0.00  0.00    +0.199 A 
ATOM     23  N   LIG    1        9.847  -2.544  -3.044  0.00  0.00    -0.244 NA
ATOM     24  C   LIG    1       10.265  -1.317  -3.495  0.00  0.00    +0.130 A 
ATOM     25  C   LIG    1        9.281  -0.374  -3.321  0.00  0.00    +0.107 A 
ENDBRANCH  20  21
ENDBRANCH   1  20
TORSDOF 6
