REMARK  Name = *****
REMARK                            x       y       z     vdW  Elec       q    Type
REMARK                         _______ _______ _______ _____ _____    ______ ____
ROOT
ATOM      1  C   LIG    1       10.725   3.602   6.147  0.00  0.00    +0.120 C 
ENDROOT
BRANCH   1   3
ATOM      2  C   LIG    1        8.992   5.258   6.848  0.00  0.00    +0.213 C 
ATOM      3  N   LIG    1        9.324   4.065   6.235  0.00  0.00    -0.308 N 
ATOM      4  H   LIG    1        8.636   3.588   5.668  0.00  0.00    +0.149 HD
ATOM      5  O   LIG    1        9.829   5.978   7.367  0.00  0.00    -0.276 OA
BRANCH   2   6
ATOM      6  C   LIG    1        7.504   5.645   6.761  0.00  0.00    +0.096 C 
BRANCH   6   7
ATOM      7  C   LIG    1        6.522   4.644   7.392  0.00  0.00    +0.009 C 
BRANCH   7   8
ATOM      8  C   LIG    1        5.041   5.100   7.336  0.00  0.00    +0.000 C 
BRANCH   8   9
ATOM      9  C   LIG    1        4.077   4.052   7.940  0.00  0.00    -0.000 C 
BRANCH   9  10
ATOM     10  C   LIG    1        2.587   4.442   7.869  0.00  0.00    -0.000 C 
BRANCH  10  12
ATOM     11  C   LIG    1        1.671   2.036   7.862  0.00  0.00    +0.004 C 
ATOM     12  C   LIG    1        1.644   3.410   8.517  0.00  0.00    -0.003 C 
ENDBRANCH  10  12
ENDBRANCH   9  10
ENDBRANCH   8   9
ENDBRANCH   7   8
ENDBRANCH   6   7
ENDBRANCH   2   6
ENDBRANCH   1   3
BRANCH   1  13
ATOM     13  C   LIG    1       11.561   4.288   4.992  0.00  0.00    +0.166 C 
BRANCH  13  14
ATOM     14  C   LIG    1       11.173   3.960   3.558  0.00  0.00    -0.014 A 
ATOM     15  C   LIG    1        9.948   4.387   3.020  0.00  0.00    +0.055 A 
ATOM     16  C   LIG    1        9.599   4.093   1.699  0.00  0.00    +0.162 A 
ATOM     17  O   LIG    1        8.394   4.582   1.261  0.00  0.00    -0.485 OA
ATOM     18  C   LIG    1        8.198   4.380  -0.144  0.00  0.00    +0.270 C 
ATOM     19  C   LIG    1        8.709   3.016  -0.577  0.00  0.00    +0.270 C 
ATOM     20  O   LIG    1       10.124   2.921  -0.365  0.00  0.00    -0.485 OA
ATOM     21  C   LIG    1       10.452   3.326   0.904  0.00  0.00    +0.162 A 
ATOM     22  C   LIG    1       11.697   2.945   1.397  0.00  0.00    +0.050 A 
ATOM     23  C   LIG    1       12.062   3.275   2.710  0.00  0.00    +0.010 A 
ENDBRANCH  13  14
BRANCH  13  24
ATOM     24  O   LIG    1       11.577   5.716   5.097  0.00  0.00    -0.385 OA
ATOM     25  H   LIG    1       11.496   5.951   6.043  0.00  0.00    +0.210 HD
ENDBRANCH  13  24
ENDBRANCH   1  13
BRANCH   1  26
ATOM     26  C   LIG    1       10.831   2.044   6.078  0.00  0.00    +0.109 C 
BRANCH  26  27
ATOM     27  N   LIG    1       10.273   1.284   7.223  0.00  0.00    -0.300 NA
ATOM     28  C   LIG    1       10.463  -0.168   7.054  0.00  0.00    +0.084 C 
ATOM     29  C   LIG    1       10.452  -0.759   8.462  0.00  0.00    +0.017 C 
ATOM     30  C   LIG    1       10.466   0.440   9.395  0.00  0.00    +0.017 C 
ATOM     31  C   LIG    1       10.904   1.596   8.510  0.00  0.00    +0.084 C 
ENDBRANCH  26  27
ENDBRANCH   1  26
TORSDOF 12
