REMARK  Name = *****
REMARK                            x       y       z     vdW  Elec       q    Type
REMARK                         _______ _______ _______ _____ _____    ______ ____
ROOT
ATOM      1  C   LIG    1        2.765   0.314   2.047  0.00  0.00    +0.276 C 
ATOM      2  N   LIG    1        3.242   0.512   0.680  0.00  0.00    -0.224 N 
ATOM      3  C   LIG    1        3.047  -0.447  -0.314  0.00  0.00    +0.307 C 
ATOM      4  N   LIG    1        3.867  -0.643  -1.304  0.00  0.00    -0.083 NA
ATOM      5  C   LIG    1        5.073   0.173  -1.396  0.00  0.00    +0.294 C 
ATOM      6  C   LIG    1        4.845   1.559  -0.838  0.00  0.00    +0.093 C 
ATOM      7  C   LIG    1        4.396   1.405   0.597  0.00  0.00    +0.229 C 
ENDROOT
BRANCH   3   8
ATOM      8  C   LIG    1        1.877  -1.393  -0.369  0.00  0.00    +0.100 C 
ATOM      9  C   LIG    1        0.580  -1.230  -0.090  0.00  0.00    +0.023 C 
BRANCH   9  10
ATOM     10  C   LIG    1       -0.050  -0.017   0.306  0.00  0.00    +0.012 A 
ATOM     11  S   LIG    1       -1.426  -0.078   1.348  0.00  0.00    -0.097 S 
ATOM     12  C   LIG    1       -1.533   1.624   1.438  0.00  0.00    +0.045 A 
ATOM     13  C   LIG    1       -0.576   2.241   0.668  0.00  0.00    +0.008 A 
ATOM     14  C   LIG    1        0.249   1.298  -0.009  0.00  0.00    +0.015 A 
ENDBRANCH   9  10
ENDBRANCH   3   8
TORSDOF 2
