REMARK  Name = *****
REMARK                            x       y       z     vdW  Elec       q    Type
REMARK                         _______ _______ _______ _____ _____    ______ ____
ROOT
ATOM      1  C   LIG    1       -6.127   3.248  -0.237  0.00  0.00    +0.129 C 
ATOM      2  C   LIG    1       -5.225   3.012   0.998  0.00  0.00    +0.061 C 
ATOM      3  C   LIG    1       -4.095   1.994   0.787  0.00  0.00    +0.190 C 
ATOM      4  C   LIG    1       -3.146   1.990   1.996  0.00  0.00    +0.141 C 
ATOM      5  C   LIG    1       -3.144   2.958   2.941  0.00  0.00    +0.047 C 
ATOM      6  C   LIG    1       -4.042   4.177   2.883  0.00  0.00    +0.062 C 
ATOM      7  C   LIG    1       -3.332   5.447   3.428  0.00  0.00    +0.096 C 
ATOM      8  C   LIG    1       -4.218   6.694   3.258  0.00  0.00    +0.047 C 
ATOM      9  C   LIG    1       -2.920   5.162   4.868  0.00  0.00    -0.002 A 
ATOM     10  C   LIG    1       -2.394   3.892   5.194  0.00  0.00    +0.069 A 
ATOM     11  C   LIG    1       -2.000   3.607   6.511  0.00  0.00    +0.128 A 
ATOM     12  C   LIG    1       -2.151   4.556   7.514  0.00  0.00    +0.046 A 
ATOM     13  C   LIG    1       -2.677   5.807   7.209  0.00  0.00    +0.004 A 
ATOM     14  C   LIG    1       -3.048   6.112   5.897  0.00  0.00    +0.007 A 
ATOM     15  C   LIG    1       -2.296   2.829   4.162  0.00  0.00    +0.197 C 
ATOM     16  O   LIG    1       -1.590   1.840   4.357  0.00  0.00    -0.287 OA
ATOM     17  C   LIG    1       -3.328   2.263  -0.526  0.00  0.00    +0.210 C 
ATOM     18  O   LIG    1       -2.149   1.929  -0.674  0.00  0.00    -0.288 OA
ATOM     19  C   LIG    1       -4.050   2.903  -1.674  0.00  0.00    +0.121 C 
ATOM     20  C   LIG    1       -4.625   4.352   1.474  0.00  0.00    +0.020 C 
ATOM     21  C   LIG    1       -5.275   3.442  -1.486  0.00  0.00    +0.127 C 
ENDROOT
BRANCH  19  22
ATOM     22  C   LIG    1       -3.470   2.893  -3.058  0.00  0.00    +0.252 C 
ATOM     23  N   LIG    1       -2.460   2.008  -3.262  0.00  0.00    -0.298 N 
ATOM     24  H   LIG    1       -2.036   1.539  -2.465  0.00  0.00    +0.150 HD
ATOM     25  O   LIG    1       -3.966   3.578  -3.967  0.00  0.00    -0.270 OA
BRANCH  23  26
ATOM     26  C   LIG    1       -1.853   1.722  -4.520  0.00  0.00    +0.192 C 
BRANCH  26  27
ATOM     27  N   LIG    1       -1.237   0.418  -4.364  0.00  0.00    -0.287 NA
ATOM     28  C   LIG    1       -0.416   0.013  -5.508  0.00  0.00    +0.086 C 
ATOM     29  C   LIG    1       -0.618  -1.494  -5.654  0.00  0.00    +0.017 C 
ATOM     30  C   LIG    1       -1.335  -1.899  -4.383  0.00  0.00    +0.017 C 
ATOM     31  C   LIG    1       -2.172  -0.673  -4.078  0.00  0.00    +0.086 C 
ENDBRANCH  26  27
ENDBRANCH  23  26
ENDBRANCH  19  22
BRANCH   1  33
ATOM     32  C   LIG    1       -8.129   2.676  -1.530  0.00  0.00    +0.105 C 
ATOM     33  N   LIG    1       -7.170   2.211  -0.507  0.00  0.00    -0.298 NA
ATOM     34  C   LIG    1       -7.945   1.826   0.675  0.00  0.00    +0.105 C 
ENDBRANCH   1  33
BRANCH   3  35
ATOM     35  O   LIG    1       -4.622   0.667   0.692  0.00  0.00    -0.373 OA
ATOM     36  H   LIG    1       -3.851   0.086   0.870  0.00  0.00    +0.211 HD
ENDBRANCH   3  35
BRANCH   4  37
ATOM     37  O   LIG    1       -2.386   0.828   2.107  0.00  0.00    -0.507 OA
ATOM     38  H   LIG    1       -1.818   0.901   2.908  0.00  0.00    +0.292 HD
ENDBRANCH   4  37
BRANCH   7  39
ATOM     39  O   LIG    1       -2.152   5.689   2.656  0.00  0.00    -0.384 OA
ATOM     40  H   LIG    1       -1.513   6.168   3.214  0.00  0.00    +0.211 HD
ENDBRANCH   7  39
BRANCH  11  41
ATOM     41  O   LIG    1       -1.477   2.402   6.896  0.00  0.00    -0.506 OA
ATOM     42  H   LIG    1       -1.327   1.859   6.090  0.00  0.00    +0.292 HD
ENDBRANCH  11  41
BRANCH  21  43
ATOM     43  O   LIG    1       -5.918   4.219  -2.450  0.00  0.00    -0.509 OA
ATOM     44  H   LIG    1       -5.487   4.070  -3.321  0.00  0.00    +0.292 HD
ENDBRANCH  21  43
TORSDOF 9
