REMARK  Name = *****
REMARK                            x       y       z     vdW  Elec       q    Type
REMARK                         _______ _______ _______ _____ _____    ______ ____
ROOT
ATOM      1  C   LIG    1        3.860   0.976  -0.816  0.00  0.00    +0.125 A 
ATOM      2  C   LIG    1        3.954   0.502  -2.127  0.00  0.00    +0.069 A 
ATOM      3 CL   LIG    1        4.099  -1.168  -2.545  0.00  0.00    -0.082 Cl
ATOM      4  C   LIG    1        3.928   1.412  -3.197  0.00  0.00    +0.047 A 
ATOM      5  C   LIG    1        3.788   2.786  -2.979  0.00  0.00    +0.057 A 
ATOM      6  N   LIG    1        3.708   3.664  -4.043  0.00  0.00    -0.326 N 
ATOM      7  H   LIG    1        3.831   3.262  -4.966  0.00  0.00    +0.148 HD
ATOM      8  C   LIG    1        2.870   4.858  -4.014  0.00  0.00    +0.163 C 
ATOM      9  N   LIG    1        2.571   5.333  -2.679  0.00  0.00    -0.170 NA
ATOM     10  H   LIG    1        1.604   5.384  -2.375  0.00  0.00    +0.150 HD
ATOM     11  S   LIG    1        3.606   4.959  -1.440  0.00  0.00    +0.062 S 
ATOM     12  O   LIG    1        2.852   5.194  -0.227  0.00  0.00    -0.153 OA
ATOM     13  O   LIG    1        4.895   5.566  -1.674  0.00  0.00    -0.153 OA
ATOM     14  C   LIG    1        3.747   3.227  -1.662  0.00  0.00    +0.128 A 
ATOM     15  C   LIG    1        3.761   2.353  -0.575  0.00  0.00    +0.060 A 
ENDROOT
BRANCH   8  16
ATOM     16  C   LIG    1        1.540   4.530  -4.727  0.00  0.00    +0.033 C 
ATOM     17  C   LIG    1        0.519   5.697  -4.837  0.00  0.00    +0.018 C 
ATOM     18  C   LIG    1       -0.430   5.128  -5.900  0.00  0.00    +0.015 C 
ATOM     19  C   LIG    1        0.672   4.994  -6.952  0.00  0.00    +0.012 C 
ATOM     20  C   LIG    1        1.211   6.405  -6.909  0.00  0.00    -0.027 C 
ATOM     21  C   LIG    1        1.116   6.828  -5.639  0.00  0.00    -0.027 C 
ATOM     22  C   LIG    1        1.692   4.094  -6.225  0.00  0.00    +0.015 C 
ENDBRANCH   8  16
BRANCH   1  23
ATOM     23  S   LIG    1        3.812  -0.122   0.564  0.00  0.00    +0.057 S 
ATOM     24  O   LIG    1        3.863   0.657   1.779  0.00  0.00    -0.153 OA
ATOM     25  O   LIG    1        2.790  -1.116   0.342  0.00  0.00    -0.153 OA
BRANCH  23  26
ATOM     26  N   LIG    1        5.296  -0.899   0.491  0.00  0.00    -0.203 NA
ATOM     27  H   LIG    1        5.834  -0.703   1.337  0.00  0.00    +0.144 HD
ATOM     28  H   LIG    1        5.160  -1.894   0.309  0.00  0.00    +0.144 HD
ENDBRANCH  23  26
ENDBRANCH   1  23
TORSDOF 3
