REMARK  Name = *****
REMARK                            x       y       z     vdW  Elec       q    Type
REMARK                         _______ _______ _______ _____ _____    ______ ____
ROOT
ATOM      1  C   LIG    1        3.836  -6.124   0.100  0.00  0.00    +0.190 C 
ENDROOT
BRANCH   1   2
ATOM      2  C   LIG    1        2.845  -7.288  -0.270  0.00  0.00    +0.036 C 
ATOM      3  C   LIG    1        1.969  -7.004  -1.516  0.00  0.00    +0.007 C 
ATOM      4  C   LIG    1        2.660  -7.251  -2.851  0.00  0.00    +0.000 C 
ATOM      5  C   LIG    1        3.234  -8.657  -2.924  0.00  0.00    +0.000 C 
ATOM      6  C   LIG    1        4.159  -8.957  -1.753  0.00  0.00    +0.000 C 
ATOM      7  C   LIG    1        3.501  -8.681  -0.407  0.00  0.00    +0.007 C 
ENDBRANCH   1   2
BRANCH   1   8
ATOM      8  C   LIG    1        4.680  -6.362   1.371  0.00  0.00    -0.005 A 
ATOM      9  C   LIG    1        4.169  -7.066   2.476  0.00  0.00    +0.007 A 
ATOM     10  C   LIG    1        4.913  -7.216   3.650  0.00  0.00    +0.000 A 
ATOM     11  C   LIG    1        6.176  -6.643   3.758  0.00  0.00    +0.000 A 
ATOM     12  C   LIG    1        6.708  -5.945   2.680  0.00  0.00    +0.000 A 
ATOM     13  C   LIG    1        5.971  -5.809   1.499  0.00  0.00    +0.007 A 
ENDBRANCH   1   8
BRANCH   1  14
ATOM     14  C   LIG    1        3.059  -4.784   0.298  0.00  0.00    +0.345 C 
ATOM     15  O   LIG    1        3.548  -3.687   0.002  0.00  0.00    -0.247 OA
BRANCH  14  16
ATOM     16  O   LIG    1        1.824  -4.974   0.819  0.00  0.00    -0.450 OA
BRANCH  16  17
ATOM     17  C   LIG    1        1.001  -3.826   1.041  0.00  0.00    +0.359 C 
BRANCH  17  20
ATOM     18  C   LIG    1        0.756  -2.345  -1.567  0.00  0.00    +0.276 C 
ATOM     19  N   LIG    1       -0.260  -3.285  -1.120  0.00  0.00    -0.224 N 
ATOM     20  C   LIG    1       -0.263  -3.865   0.148  0.00  0.00    +0.321 C 
ATOM     21  N   LIG    1       -1.272  -4.490   0.666  0.00  0.00    -0.084 NA
ATOM     22  C   LIG    1       -2.522  -4.583  -0.087  0.00  0.00    +0.294 C 
ATOM     23  C   LIG    1       -2.302  -4.498  -1.583  0.00  0.00    +0.093 C 
ATOM     24  C   LIG    1       -1.508  -3.243  -1.875  0.00  0.00    +0.229 C 
ENDBRANCH  17  20
ENDBRANCH  16  17
ENDBRANCH  14  16
ENDBRANCH   1  14
BRANCH   1  25
ATOM     25  O   LIG    1        4.749  -5.944  -1.000  0.00  0.00    -0.373 OA
ATOM     26  H   LIG    1        4.914  -4.982  -1.059  0.00  0.00    +0.211 HD
ENDBRANCH   1  25
TORSDOF 7
