REMARK  Name = *****
REMARK                            x       y       z     vdW  Elec       q    Type
REMARK                         _______ _______ _______ _____ _____    ______ ____
ROOT
ATOM      1  C   LIG    1        8.202  10.549  13.330  0.00  0.00    -0.000 C 
ATOM      2  C   LIG    1        7.025  10.033  12.868  0.00  0.00    -0.066 C 
ATOM      3  C   LIG    1        6.403   8.720  13.352  0.00  0.00    +0.021 C 
ATOM      4  C   LIG    1        7.266   7.739  14.165  0.00  0.00    +0.009 C 
ATOM      5  C   LIG    1        6.683   6.360  13.885  0.00  0.00    +0.005 C 
ATOM      6  C   LIG    1        6.313   6.385  12.393  0.00  0.00    +0.002 C 
ATOM      7  C   LIG    1        5.734   7.845  12.219  0.00  0.00    -0.022 C 
ATOM      8  C   LIG    1        4.202   7.771  12.514  0.00  0.00    +0.012 C 
ATOM      9  C   LIG    1        5.907   8.466  10.821  0.00  0.00    +0.008 C 
ATOM     10  C   LIG    1        5.553   9.942  10.754  0.00  0.00    +0.005 C 
ATOM     11  C   LIG    1        6.131  10.782  11.898  0.00  0.00    +0.031 C 
ENDROOT
BRANCH   1  19
ATOM     12  C   LIG    1        9.928  12.530  15.891  0.00  0.00    +0.015 C 
ATOM     13  C   LIG    1        9.068  13.087  15.006  0.00  0.00    -0.023 C 
ATOM     14  C   LIG    1        8.086  14.200  15.327  0.00  0.00    +0.147 C 
ATOM     15  C   LIG    1        8.601  15.514  14.729  0.00  0.00    +0.067 C 
ATOM     16  C   LIG    1        8.936  15.375  13.240  0.00  0.00    +0.122 C 
ATOM     17  C   LIG    1        9.753  14.109  12.896  0.00  0.00    +0.067 C 
ATOM     18  C   LIG    1        9.191  12.871  13.578  0.00  0.00    -0.040 C 
ATOM     19  C   LIG    1        8.813  11.782  12.863  0.00  0.00    +0.004 C 
BRANCH  14  20
ATOM     20  O   LIG    1        7.935  14.387  16.742  0.00  0.00    -0.387 OA
ATOM     21  H   LIG    1        7.622  13.534  17.093  0.00  0.00    +0.210 HD
ENDBRANCH  14  20
BRANCH  16  22
ATOM     22  O   LIG    1        7.732  15.403  12.469  0.00  0.00    -0.391 OA
ATOM     23  H   LIG    1        7.303  14.533  12.544  0.00  0.00    +0.210 HD
ENDBRANCH  16  22
ENDBRANCH   1  19
BRANCH   6  24
ATOM     24  C   LIG    1        7.476   5.860  11.470  0.00  0.00    +0.012 C 
ATOM     25  C   LIG    1        8.792   6.638  11.569  0.00  0.00    +0.012 C 
BRANCH  24  26
ATOM     26  C   LIG    1        7.014   5.701  10.037  0.00  0.00    -0.027 C 
ATOM     27  C   LIG    1        7.729   5.269   8.982  0.00  0.00    -0.027 C 
BRANCH  27  28
ATOM     28  C   LIG    1        7.236   5.218   7.538  0.00  0.00    +0.011 C 
ATOM     29  C   LIG    1        5.882   5.929   7.348  0.00  0.00    +0.012 C 
BRANCH  28  30
ATOM     30  C   LIG    1        7.246   3.760   7.000  0.00  0.00    -0.011 C 
ATOM     31  C   LIG    1        7.012   3.693   5.484  0.00  0.00    +0.008 C 
ATOM     32  C   LIG    1        6.245   2.857   7.725  0.00  0.00    +0.008 C 
ENDBRANCH  28  30
ENDBRANCH  27  28
ENDBRANCH  24  26
ENDBRANCH   6  24
TORSDOF 7
