REMARK  Name = *****
REMARK                            x       y       z     vdW  Elec       q    Type
REMARK                         _______ _______ _______ _____ _____    ______ ____
ROOT
ATOM      1  C   LIG    1        8.511  -0.760  -2.811  0.00  0.00    +0.403 C 
ATOM      2  N   LIG    1        8.776  -1.379  -4.002  0.00  0.00    -0.281 N 
ATOM      3  H   LIG    1        8.156  -2.169  -4.253  0.00  0.00    +0.152 HD
ATOM      4  O   LIG    1        9.065   0.245  -2.457  0.00  0.00    -0.226 OA
ENDROOT
BRANCH   1   5
ATOM      5  O   LIG    1        7.634  -1.482  -2.052  0.00  0.00    -0.411 OA
BRANCH   5   6
ATOM      6  C   LIG    1        7.545  -0.979  -0.704  0.00  0.00    +0.368 C 
ATOM      7  C   LIG    1        8.031  -2.061   0.243  0.00  0.00    +0.100 C 
BRANCH   6   8
ATOM      8  O   LIG    1        6.206  -0.650  -0.316  0.00  0.00    -0.425 OA
BRANCH   8   9
ATOM      9  C   LIG    1        5.998   0.670  -0.062  0.00  0.00    +0.312 C 
ATOM     10  O   LIG    1        6.735   1.585  -0.409  0.00  0.00    -0.251 OA
BRANCH   9  12
ATOM     11  C   LIG    1        5.262   0.826   2.292  0.00  0.00    +0.019 C 
ATOM     12  C   LIG    1        4.794   0.847   0.838  0.00  0.00    +0.092 C 
ATOM     13  C   LIG    1        4.091   2.159   0.508  0.00  0.00    +0.019 C 
ENDBRANCH   9  12
ENDBRANCH   8   9
ENDBRANCH   6   8
ENDBRANCH   5   6
ENDBRANCH   1   5
BRANCH   2  14
ATOM     14  C   LIG    1        9.652  -0.846  -5.060  0.00  0.00    +0.115 C 
BRANCH  14  15
ATOM     15  C   LIG    1       11.194  -1.073  -4.877  0.00  0.00    -0.004 C 
ATOM     16  C   LIG    1       11.495  -2.599  -4.736  0.00  0.00    +0.009 C 
ATOM     17  C   LIG    1       11.341  -3.404  -6.031  0.00  0.00    +0.001 C 
ATOM     18  C   LIG    1       12.191  -2.826  -7.153  0.00  0.00    +0.000 C 
ATOM     19  C   LIG    1       11.853  -1.362  -7.393  0.00  0.00    +0.001 C 
ATOM     20  C   LIG    1       11.985  -0.535  -6.115  0.00  0.00    +0.009 C 
BRANCH  15  21
ATOM     21  C   LIG    1       11.757  -0.349  -3.614  0.00  0.00    +0.128 C 
BRANCH  21  22
ATOM     22  C   LIG    1       11.741   1.176  -3.613  0.00  0.00    +0.305 C 
ATOM     23  O   LIG    1       12.598   1.851  -4.157  0.00  0.00    -0.251 OA
BRANCH  22  24
ATOM     24  O   LIG    1       10.734   1.765  -2.943  0.00  0.00    -0.481 OA
ATOM     25  H   LIG    1       10.076   1.146  -2.554  0.00  0.00    +0.295 HD
ENDBRANCH  22  24
ENDBRANCH  21  22
ENDBRANCH  15  21
ENDBRANCH  14  15
ENDBRANCH   2  14
TORSDOF 10
