REMARK  Name = *****
REMARK                            x       y       z     vdW  Elec       q    Type
REMARK                         _______ _______ _______ _____ _____    ______ ____
ROOT
ATOM      1  C   LIG    1        6.073  -7.297  -8.983  0.00  0.00    +0.185 C 
ATOM      2  O   LIG    1        6.058  -8.732  -9.018  0.00  0.00    -0.334 OA
ATOM      3  C   LIG    1        6.738  -9.207  -7.837  0.00  0.00    +0.217 C 
ATOM      4  O   LIG    1        6.915  -8.085  -6.943  0.00  0.00    -0.341 OA
ATOM      5  C   LIG    1        6.306  -6.944  -7.536  0.00  0.00    +0.198 C 
ENDROOT
BRANCH   3   6
ATOM      6  C   LIG    1        8.111  -9.748  -8.264  0.00  0.00    +0.031 A 
ATOM      7  C   LIG    1        8.298 -10.820  -9.162  0.00  0.00    +0.051 A 
ATOM      8 CL   LIG    1        7.005 -11.775  -9.800  0.00  0.00    -0.083 Cl
ATOM      9  C   LIG    1        9.581 -11.199  -9.587  0.00  0.00    +0.040 A 
ATOM     10  C   LIG    1       10.703 -10.546  -9.096  0.00  0.00    +0.042 A 
ATOM     11 CL   LIG    1       12.270 -11.019  -9.623  0.00  0.00    -0.084 Cl
ATOM     12  C   LIG    1       10.561  -9.520  -8.175  0.00  0.00    +0.020 A 
ATOM     13  C   LIG    1        9.282  -9.122  -7.772  0.00  0.00    +0.012 A 
ENDBRANCH   3   6
BRANCH   1  14
ATOM     14  C   LIG    1        4.730  -6.774  -9.495  0.00  0.00    +0.263 C 
BRANCH  14  15
ATOM     15  O   LIG    1        4.623  -5.346  -9.459  0.00  0.00    -0.489 OA
BRANCH  15  19
ATOM     16  C   LIG    1        0.872  -3.780 -10.617  0.00  0.00    +0.030 A 
ATOM     17  C   LIG    1        2.076  -3.080 -10.801  0.00  0.00    +0.027 A 
ATOM     18  C   LIG    1        3.314  -3.616 -10.403  0.00  0.00    +0.047 A 
ATOM     19  C   LIG    1        3.378  -4.879  -9.821  0.00  0.00    +0.121 A 
ATOM     20  C   LIG    1        2.184  -5.573  -9.614  0.00  0.00    +0.047 A 
ATOM     21  C   LIG    1        0.955  -5.038 -10.017  0.00  0.00    +0.027 A 
BRANCH  16  27
ATOM     22  C   LIG    1       -2.881   0.332 -13.385  0.00  0.00    +0.109 C 
ATOM     23  C   LIG    1       -2.921  -1.186 -13.528  0.00  0.00    +0.213 C 
ATOM     24  N   LIG    1       -2.479  -1.893 -12.439  0.00  0.00    -0.299 N 
ATOM     25  C   LIG    1       -2.389  -3.373 -12.486  0.00  0.00    +0.126 C 
ATOM     26  C   LIG    1       -0.952  -3.885 -12.203  0.00  0.00    +0.124 C 
ATOM     27  N   LIG    1       -0.396  -3.271 -10.962  0.00  0.00    -0.327 N 
ATOM     28  C   LIG    1       -0.498  -1.797 -10.944  0.00  0.00    +0.124 C 
ATOM     29  C   LIG    1       -1.939  -1.337 -11.193  0.00  0.00    +0.126 C 
ATOM     30  O   LIG    1       -3.322  -1.711 -14.549  0.00  0.00    -0.276 OA
ENDBRANCH  16  27
ENDBRANCH  15  19
ENDBRANCH  14  15
ENDBRANCH   1  14
BRANCH   3  31
ATOM     31  C   LIG    1        5.799 -10.227  -7.142  0.00  0.00    +0.193 C 
BRANCH  31  32
ATOM     32  N   LIG    1        6.313 -10.788  -5.912  0.00  0.00    -0.331 N 
ATOM     33  C   LIG    1        6.116 -10.290  -4.656  0.00  0.00    +0.199 A 
ATOM     34  N   LIG    1        6.736 -11.015  -3.753  0.00  0.00    -0.244 NA
ATOM     35  C   LIG    1        7.323 -12.039  -4.451  0.00  0.00    +0.130 A 
ATOM     36  C   LIG    1        7.027 -11.947  -5.790  0.00  0.00    +0.107 A 
ENDBRANCH  31  32
ENDBRANCH   3  31
TORSDOF 7
