REMARK  Name = *****
REMARK                            x       y       z     vdW  Elec       q    Type
REMARK                         _______ _______ _______ _____ _____    ______ ____
ROOT
ATOM      1  C   LIG    1        4.874   1.777  -2.250  0.00  0.00    +0.237 C 
ATOM      2  N   LIG    1        3.918   2.140  -1.312  0.00  0.00    -0.288 N 
ATOM      3  C   LIG    1        3.131   1.115  -0.605  0.00  0.00    +0.166 C 
ATOM      4  C   LIG    1        2.248   1.915   0.350  0.00  0.00    +0.029 C 
ATOM      5  C   LIG    1        2.700   2.678   1.592  0.00  0.00    -0.025 C 
ATOM      6  C   LIG    1        1.651   3.164   2.566  0.00  0.00    +0.011 C 
ATOM      7  C   LIG    1        4.010   2.335   2.250  0.00  0.00    +0.011 C 
ATOM      8  C   LIG    1        2.662   3.350   0.235  0.00  0.00    +0.018 C 
ATOM      9  C   LIG    1        3.829   3.442  -0.682  0.00  0.00    +0.113 C 
ATOM     10  O   LIG    1        4.919   0.627  -2.701  0.00  0.00    -0.274 OA
ENDROOT
BRANCH   3  11
ATOM     11  C   LIG    1        2.223   0.309  -1.554  0.00  0.00    +0.234 C 
ATOM     12  N   LIG    1        1.943  -0.989  -1.139  0.00  0.00    -0.304 N 
ATOM     13  H   LIG    1        2.229  -1.254  -0.202  0.00  0.00    +0.149 HD
ATOM     14  O   LIG    1        1.708   0.841  -2.534  0.00  0.00    -0.274 OA
BRANCH  12  15
ATOM     15  C   LIG    1        0.966  -1.861  -1.816  0.00  0.00    +0.149 C 
BRANCH  15  16
ATOM     16  C   LIG    1        1.177  -1.964  -3.339  0.00  0.00    +0.237 C 
ATOM     17  O   LIG    1        1.626  -1.137  -4.113  0.00  0.00    -0.285 OA
BRANCH  16  18
ATOM     18  C   LIG    1        0.909  -3.325  -3.944  0.00  0.00    +0.279 C 
ATOM     19  O   LIG    1       -0.179  -3.817  -3.920  0.00  0.00    -0.267 OA
ATOM     20  N   LIG    1        2.031  -3.874  -4.521  0.00  0.00    -0.323 N 
ATOM     21  H   LIG    1        1.909  -4.672  -5.122  0.00  0.00    +0.145 HD
ATOM     22  H   LIG    1        2.851  -3.293  -4.642  0.00  0.00    +0.145 HD
ENDBRANCH  16  18
ENDBRANCH  15  16
BRANCH  15  23
ATOM     23  C   LIG    1       -0.491  -1.636  -1.378  0.00  0.00    +0.034 C 
BRANCH  23  24
ATOM     24  C   LIG    1       -1.009  -0.249  -1.716  0.00  0.00    -0.009 C 
ATOM     25  C   LIG    1       -1.442   0.019  -3.183  0.00  0.00    +0.004 C 
ATOM     26  C   LIG    1       -2.540   0.931  -2.604  0.00  0.00    +0.000 C 
ATOM     27  C   LIG    1       -2.474   0.070  -1.324  0.00  0.00    +0.004 C 
ENDBRANCH  23  24
ENDBRANCH  15  23
ENDBRANCH  12  15
ENDBRANCH   3  11
BRANCH   1  28
ATOM     28  C   LIG    1        5.981   2.826  -2.615  0.00  0.00    +0.166 C 
BRANCH  28  32
ATOM     29  N   LIG    1        8.905   1.846  -0.514  0.00  0.00    -0.295 N 
ATOM     30  H   LIG    1        9.300   1.329  -1.279  0.00  0.00    +0.151 HD
ATOM     31  C   LIG    1        7.669   2.433  -0.749  0.00  0.00    +0.301 C 
ATOM     32  N   LIG    1        7.281   2.316  -2.079  0.00  0.00    -0.288 N 
ATOM     33  H   LIG    1        7.792   1.687  -2.674  0.00  0.00    +0.151 HD
ATOM     34  O   LIG    1        7.027   3.023   0.101  0.00  0.00    -0.253 OA
BRANCH  29  36
ATOM     35  C   LIG    1       11.053   1.164   0.527  0.00  0.00    +0.031 C 
ATOM     36  C   LIG    1        9.692   1.869   0.759  0.00  0.00    +0.028 C 
ATOM     37  C   LIG    1        9.992   3.304   1.224  0.00  0.00    +0.031 C 
ATOM     38  C   LIG    1        8.985   1.149   1.922  0.00  0.00    +0.031 C 
ENDBRANCH  29  36
ENDBRANCH  28  32
BRANCH  28  39
ATOM     39  C   LIG    1        6.038   3.183  -4.158  0.00  0.00    -0.011 C 
ATOM     40  C   LIG    1        4.724   3.870  -4.606  0.00  0.00    +0.013 C 
ATOM     41  C   LIG    1        6.275   1.972  -5.083  0.00  0.00    +0.013 C 
ATOM     42  C   LIG    1        7.175   4.199  -4.423  0.00  0.00    +0.013 C 
ENDBRANCH  28  39
ENDBRANCH   1  28
TORSDOF 10
