REMARK  Name = *****
REMARK                            x       y       z     vdW  Elec       q    Type
REMARK                         _______ _______ _______ _____ _____    ______ ____
ROOT
ATOM      1  C   LIG    1       -5.876   6.779   0.047  0.00  0.00    +0.014 C 
ATOM      2  C   LIG    1       -5.708   6.456  -1.445  0.00  0.00    +0.037 C 
ATOM      3  C   LIG    1       -6.937   6.966  -2.268  0.00  0.00    +0.127 C 
ATOM      4  C   LIG    1       -8.184   6.035  -2.373  0.00  0.00    +0.056 C 
ATOM      5  C   LIG    1       -9.033   6.045  -1.095  0.00  0.00    +0.014 C 
ATOM      6  C   LIG    1       -7.956   4.577  -2.888  0.00  0.00    +0.179 C 
ATOM      7  C   LIG    1       -6.962   4.472  -4.040  0.00  0.00    +0.052 C 
ATOM      8  O   LIG    1       -7.723   3.701  -1.758  0.00  0.00    -0.461 OA
ATOM      9  C   LIG    1       -7.345   2.413  -1.948  0.00  0.00    +0.310 C 
ATOM     10  O   LIG    1       -6.522   2.030  -2.776  0.00  0.00    -0.251 OA
ATOM     11  C   LIG    1       -8.020   1.525  -0.940  0.00  0.00    +0.152 C 
ATOM     12  C   LIG    1       -7.900   0.029  -1.246  0.00  0.00    +0.128 C 
ATOM     13  C   LIG    1       -8.926  -0.548  -2.242  0.00  0.00    +0.063 C 
ATOM     14  C   LIG    1       -8.681  -0.339  -3.743  0.00  0.00    +0.119 C 
ATOM     15  C   LIG    1       -7.298  -0.809  -4.217  0.00  0.00    +0.062 C 
ATOM     16  C   LIG    1       -7.054  -0.783  -5.743  0.00  0.00    +0.117 C 
ATOM     17  C   LIG    1       -5.650  -0.255  -6.118  0.00  0.00    +0.034 C 
ATOM     18  C   LIG    1       -5.534   1.283  -6.077  0.00  0.00    +0.036 C 
ATOM     19  C   LIG    1       -4.371   1.837  -5.237  0.00  0.00    +0.143 C 
ATOM     20  C   LIG    1       -2.987   1.677  -5.896  0.00  0.00    +0.150 C 
ATOM     21  C   LIG    1       -1.817   1.821  -4.915  0.00  0.00    +0.108 C 
ATOM     22  C   LIG    1       -1.895   3.080  -4.067  0.00  0.00    +0.138 C 
ATOM     23  O   LIG    1       -2.236   4.158  -4.561  0.00  0.00    -0.297 OA
ATOM     24  C   LIG    1       -1.440   2.967  -2.622  0.00  0.00    +0.106 C 
ATOM     25  C   LIG    1       -2.516   3.336  -1.593  0.00  0.00    +0.138 C 
ATOM     26  C   LIG    1       -2.315   2.666  -0.214  0.00  0.00    +0.155 C 
ATOM     27  C   LIG    1       -2.776   1.191  -0.117  0.00  0.00    +0.134 C 
ATOM     28  C   LIG    1       -2.335   0.388   1.131  0.00  0.00    +0.068 C 
ATOM     29  C   LIG    1       -0.852  -0.052   1.250  0.00  0.00    +0.147 C 
ATOM     30  C   LIG    1       -0.016   1.110   1.714  0.00  0.00    +0.004 C 
ATOM     31  C   LIG    1        0.828   1.839   0.971  0.00  0.00    -0.002 C 
ATOM     32  C   LIG    1        1.311   3.129   1.399  0.00  0.00    -0.000 C 
ATOM     33  C   LIG    1        1.873   3.950   0.502  0.00  0.00    +0.000 C 
ATOM     34  C   LIG    1        1.907   5.380   0.689  0.00  0.00    +0.000 C 
ATOM     35  C   LIG    1        2.045   6.181  -0.376  0.00  0.00    -0.000 C 
ATOM     36  C   LIG    1        1.711   7.582  -0.351  0.00  0.00    -0.004 C 
ATOM     37  C   LIG    1        1.568   8.272  -1.492  0.00  0.00    -0.026 C 
ATOM     38  C   LIG    1        1.033   9.671  -1.568  0.00  0.00    +0.031 C 
ATOM     39  C   LIG    1       -0.276   9.738  -2.371  0.00  0.00    +0.031 C 
ATOM     40  C   LIG    1       -1.473   9.187  -1.637  0.00  0.00    -0.026 C 
ATOM     41  C   LIG    1       -2.310   8.267  -2.144  0.00  0.00    -0.005 C 
ATOM     42  C   LIG    1       -3.505   7.819  -1.456  0.00  0.00    -0.004 C 
ATOM     43  C   LIG    1       -4.386   6.972  -2.014  0.00  0.00    -0.021 C 
ENDROOT
BRANCH   3  44
ATOM     44  O   LIG    1       -6.545   7.283  -3.615  0.00  0.00    -0.391 OA
ATOM     45  H   LIG    1       -7.183   7.929  -3.963  0.00  0.00    +0.210 HD
ENDBRANCH   3  44
BRANCH  12  46
ATOM     46  O   LIG    1       -8.106  -0.667   0.003  0.00  0.00    -0.391 OA
ATOM     47  H   LIG    1       -9.026  -0.512   0.282  0.00  0.00    +0.210 HD
ENDBRANCH  12  46
BRANCH  14  48
ATOM     48  O   LIG    1       -8.896   1.032  -4.060  0.00  0.00    -0.392 OA
ATOM     49  H   LIG    1       -8.737   1.087  -5.029  0.00  0.00    +0.210 HD
ENDBRANCH  14  48
BRANCH  16  50
ATOM     50  O   LIG    1       -8.058  -0.028  -6.421  0.00  0.00    -0.392 OA
ATOM     51  H   LIG    1       -7.872  -0.103  -7.375  0.00  0.00    +0.210 HD
ENDBRANCH  16  50
BRANCH  19  52
ATOM     52  O   LIG    1       -4.380   1.225  -3.950  0.00  0.00    -0.389 OA
ATOM     53  H   LIG    1       -5.259   1.463  -3.565  0.00  0.00    +0.210 HD
ENDBRANCH  19  52
BRANCH  20  54
ATOM     54  O   LIG    1       -2.841   2.609  -6.973  0.00  0.00    -0.389 OA
ATOM     55  H   LIG    1       -2.786   3.499  -6.564  0.00  0.00    +0.210 HD
ENDBRANCH  20  54
BRANCH  25  56
ATOM     56  O   LIG    1       -3.848   3.030  -2.009  0.00  0.00    -0.391 OA
ATOM     57  H   LIG    1       -3.823   2.140  -2.434  0.00  0.00    +0.210 HD
ENDBRANCH  25  56
BRANCH  26  58
ATOM     58  C   LIG    1       -3.072   3.445   0.845  0.00  0.00    +0.313 C 
ATOM     59  O   LIG    1       -2.653   3.608   1.984  0.00  0.00    -0.251 OA
BRANCH  58  60
ATOM     60  O   LIG    1       -4.305   3.855   0.469  0.00  0.00    -0.480 OA
ATOM     61  H   LIG    1       -4.493   3.663  -0.485  0.00  0.00    +0.295 HD
ENDBRANCH  58  60
ENDBRANCH  26  58
BRANCH  27  62
ATOM     62  O   LIG    1       -2.469   0.475  -1.315  0.00  0.00    -0.391 OA
ATOM     63  H   LIG    1       -1.698  -0.105  -1.128  0.00  0.00    +0.210 HD
ENDBRANCH  27  62
BRANCH  29  64
ATOM     64  O   LIG    1       -0.467  -0.641   0.009  0.00  0.00    -0.341 OA
BRANCH  64  65
ATOM     65  C   LIG    1        0.844  -1.208  -0.129  0.00  0.00    +0.281 C 
ATOM     66  C   LIG    1        1.267  -2.296   0.900  0.00  0.00    +0.189 C 
ATOM     67  C   LIG    1        0.714  -3.676   0.511  0.00  0.00    +0.116 C 
ATOM     68  C   LIG    1        1.223  -4.054  -0.899  0.00  0.00    +0.162 C 
ATOM     69  C   LIG    1        1.692  -2.829  -1.714  0.00  0.00    +0.148 C 
ATOM     70  C   LIG    1        1.648  -3.142  -3.209  0.00  0.00    +0.040 C 
ATOM     71  O   LIG    1        0.861  -1.694  -1.486  0.00  0.00    -0.343 OA
BRANCH  67  72
ATOM     72  N   LIG    1       -0.757  -3.748   0.612  0.00  0.00    -0.323 NA
ATOM     73  H   LIG    1       -1.041  -3.354   1.512  0.00  0.00    +0.119 HD
ATOM     74  H   LIG    1       -1.171  -3.115  -0.081  0.00  0.00    +0.119 HD
ENDBRANCH  67  72
BRANCH  66  75
ATOM     75  O   LIG    1        0.967  -1.981   2.261  0.00  0.00    -0.385 OA
ATOM     76  H   LIG    1        1.262  -2.724   2.815  0.00  0.00    +0.210 HD
ENDBRANCH  66  75
BRANCH  68  77
ATOM     77  O   LIG    1        2.323  -4.966  -0.775  0.00  0.00    -0.388 OA
ATOM     78  H   LIG    1        1.958  -5.798  -0.423  0.00  0.00    +0.210 HD
ENDBRANCH  68  77
ENDBRANCH  64  65
ENDBRANCH  29  64
TORSDOF 15
