MODEL 1
REMARK VINA RESULT:      -4.3      0.000      0.000
REMARK  Name = *****
REMARK                            x       y       z     vdW  Elec       q    Type
REMARK                         _______ _______ _______ _____ _____    ______ ____
ROOT
ATOM      1  C   LIG    1       26.247 -17.965   3.675  0.00  0.00    +0.121 A 
ATOM      2  C   LIG    1       25.300 -18.991   3.748  0.00  0.00    +0.055 A 
ATOM      3  C   LIG    1       25.495 -20.105   4.591  0.00  0.00    +0.027 A 
ATOM      4  C   LIG    1       26.672 -20.179   5.350  0.00  0.00    +0.126 A 
ATOM      5  C   LIG    1       27.654 -19.184   5.215  0.00  0.00    +0.049 A 
ATOM      6  C   LIG    1       27.425 -18.077   4.397  0.00  0.00    +0.049 A 
ENDROOT
BRANCH   1   8
ATOM      7  C   LIG    1       26.822 -15.679   3.410  0.00  0.00    +0.277 C 
ATOM      8  O   LIG    1       26.117 -16.822   2.939  0.00  0.00    -0.495 OA
ENDBRANCH   1   8
BRANCH   4   9
ATOM      9  O   LIG    1       26.820 -21.242   6.204  0.00  0.00    -0.495 OA
ATOM     10  C   LIG    1       27.959 -21.169   7.061  0.00  0.00    +0.277 C 
ENDBRANCH   4   9
BRANCH   3  11
ATOM     11  C   LIG    1       24.393 -21.151   4.679  0.00  0.00    +0.165 C 
BRANCH  11  12
ATOM     12  C   LIG    1       23.144 -20.687   5.496  0.00  0.00    +0.081 C 
ATOM     13  C   LIG    1       23.351 -20.791   7.004  0.00  0.00    +0.027 C 
BRANCH  12  14
ATOM     14  N   LIG    1       21.938 -21.456   5.118  0.00  0.00    -0.325 NA
ATOM     15  H   LIG    1       21.533 -20.977   4.307  0.00  0.00    +0.118 HD
ATOM     16  H   LIG    1       22.227 -22.367   4.759  0.00  0.00    +0.118 HD
ENDBRANCH  12  14
ENDBRANCH  11  12
BRANCH  11  17
ATOM     17  O   LIG    1       23.939 -21.485   3.352  0.00  0.00    -0.386 OA
ATOM     18  H   LIG    1       23.367 -20.760   3.048  0.00  0.00    +0.210 HD
ENDBRANCH  11  17
ENDBRANCH   3  11
TORSDOF 6
ENDMDL
MODEL 2
REMARK VINA RESULT:      -4.2      4.287      7.184
REMARK  Name = *****
REMARK                            x       y       z     vdW  Elec       q    Type
REMARK                         _______ _______ _______ _____ _____    ______ ____
ROOT
ATOM      1  C   LIG    1       24.627 -16.859   3.702  0.00  0.00    +0.121 A 
ATOM      2  C   LIG    1       25.637 -15.978   3.305  0.00  0.00    +0.055 A 
ATOM      3  C   LIG    1       25.511 -14.587   3.501  0.00  0.00    +0.027 A 
ATOM      4  C   LIG    1       24.338 -14.092   4.090  0.00  0.00    +0.126 A 
ATOM      5  C   LIG    1       23.295 -14.974   4.416  0.00  0.00    +0.049 A 
ATOM      6  C   LIG    1       23.456 -16.349   4.240  0.00  0.00    +0.049 A 
ENDROOT
BRANCH   1   8
ATOM      7  C   LIG    1       23.483 -18.928   3.887  0.00  0.00    +0.277 C 
ATOM      8  O   LIG    1       24.686 -18.221   3.611  0.00  0.00    -0.495 OA
ENDBRANCH   1   8
BRANCH   4   9
ATOM      9  O   LIG    1       24.256 -12.743   4.322  0.00  0.00    -0.495 OA
ATOM     10  C   LIG    1       23.845 -11.965   3.198  0.00  0.00    +0.277 C 
ENDBRANCH   4   9
BRANCH   3  11
ATOM     11  C   LIG    1       26.678 -13.690   3.113  0.00  0.00    +0.165 C 
BRANCH  11  12
ATOM     12  C   LIG    1       27.886 -13.760   4.103  0.00  0.00    +0.081 C 
ATOM     13  C   LIG    1       27.518 -13.321   5.517  0.00  0.00    +0.027 C 
BRANCH  12  14
ATOM     14  N   LIG    1       29.022 -12.944   3.623  0.00  0.00    -0.325 NA
ATOM     15  H   LIG    1       28.615 -12.096   3.215  0.00  0.00    +0.118 HD
ATOM     16  H   LIG    1       29.552 -12.609   4.429  0.00  0.00    +0.118 HD
ENDBRANCH  12  14
ENDBRANCH  11  12
BRANCH  11  17
ATOM     17  O   LIG    1       27.167 -14.071   1.812  0.00  0.00    -0.386 OA
ATOM     18  H   LIG    1       26.602 -14.793   1.488  0.00  0.00    +0.210 HD
ENDBRANCH  11  17
ENDBRANCH   3  11
TORSDOF 6
ENDMDL
MODEL 3
REMARK VINA RESULT:      -3.1      3.763      6.626
REMARK  Name = *****
REMARK                            x       y       z     vdW  Elec       q    Type
REMARK                         _______ _______ _______ _____ _____    ______ ____
ROOT
ATOM      1  C   LIG    1       26.079 -17.051   3.473  0.00  0.00    +0.121 A 
ATOM      2  C   LIG    1       25.246 -15.948   3.263  0.00  0.00    +0.055 A 
ATOM      3  C   LIG    1       25.730 -14.631   3.407  0.00  0.00    +0.027 A 
ATOM      4  C   LIG    1       27.068 -14.441   3.785  0.00  0.00    +0.126 A 
ATOM      5  C   LIG    1       27.878 -15.552   4.068  0.00  0.00    +0.049 A 
ATOM      6  C   LIG    1       27.385 -16.845   3.889  0.00  0.00    +0.049 A 
ENDROOT
BRANCH   1   8
ATOM      7  C   LIG    1       24.387 -18.703   3.656  0.00  0.00    +0.277 C 
ATOM      8  O   LIG    1       25.719 -18.357   3.296  0.00  0.00    -0.495 OA
ENDBRANCH   1   8
BRANCH   4   9
ATOM      9  O   LIG    1       27.534 -13.154   3.867  0.00  0.00    -0.495 OA
ATOM     10  C   LIG    1       28.954 -13.024   3.789  0.00  0.00    +0.277 C 
ENDBRANCH   4   9
BRANCH   3  11
ATOM     11  C   LIG    1       24.792 -13.474   3.094  0.00  0.00    +0.165 C 
BRANCH  11  12
ATOM     12  C   LIG    1       24.205 -12.775   4.363  0.00  0.00    +0.081 C 
ATOM     13  C   LIG    1       23.525 -11.447   4.046  0.00  0.00    +0.027 C 
BRANCH  12  14
ATOM     14  N   LIG    1       25.250 -12.551   5.386  0.00  0.00    -0.325 NA
ATOM     15  H   LIG    1       25.510 -11.562   5.320  0.00  0.00    +0.118 HD
ATOM     16  H   LIG    1       24.831 -12.644   6.312  0.00  0.00    +0.118 HD
ENDBRANCH  12  14
ENDBRANCH  11  12
BRANCH  11  17
ATOM     17  O   LIG    1       25.499 -12.471   2.339  0.00  0.00    -0.386 OA
ATOM     18  H   LIG    1       25.232 -11.603   2.686  0.00  0.00    +0.210 HD
ENDBRANCH  11  17
ENDBRANCH   3  11
TORSDOF 6
ENDMDL
MODEL 4
REMARK VINA RESULT:      -3.1      1.411      3.655
REMARK  Name = *****
REMARK                            x       y       z     vdW  Elec       q    Type
REMARK                         _______ _______ _______ _____ _____    ______ ____
ROOT
ATOM      1  C   LIG    1       28.401 -19.735   5.693  0.00  0.00    +0.121 A 
ATOM      2  C   LIG    1       27.143 -20.279   5.417  0.00  0.00    +0.055 A 
ATOM      3  C   LIG    1       26.214 -19.593   4.606  0.00  0.00    +0.027 A 
ATOM      4  C   LIG    1       26.566 -18.337   4.090  0.00  0.00    +0.126 A 
ATOM      5  C   LIG    1       27.800 -17.762   4.434  0.00  0.00    +0.049 A 
ATOM      6  C   LIG    1       28.715 -18.473   5.213  0.00  0.00    +0.049 A 
ENDROOT
BRANCH   1   8
ATOM      7  C   LIG    1       29.034 -21.565   7.062  0.00  0.00    +0.277 C 
ATOM      8  O   LIG    1       29.387 -20.350   6.412  0.00  0.00    -0.495 OA
ENDBRANCH   1   8
BRANCH   4   9
ATOM      9  O   LIG    1       25.672 -17.710   3.261  0.00  0.00    -0.495 OA
ATOM     10  C   LIG    1       25.868 -16.302   3.122  0.00  0.00    +0.277 C 
ENDBRANCH   4   9
BRANCH   3  11
ATOM     11  C   LIG    1       24.891 -20.272   4.285  0.00  0.00    +0.165 C 
BRANCH  11  12
ATOM     12  C   LIG    1       23.665 -19.654   5.031  0.00  0.00    +0.081 C 
ATOM     13  C   LIG    1       22.802 -20.704   5.724  0.00  0.00    +0.027 C 
BRANCH  12  14
ATOM     14  N   LIG    1       22.818 -18.863   4.111  0.00  0.00    -0.325 NA
ATOM     15  H   LIG    1       21.859 -19.203   4.238  0.00  0.00    +0.118 HD
ATOM     16  H   LIG    1       22.791 -17.896   4.435  0.00  0.00    +0.118 HD
ENDBRANCH  12  14
ENDBRANCH  11  12
BRANCH  11  17
ATOM     17  O   LIG    1       24.629 -20.172   2.871  0.00  0.00    -0.386 OA
ATOM     18  H   LIG    1       24.009 -20.884   2.638  0.00  0.00    +0.210 HD
ENDBRANCH  11  17
ENDBRANCH   3  11
TORSDOF 6
ENDMDL
MODEL 5
REMARK VINA RESULT:      -3.0      2.379      3.874
REMARK  Name = *****
REMARK                            x       y       z     vdW  Elec       q    Type
REMARK                         _______ _______ _______ _____ _____    ______ ____
ROOT
ATOM      1  C   LIG    1       23.186 -16.542   4.169  0.00  0.00    +0.121 A 
ATOM      2  C   LIG    1       24.366 -17.287   4.089  0.00  0.00    +0.055 A 
ATOM      3  C   LIG    1       24.346 -18.695   4.164  0.00  0.00    +0.027 A 
ATOM      4  C   LIG    1       23.114 -19.345   4.338  0.00  0.00    +0.126 A 
ATOM      5  C   LIG    1       21.942 -18.588   4.495  0.00  0.00    +0.049 A 
ATOM      6  C   LIG    1       21.983 -17.197   4.387  0.00  0.00    +0.049 A 
ENDROOT
BRANCH   1   8
ATOM      7  C   LIG    1       24.324 -14.463   4.098  0.00  0.00    +0.277 C 
ATOM      8  O   LIG    1       23.099 -15.184   4.044  0.00  0.00    -0.495 OA
ENDBRANCH   1   8
BRANCH   4   9
ATOM      9  O   LIG    1       23.108 -20.716   4.354  0.00  0.00    -0.495 OA
ATOM     10  C   LIG    1       22.400 -21.300   5.449  0.00  0.00    +0.277 C 
ENDBRANCH   4   9
BRANCH   3  11
ATOM     11  C   LIG    1       25.656 -19.451   3.998  0.00  0.00    +0.165 C 
BRANCH  11  12
ATOM     12  C   LIG    1       26.197 -20.078   5.324  0.00  0.00    +0.081 C 
ATOM     13  C   LIG    1       27.703 -19.901   5.491  0.00  0.00    +0.027 C 
BRANCH  12  14
ATOM     14  N   LIG    1       25.867 -21.517   5.411  0.00  0.00    -0.325 NA
ATOM     15  H   LIG    1       24.891 -21.570   5.723  0.00  0.00    +0.118 HD
ATOM     16  H   LIG    1       25.855 -21.911   4.470  0.00  0.00    +0.118 HD
ENDBRANCH  12  14
ENDBRANCH  11  12
BRANCH  11  17
ATOM     17  O   LIG    1       25.477 -20.526   3.055  0.00  0.00    -0.386 OA
ATOM     18  H   LIG    1       26.165 -20.435   2.375  0.00  0.00    +0.210 HD
ENDBRANCH  11  17
ENDBRANCH   3  11
TORSDOF 6
ENDMDL
MODEL 6
REMARK VINA RESULT:      -3.0      2.143      3.752
REMARK  Name = *****
REMARK                            x       y       z     vdW  Elec       q    Type
REMARK                         _______ _______ _______ _____ _____    ______ ____
ROOT
ATOM      1  C   LIG    1       25.813 -15.751   3.261  0.00  0.00    +0.121 A 
ATOM      2  C   LIG    1       26.096 -17.120   3.308  0.00  0.00    +0.055 A 
ATOM      3  C   LIG    1       25.120 -18.052   3.718  0.00  0.00    +0.027 A 
ATOM      4  C   LIG    1       23.854 -17.581   4.098  0.00  0.00    +0.126 A 
ATOM      5  C   LIG    1       23.601 -16.200   4.122  0.00  0.00    +0.049 A 
ATOM      6  C   LIG    1       24.573 -15.300   3.684  0.00  0.00    +0.049 A 
ENDROOT
BRANCH   1   8
ATOM      7  C   LIG    1       26.106 -13.502   2.568  0.00  0.00    +0.277 C 
ATOM      8  O   LIG    1       26.670 -14.783   2.819  0.00  0.00    -0.495 OA
ENDBRANCH   1   8
BRANCH   4   9
ATOM      9  O   LIG    1       22.902 -18.506   4.442  0.00  0.00    -0.495 OA
ATOM     10  C   LIG    1       21.570 -18.171   4.050  0.00  0.00    +0.277 C 
ENDBRANCH   4   9
BRANCH   3  11
ATOM     11  C   LIG    1       25.467 -19.533   3.678  0.00  0.00    +0.165 C 
BRANCH  11  12
ATOM     12  C   LIG    1       25.717 -20.163   5.087  0.00  0.00    +0.081 C 
ATOM     13  C   LIG    1       27.179 -20.089   5.517  0.00  0.00    +0.027 C 
BRANCH  12  14
ATOM     14  N   LIG    1       25.270 -21.572   5.133  0.00  0.00    -0.325 NA
ATOM     15  H   LIG    1       25.105 -21.789   6.121  0.00  0.00    +0.118 HD
ATOM     16  H   LIG    1       24.349 -21.640   4.699  0.00  0.00    +0.118 HD
ENDBRANCH  12  14
ENDBRANCH  11  12
BRANCH  11  17
ATOM     17  O   LIG    1       24.388 -20.265   3.065  0.00  0.00    -0.386 OA
ATOM     18  H   LIG    1       24.077 -19.746   2.305  0.00  0.00    +0.210 HD
ENDBRANCH  11  17
ENDBRANCH   3  11
TORSDOF 6
ENDMDL
MODEL 7
REMARK VINA RESULT:      -2.9      2.988      5.116
REMARK  Name = *****
REMARK                            x       y       z     vdW  Elec       q    Type
REMARK                         _______ _______ _______ _____ _____    ______ ____
ROOT
ATOM      1  C   LIG    1       24.745 -18.829   3.742  0.00  0.00    +0.121 A 
ATOM      2  C   LIG    1       25.223 -17.541   3.482  0.00  0.00    +0.055 A 
ATOM      3  C   LIG    1       26.557 -17.185   3.773  0.00  0.00    +0.027 A 
ATOM      4  C   LIG    1       27.401 -18.145   4.352  0.00  0.00    +0.126 A 
ATOM      5  C   LIG    1       26.894 -19.412   4.682  0.00  0.00    +0.049 A 
ATOM      6  C   LIG    1       25.580 -19.751   4.356  0.00  0.00    +0.049 A 
ENDROOT
BRANCH   1   8
ATOM      7  C   LIG    1       22.460 -18.967   4.362  0.00  0.00    +0.277 C 
ATOM      8  O   LIG    1       23.494 -19.283   3.437  0.00  0.00    -0.495 OA
ENDBRANCH   1   8
BRANCH   4   9
ATOM      9  O   LIG    1       28.708 -17.798   4.578  0.00  0.00    -0.495 OA
ATOM     10  C   LIG    1       29.333 -18.488   5.660  0.00  0.00    +0.277 C 
ENDBRANCH   4   9
BRANCH   3  11
ATOM     11  C   LIG    1       27.035 -15.790   3.398  0.00  0.00    +0.165 C 
BRANCH  11  12
ATOM     12  C   LIG    1       25.898 -14.716   3.378  0.00  0.00    +0.081 C 
ATOM     13  C   LIG    1       26.073 -13.690   2.263  0.00  0.00    +0.027 C 
BRANCH  12  14
ATOM     14  N   LIG    1       25.804 -14.010   4.675  0.00  0.00    -0.325 NA
ATOM     15  H   LIG    1       25.495 -14.707   5.360  0.00  0.00    +0.118 HD
ATOM     16  H   LIG    1       26.743 -13.752   4.979  0.00  0.00    +0.118 HD
ENDBRANCH  12  14
ENDBRANCH  11  12
BRANCH  11  17
ATOM     17  O   LIG    1       28.026 -15.349   4.346  0.00  0.00    -0.386 OA
ATOM     18  H   LIG    1       28.253 -14.430   4.124  0.00  0.00    +0.210 HD
ENDBRANCH  11  17
ENDBRANCH   3  11
TORSDOF 6
ENDMDL
MODEL 8
REMARK VINA RESULT:      -2.5      3.554      6.115
REMARK  Name = *****
REMARK                            x       y       z     vdW  Elec       q    Type
REMARK                         _______ _______ _______ _____ _____    ______ ____
ROOT
ATOM      1  C   LIG    1       24.447 -18.756   3.609  0.00  0.00    +0.121 A 
ATOM      2  C   LIG    1       25.053 -17.500   3.520  0.00  0.00    +0.055 A 
ATOM      3  C   LIG    1       24.378 -16.333   3.937  0.00  0.00    +0.027 A 
ATOM      4  C   LIG    1       23.070 -16.450   4.430  0.00  0.00    +0.126 A 
ATOM      5  C   LIG    1       22.439 -17.704   4.444  0.00  0.00    +0.049 A 
ATOM      6  C   LIG    1       23.138 -18.847   4.055  0.00  0.00    +0.049 A 
ENDROOT
BRANCH   1   8
ATOM      7  C   LIG    1       24.599 -21.089   4.010  0.00  0.00    +0.277 C 
ATOM      8  O   LIG    1       25.042 -19.944   3.290  0.00  0.00    -0.495 OA
ENDBRANCH   1   8
BRANCH   4   9
ATOM      9  O   LIG    1       22.450 -15.313   4.880  0.00  0.00    -0.495 OA
ATOM     10  C   LIG    1       21.975 -15.381   6.225  0.00  0.00    +0.277 C 
ENDBRANCH   4   9
BRANCH   3  11
ATOM     11  C   LIG    1       25.120 -15.006   3.882  0.00  0.00    +0.165 C 
BRANCH  11  12
ATOM     12  C   LIG    1       26.506 -15.085   3.163  0.00  0.00    +0.081 C 
ATOM     13  C   LIG    1       27.664 -14.658   4.061  0.00  0.00    +0.027 C 
BRANCH  12  14
ATOM     14  N   LIG    1       26.521 -14.266   1.932  0.00  0.00    -0.325 NA
ATOM     15  H   LIG    1       25.549 -14.217   1.607  0.00  0.00    +0.118 HD
ATOM     16  H   LIG    1       26.756 -13.304   2.178  0.00  0.00    +0.118 HD
ENDBRANCH  12  14
ENDBRANCH  11  12
BRANCH  11  17
ATOM     17  O   LIG    1       24.324 -14.037   3.174  0.00  0.00    -0.386 OA
ATOM     18  H   LIG    1       24.585 -13.156   3.492  0.00  0.00    +0.210 HD
ENDBRANCH  11  17
ENDBRANCH   3  11
TORSDOF 6
ENDMDL
MODEL 9
REMARK VINA RESULT:      -2.4      3.855      6.398
REMARK  Name = *****
REMARK                            x       y       z     vdW  Elec       q    Type
REMARK                         _______ _______ _______ _____ _____    ______ ____
ROOT
ATOM      1  C   LIG    1       23.405 -17.413   4.129  0.00  0.00    +0.121 A 
ATOM      2  C   LIG    1       23.276 -16.021   4.146  0.00  0.00    +0.055 A 
ATOM      3  C   LIG    1       24.339 -15.185   3.745  0.00  0.00    +0.027 A 
ATOM      4  C   LIG    1       25.547 -15.774   3.343  0.00  0.00    +0.126 A 
ATOM      5  C   LIG    1       25.697 -17.169   3.403  0.00  0.00    +0.049 A 
ATOM      6  C   LIG    1       24.621 -17.977   3.773  0.00  0.00    +0.049 A 
ENDROOT
BRANCH   1   8
ATOM      7  C   LIG    1       22.818 -19.645   4.675  0.00  0.00    +0.277 C 
ATOM      8  O   LIG    1       22.415 -18.302   4.437  0.00  0.00    -0.495 OA
ENDBRANCH   1   8
BRANCH   4   9
ATOM      9  O   LIG    1       26.550 -14.948   2.906  0.00  0.00    -0.495 OA
ATOM     10  C   LIG    1       27.724 -14.946   3.720  0.00  0.00    +0.277 C 
ENDBRANCH   4   9
BRANCH   3  11
ATOM     11  C   LIG    1       24.109 -13.681   3.717  0.00  0.00    +0.165 C 
BRANCH  11  12
ATOM     12  C   LIG    1       24.512 -12.954   5.041  0.00  0.00    +0.081 C 
ATOM     13  C   LIG    1       23.856 -11.585   5.188  0.00  0.00    +0.027 C 
BRANCH  12  14
ATOM     14  N   LIG    1       25.979 -12.801   5.145  0.00  0.00    -0.325 NA
ATOM     15  H   LIG    1       26.319 -13.622   5.658  0.00  0.00    +0.118 HD
ATOM     16  H   LIG    1       26.388 -12.895   4.215  0.00  0.00    +0.118 HD
ENDBRANCH  12  14
ENDBRANCH  11  12
BRANCH  11  17
ATOM     17  O   LIG    1       24.884 -13.095   2.652  0.00  0.00    -0.386 OA
ATOM     18  H   LIG    1       25.466 -13.788   2.299  0.00  0.00    +0.210 HD
ENDBRANCH  11  17
ENDBRANCH   3  11
TORSDOF 6
ENDMDL
